data_image0
_chemical_formula_structural       NC9NC4H8C7NC2NH7C9H10Zn2C4O8
_chemical_formula_sum              "N4 C35 H25 Zn2 O8"
_cell_length_a       16.32274767691083
_cell_length_b       9.273995741505848
_cell_length_c       9.272679976505534
_cell_angle_alpha    86.1595600704732
_cell_angle_beta     89.86705810092191
_cell_angle_gamma    90.10890436374608

_space_group_name_H-M_alt    "P 1"
_space_group_IT_number       1

loop_
  _space_group_symop_operation_xyz
  'x, y, z'

loop_
  _atom_site_type_symbol
  _atom_site_label
  _atom_site_symmetry_multiplicity
  _atom_site_fract_x
  _atom_site_fract_y
  _atom_site_fract_z
  _atom_site_occupancy
  N   N1        1.0  0.7742070084352481  0.5550483155015098  0.401813871143701  1.0000
  C   C1        1.0  0.7213356612563518  0.5018900754893206  0.34141788198450884  1.0000
  C   C2        1.0  0.6556165555243868  0.43586712743354755  0.26640558053099395  1.0000
  C   C3        1.0  0.6662590459249207  0.3455594781117006  0.16379733624257975  1.0000
  C   C4        1.0  0.5864492355421225  0.30148889785436483  0.11372791563946816  1.0000
  C   C5        1.0  0.528166320348513  0.36598524265651844  0.18701167919178263  1.0000
  C   C6        1.0  0.43805703140405494  0.3489394697885577  0.1676473559508276  1.0000
  C   C7        1.0  0.38321882503007204  0.42411405932397894  0.25305610803313905  1.0000
  C   C8        1.0  0.2983634777809518  0.4095459202903329  0.23650613087767086  1.0000
  C   C9        1.0  0.2431366361542928  0.48703150814520924  0.3245396530194511  1.0000
  N   N2        1.0  0.1987530667245032  0.5493171668437572  0.3953036955326135  1.0000
  C   C10       1.0  0.2672920758973996  0.31968161688321484  0.13440996568931984  1.0000
  C   C11       1.0  0.32080936903703205  0.24460660461671016  0.049114722590805744  1.0000
  C   C12       1.0  0.4055019645613842  0.2587823439287591  0.06521874601349477  1.0000
  C   C13       1.0  0.5668682526572405  0.46002798078169804  0.2938608796901854  1.0000
  H   H1        1.0  0.7248126185987339  0.31044307174384955  0.12389532228857991  1.0000
  H   H2        1.0  0.577410060923716  0.22768056697552289  0.02986612040381175  1.0000
  H   H3        1.0  0.4060382802663257  0.49426829862483596  0.33275949501232566  1.0000
  H   H4        1.0  0.20177937531606993  0.3076804903331436  0.1207764666306268  1.0000
  H   H5        1.0  0.296600276137305  0.1750881893734606  0.9701339887069543  1.0000
  H   H6        1.0  0.44467797924492003  0.19872717018131753  0.9969884797303067  1.0000
  H   H7        1.0  0.5503163655026578  0.4223505373165957  0.4064416088845124  1.0000
  H   H8        1.0  0.5506604303976477  0.57538130843403  0.2695361446596452  1.0000
  C   C14       1.0  0.9840298145608584  0.12871832498367275  0.39754317907875913  1.0000
  C   C15       1.0  0.9978969578657158  0.21071679560812845  0.2669503273067917  1.0000
  C   C16       1.0  0.019115705021292673  0.1443089374820925  0.14165228301386512  1.0000
  C   C17       1.0  0.02735893424485658  0.9937663917858086  0.14336365223516756  1.0000
  C   C18       1.0  0.011766867135237778  0.9105039868997072  0.2727886492954399  1.0000
  C   C19       1.0  0.9889380965282031  0.9756359586087947  0.3995866849347466  1.0000
  C   C20       1.0  0.05083963035589645  0.9253725453906374  0.009030528055310903  1.0000
  N   N3        1.0  0.05330516264673823  0.9985682235476119  0.8779890862445656  1.0000
  C   C21       1.0  0.07751811981817734  0.8996232593956732  0.7869449556584631  1.0000
  C   C22       1.0  0.0895100174144292  0.7691636284428233  0.863296711996361  1.0000
  N   N4        1.0  0.07276707579505293  0.7855116950254283  0.002948353395364034  1.0000
  H   H9        1.0  0.9184179638710862  0.3958776677174661  0.6060405806767799  1.0000
  H   H10       1.0  0.030289766486602636  0.21156888342322924  0.04354377745108051  1.0000
  H   H11       1.0  0.014548709748608113  0.7939204296576456  0.27474392557274424  1.0000
  H   H12       1.0  0.9909590715501085  0.6795097457471341  0.6393052476857992  1.0000
  H   H13       1.0  0.0861264664373908  0.9216024934755626  0.6718687109710557  1.0000
  H   H14       1.0  0.10946037833023457  0.6694384419081771  0.8202522747665227  1.0000
  H   H15       1.0  0.0775528612365497  0.7055853923043882  0.08714753532527643  1.0000
  C   C23       1.0  0.9848033495489116  0.5487944312627424  0.9752195268042213  1.0000
  C   C24       1.0  0.03995632078553357  0.45884275712347433  0.054416846160956656  1.0000
  C   C25       1.0  0.09921106044158899  0.3805221593077863  0.9847132702219485  1.0000
  C   C26       1.0  0.10531696926259303  0.38957678845936317  0.8337802460639709  1.0000
  C   C27       1.0  0.04916937973804369  0.47758462593500767  0.7532090056470717  1.0000
  C   C28       1.0  0.9881645487969404  0.5555599268130107  0.8219104176322994  1.0000
  C   C29       1.0  0.17215654754367082  0.3018008446934892  0.7663897318078654  1.0000
  C   C30       1.0  0.15226845592288596  0.2360705671313739  0.6244297323356363  1.0000
  C   C31       1.0  0.210634874691775  0.36441262897811355  0.6260392788216178  1.0000
  H   H16       1.0  0.862025667120954  0.6479582859220416  0.2502970673245426  1.0000
  H   H17       1.0  0.038617345972088435  0.4515862758208414  0.17149378243425534  1.0000
  H   H18       1.0  0.14123213365754475  0.3133079320684436  0.04953457839324462  1.0000
  H   H19       1.0  0.05103791486818209  0.4837938192606275  0.6364170452117697  1.0000
  H   H20       1.0  0.8029737570328945  0.6937310391504043  0.7103868892745315  1.0000
  H   H21       1.0  0.2145947329282114  0.2363528723884467  0.8377629468021901  1.0000
  H   H22       1.0  0.09156384911186244  0.26150015601397364  0.5757405657990788  1.0000
  H   H23       1.0  0.18348507466876907  0.13182720462282727  0.6093973224491515  1.0000
  H   H24       1.0  0.1854236638829354  0.4677364046904727  0.5782103641667513  1.0000
  H   H25       1.0  0.27597362351517085  0.3351700031029643  0.6119435797972574  1.0000
  Zn  Zn1       1.0  0.8967218469855436  0.5533906260079382  0.399943491248586  1.0000
  Zn  Zn2       1.0  0.07623821265172402  0.5509631174199676  0.3971858570881118  1.0000
  C   C32       1.0  0.9874940973117682  0.5485363614853753  0.6618538335190491  1.0000
  C   C33       1.0  0.9854679337451363  0.5558191760551211  0.13527563059105652  1.0000
  C   C34       1.0  0.9879833034158396  0.8155046940130515  0.3934557142360704  1.0000
  C   C35       1.0  0.9849786566489882  0.2888491124412749  0.40367382349417735  1.0000
  O   O1        1.0  0.05381646302536369  0.5572492265957041  0.1879453981802084  1.0000
  O   O2        1.0  0.05539432789408716  0.5452627969150443  0.6070906677899817  1.0000
  O   O3        1.0  0.05578845559613296  0.7608431261029538  0.39035730523331574  1.0000
  O   O4        1.0  0.0534222736972185  0.34166890768810276  0.404678653610258  1.0000
  O   O5        1.0  0.9195377246799032  0.7626848365697017  0.3924506956599054  1.0000
  O   O6        1.0  0.9191436067097873  0.5471062392978614  0.6091839855298957  1.0000
  O   O7        1.0  0.9175657347235829  0.5590926048768667  0.19003698253713375  1.0000
  O   O8        1.0  0.9171715457613906  0.3435122765188561  0.40677034602726625  1.0000
