data_image0
_chemical_formula_structural       NC9NC5H8C6ClH5C7OH5Zn2C4O8
_chemical_formula_sum              "N2 C31 H18 Cl1 O9 Zn2"
_cell_length_a       17.807436237873137
_cell_length_b       10.30297070629231
_cell_length_c       9.274081674992354
_cell_angle_alpha    86.07103647319707
_cell_angle_beta     89.07685020002327
_cell_angle_gamma    88.39001192287226

_space_group_name_H-M_alt    "P 1"
_space_group_IT_number       1

loop_
  _space_group_symop_operation_xyz
  'x, y, z'

loop_
  _atom_site_type_symbol
  _atom_site_label
  _atom_site_symmetry_multiplicity
  _atom_site_fract_x
  _atom_site_fract_y
  _atom_site_fract_z
  _atom_site_occupancy
  N   N1        1.0  0.7122090423779959  0.3742163474812967  0.39852262673908334  1.0000
  C   C1        1.0  0.6516581764508358  0.33893783934865906  0.3862868834481697  1.0000
  C   C2        1.0  0.5763395543891363  0.2950552601494394  0.3710669473371768  1.0000
  C   C3        1.0  0.5585973210756814  0.22271011016429987  0.2545216092491913  1.0000
  C   C4        1.0  0.48546709966013857  0.17999129532047853  0.23965232081479623  1.0000
  C   C5        1.0  0.4290305010298016  0.20923992715638734  0.34129235135373515  1.0000
  C   C6        1.0  0.3513116543215596  0.1639564539109288  0.325581244934785  1.0000
  C   C7        1.0  0.2890490329818773  0.2459218557957128  0.3543715423473268  1.0000
  C   C8        1.0  0.21577646124447641  0.2030001920258717  0.3395174388175013  1.0000
  C   C9        1.0  0.1524625396450714  0.2876593869155954  0.36871164273457624  1.0000
  N   N2        1.0  0.1015711373887964  0.355719532467605  0.39218297633387755  1.0000
  C   C10       1.0  0.2041830503323119  0.07785499894708535  0.2958449014018012  1.0000
  C   C11       1.0  0.26558832975060775  0.9958756730594799  0.26704529204454386  1.0000
  C   C12       1.0  0.33874214306683054  0.038401083965459604  0.28167459289662755  1.0000
  C   C13       1.0  0.4474634097320848  0.2820812748701824  0.4580810182168136  1.0000
  C   C14       1.0  0.5206470201091311  0.32460834366749597  0.4727775458395438  1.0000
  H   H1        1.0  0.6012307150175515  0.19958125418249947  0.1749258014408699  1.0000
  H   H2        1.0  0.4728302954220149  0.1255736644738945  0.14761678716849835  1.0000
  H   H3        1.0  0.2974504553990602  0.3436175946861346  0.38642293416473183  1.0000
  H   H4        1.0  0.14775326294447308  0.0437336989520245  0.2840853603930493  1.0000
  H   H5        1.0  0.2564925542993061  0.8989888765275718  0.23366153382192523  1.0000
  H   H6        1.0  0.3854463303672001  0.972504237634226  0.2605322673573447  1.0000
  H   H7        1.0  0.4055425915588647  0.3046830025270603  0.5391136221909971  1.0000
  H   H8        1.0  0.5338156374341969  0.3802367158098305  0.5636569521773211  1.0000
  C   C15       1.0  0.9068936469118205  0.9837203886582495  0.39535898443218453  1.0000
  C   C16       1.0  0.9843897106172793  0.9771191147184088  0.4218597244138311  1.0000
  C   C17       1.0  0.022841189327172707  0.8568868940456807  0.43500858351827665  1.0000
  C   C18       1.0  0.9843897102205433  0.7420111455221934  0.4218596566322954  1.0000
  C   C19       1.0  0.9068936546826266  0.7462053307653386  0.39535906681642685  1.0000
  C   C20       1.0  0.8685233812431056  0.8676354587861705  0.38223784432096064  1.0000
  Cl  Cl1       1.0  0.11965223709615369  0.8501438462298917  0.4681142223218908  1.0000
  H   H9        1.0  0.8777022394262655  0.31351008465414876  0.38537581281567745  1.0000
  H   H10       1.0  0.015211778899363315  0.06501889113886984  0.43239958899681774  1.0000
  H   H11       1.0  0.015211749498274417  0.6498176988746551  0.4323994859181544  1.0000
  H   H12       1.0  0.8087560652678126  0.871798234074267  0.3617996329961966  1.0000
  H   H13       1.0  0.877702234947166  0.42048212037926663  0.3853760850225354  1.0000
  C   C21       1.0  0.9081615985002397  0.3614992980317206  0.9720686261409424  1.0000
  C   C22       1.0  0.9691787764265614  0.41510274427450167  0.03960122133208976  1.0000
  C   C23       1.0  0.025941332829461986  0.4784860250006895  0.9581940616742176  1.0000
  C   C24       1.0  0.021671471863617734  0.4886186648960338  0.8071408823769071  1.0000
  C   C25       1.0  0.9622286492624423  0.4342001772014139  0.7383798261733676  1.0000
  C   C26       1.0  0.9056257235612303  0.3684263733939297  0.8186493298327084  1.0000
  C   C27       1.0  0.08871032677665999  0.5345906859512997  0.03261698399427582  1.0000
  O   O1        1.0  0.1404149599856428  0.5926211917988786  0.9624354035717126  1.0000
  H   H14       1.0  0.730151645279811  0.2856201425903533  0.0863357770544888  1.0000
  H   H15       1.0  0.06468870870696075  0.5375646973603294  0.7418326132211273  1.0000
  H   H16       1.0  0.9615317831447391  0.44094112533672924  0.6213174136131587  1.0000
  H   H17       1.0  0.7869639302603658  0.31194857758942857  0.5454970301522803  1.0000
  H   H18       1.0  0.0909006033641393  0.5262330698785889  0.1494885106922057  1.0000
  Zn  Zn1       1.0  0.8245705061497085  0.3688751702512456  0.3967014769819599  1.0000
  Zn  Zn2       1.0  0.989209619922968  0.3610502238591029  0.39401597631456187  1.0000
  C   C28       1.0  0.9061033773138878  0.361945065488745  0.6586275109516959  1.0000
  C   C29       1.0  0.9076785461890545  0.3679818824287209  0.13209005449733313  1.0000
  C   C30       1.0  0.9069070050390756  0.6020325993900989  0.3896150263379474  1.0000
  C   C31       1.0  0.9068748620537976  0.12789279202069426  0.401102616876986  1.0000
  O   O2        1.0  0.9699961150735056  0.36718230665894525  0.18477557415964307  1.0000
  O   O3        1.0  0.9687430875364614  0.35680470519815355  0.6039033434804977  1.0000
  O   O4        1.0  0.969391180342143  0.5506784774393932  0.3866738725855954  1.0000
  O   O5        1.0  0.9693479664113894  0.17330854549074856  0.40200493789247904  1.0000
  O   O6        1.0  0.8444321034780604  0.5566168512912213  0.3887125163128897  1.0000
  O   O7        1.0  0.8437840108992211  0.3627446382282756  0.6059419103507357  1.0000
  O   O8        1.0  0.8450370436774312  0.3731221802647031  0.18681240799353405  1.0000
  O   O9        1.0  0.8443888946885229  0.17924841069508532  0.404041879797284  1.0000
