data_image0
_chemical_formula_structural       NC9NC3NH7C12H9C7F3H5Zn2C4O8
_chemical_formula_sum              "N3 C35 H21 F3 Zn2 O8"
_cell_length_a       16.053384444249904
_cell_length_b       10.299137764757564
_cell_length_c       9.272721663655245
_cell_angle_alpha    85.85599579155343
_cell_angle_beta     90.31938989593549
_cell_angle_gamma    89.19348198390439

_space_group_name_H-M_alt    "P 1"
_space_group_IT_number       1

loop_
  _space_group_symop_operation_xyz
  'x, y, z'

loop_
  _atom_site_type_symbol
  _atom_site_label
  _atom_site_symmetry_multiplicity
  _atom_site_fract_x
  _atom_site_fract_y
  _atom_site_fract_z
  _atom_site_occupancy
  N   N1        1.0  0.7764463663018315  0.39630051181157633  0.4056711434730955  1.0000
  C   C1        1.0  0.7252581475996772  0.3750825335502219  0.3225784383700896  1.0000
  C   C2        1.0  0.6616453928373054  0.3487190733365091  0.21935704484967242  1.0000
  C   C3        1.0  0.6745110341656755  0.3359341538993783  0.07421313395567752  1.0000
  C   C4        1.0  0.5975822543170518  0.3103229236983671  0.016207654246787048  1.0000
  C   C5        1.0  0.541069016276514  0.308907554840542  0.1290910814261761  1.0000
  C   C6        1.0  0.4503530057446806  0.285029141888949  0.11772379878411643  1.0000
  C   C7        1.0  0.39500390578106576  0.32825227156257436  0.22196873303324338  1.0000
  C   C8        1.0  0.3093945204678889  0.30560530239269057  0.2110809359003598  1.0000
  C   C9        1.0  0.2532792985175447  0.35058622757005176  0.31795863147925973  1.0000
  N   N2        1.0  0.2081792353463395  0.38674454025474825  0.40387156097724297  1.0000
  C   C10       1.0  0.2784082609329159  0.23962328569602806  0.09596347056481691  1.0000
  C   C11       1.0  0.3327500463124389  0.19652092212933978  0.9919534980218842  1.0000
  C   C12       1.0  0.41815115952627724  0.21900001100759267  0.002401047650157478  1.0000
  N   N3        1.0  0.5809015517266566  0.33248407605147534  0.2529377648501061  1.0000
  H   H1        1.0  0.7329514871742595  0.3442909369937224  0.016902208190114235  1.0000
  H   H2        1.0  0.5847393212526036  0.29600190740528465  0.9038814595600599  1.0000
  H   H3        1.0  0.4177896256094762  0.38114582312486145  0.31054554659554356  1.0000
  H   H4        1.0  0.2123340069401948  0.22160977508657886  0.08660818864309228  1.0000
  H   H5        1.0  0.3086729856591879  0.1452679825802874  0.9031163991917577  1.0000
  H   H6        1.0  0.4588434119325309  0.1831575164230246  0.9210904389962743  1.0000
  H   H7        1.0  0.555269592054255  0.3353531282655784  0.35592427991331577  1.0000
  C   C13       1.0  0.9922374154728185  0.010125095476065889  0.40492884965506715  1.0000
  C   C14       1.0  0.9914099912753377  0.01924075844498118  0.2531000732793869  1.0000
  C   C15       1.0  0.9910719898866358  0.9067284519019283  0.17596099799410125  1.0000
  C   C16       1.0  0.9915725464478125  0.783979996891683  0.2527028750884246  1.0000
  C   C17       1.0  0.9923961947152451  0.7729098823422287  0.40462629073433565  1.0000
  C   C18       1.0  0.9927249551217229  0.8864953708733759  0.47980396795315117  1.0000
  C   C19       1.0  0.9901956702520093  0.9174168580978804  0.015341157182315207  1.0000
  C   C20       1.0  0.040034476577096134  0.8336129768689805  0.9375620922393745  1.0000
  C   C21       1.0  0.039106067801860434  0.8439265762270164  0.7863722774310666  1.0000
  C   C22       1.0  0.9885389383654355  0.9376582448606492  0.7112514727475645  1.0000
  C   C23       1.0  0.9387947582374786  0.02133642896482702  0.7871680097258769  1.0000
  C   C24       1.0  0.9395137064561185  0.011522367469591899  0.9383596719983309  1.0000
  H   H8        1.0  0.9921792581752579  0.11405858999165996  0.19447170160128513  1.0000
  H   H9        1.0  0.9901675290598279  0.6969490319727929  0.19380990092846484  1.0000
  H   H10       1.0  0.9933608857869485  0.8787487718252424  0.596912996655977  1.0000
  H   H11       1.0  0.993421074538514  0.5447357803201229  0.6913759767218841  1.0000
  H   H12       1.0  0.08047961991641173  0.7613332502304008  0.9935987821793955  1.0000
  H   H13       1.0  0.0778031035608624  0.7793686237418043  0.7274165849922825  1.0000
  H   H14       1.0  0.9879014236912441  0.9454484299361495  0.594219868061491  1.0000
  H   H15       1.0  0.8994587923239415  0.0937019425384462  0.7288298519656347  1.0000
  H   H16       1.0  0.8996828635835422  0.07630146859326192  0.9950246137456524  1.0000
  C   C25       1.0  0.990112203115637  0.38945973162547176  0.9813443597406296  1.0000
  C   C26       1.0  0.025545494069574293  0.28244195332922617  0.06396104772660749  1.0000
  C   C27       1.0  0.068281972443474  0.1829880057719635  0.9979168926064066  1.0000
  C   C28       1.0  0.07303239673252554  0.18886364926387883  0.8467449052567666  1.0000
  C   C29       1.0  0.0371048229590607  0.29318826562723443  0.7631630459172918  1.0000
  C   C30       1.0  0.994521433693292  0.3935752671988719  0.828210741085285  1.0000
  C   C31       1.0  0.1039105696556819  0.06737637033596311  0.08816118309109267  1.0000
  F   F1        1.0  0.1319735144388412  0.10450294647075808  0.22026221675160174  1.0000
  F   F2        1.0  0.1703041950381372  0.012185211812133499  0.018785780252048134  1.0000
  F   F3        1.0  0.04273049861738509  0.9752434897505196  0.11148891167751662  1.0000
  H   H17       1.0  0.9373705703761059  0.6999056101568384  0.057661183259275495  1.0000
  H   H18       1.0  0.02138487845272241  0.27791983855158797  0.1808258503483895  1.0000
  H   H19       1.0  0.10380776446100404  0.11188707124307264  0.7927389613374634  1.0000
  H   H20       1.0  0.04067468099153926  0.2935246412876078  0.6464933837274334  1.0000
  H   H21       1.0  0.8450701845312707  0.6159441786991235  0.7074561496146052  1.0000
  Zn  Zn1       1.0  0.9010351866884768  0.39353944148401676  0.4051601434961962  1.0000
  Zn  Zn2       1.0  0.08359045065573856  0.3894950866630404  0.40439435013144687  1.0000
  C   C32       1.0  0.9936850421258246  0.38762330341911144  0.6681369393098424  1.0000
  C   C33       1.0  0.9909425897941826  0.39541281999340444  0.1414176868310817  1.0000
  C   C34       1.0  0.9923319834080346  0.6286994931339516  0.3989375010524212  1.0000
  C   C35       1.0  0.9922955862940455  0.1543350716131468  0.4106172028443136  1.0000
  O   O1        1.0  0.06050004525049291  0.3958702530901936  0.19484914534719677  1.0000
  O   O2        1.0  0.06268280561431361  0.38409531678039155  0.6141238466572307  1.0000
  O   O3        1.0  0.06158926748320038  0.5787674167759262  0.39674339901566613  1.0000
  O   O4        1.0  0.06159352052689471  0.2011981632402324  0.41222948513147517  1.0000
  O   O5        1.0  0.9230320545201293  0.5818363662883412  0.3973250087499103  1.0000
  O   O6        1.0  0.9241255925719781  0.38716582633973995  0.6147053788894061  1.0000
  O   O7        1.0  0.9219428232280454  0.39894070896409684  0.19542894397679467  1.0000
  O   O8        1.0  0.9230362990619676  0.2042686103500788  0.41280939187210275  1.0000
