data_image0
_chemical_formula_structural       NC5NC3H4C6ClH5C6H6Zn2C4O8
_chemical_formula_sum              "N2 C24 H15 Cl1 Zn2 O8"
_cell_length_a       13.859018345313864
_cell_length_b       9.276545438789551
_cell_length_c       10.681121600428288
_cell_angle_alpha    85.59384611870172
_cell_angle_beta     89.99986506473405
_cell_angle_gamma    89.40960550048821

_space_group_name_H-M_alt    "P 1"
_space_group_IT_number       1

loop_
  _space_group_symop_operation_xyz
  'x, y, z'

loop_
  _atom_site_type_symbol
  _atom_site_label
  _atom_site_symmetry_multiplicity
  _atom_site_fract_x
  _atom_site_fract_y
  _atom_site_fract_z
  _atom_site_occupancy
  N   N1        1.0  0.8977085986193808  0.5780585076091123  0.6194687845461335  1.0000
  C   C1        1.0  0.8256266832765842  0.5385215381790505  0.6639761189390159  1.0000
  C   C2        1.0  0.735960992608657  0.48934284386450444  0.7193373227351496  1.0000
  C   C3        1.0  0.6480152566257416  0.537286311014326  0.6653669289671751  1.0000
  C   C4        1.0  0.5607306901415153  0.4893425534562519  0.7193372135134577  1.0000
  C   C5        1.0  0.4703868044288752  0.5385214255062691  0.6639760343403909  1.0000
  N   N2        1.0  0.39775969629576136  0.5780584737149757  0.6194687245614616  1.0000
  C   C6        1.0  0.5615744369870548  0.3934411491305294  0.827294039623947  1.0000
  C   C7        1.0  0.6493363591762829  0.3456822380984536  0.8810567423943635  1.0000
  C   C8        1.0  0.7364397785043846  0.39344144425502425  0.8272942167036359  1.0000
  H   H1        1.0  0.6475033801786332  0.6115166136162284  0.5818054417895362  1.0000
  H   H2        1.0  0.4945391616012414  0.35570473686780746  0.8697737937892271  1.0000
  H   H3        1.0  0.6498471336345846  0.2716026364383046  0.9644487510630242  1.0000
  H   H4        1.0  0.8039954196127466  0.3557052667583191  0.869774163548171  1.0000
  C   C9        1.0  0.15065084950701751  0.15462332646923316  0.6192623345998252  1.0000
  C   C10       1.0  0.1510070273447024  0.23827480402058865  0.5036759861498068  1.0000
  C   C11       1.0  0.14258495233319923  0.17319542269220767  0.3906053955797561  1.0000
  C   C12       1.0  0.13360733984071982  0.023604281423886368  0.3913815901723614  1.0000
  C   C13       1.0  0.13473964910920677  0.9384143884975782  0.5048463496670006  1.0000
  C   C14       1.0  0.14482676032582176  0.0014825549733821222  0.619686041699369  1.0000
  Cl  Cl1       1.0  0.1418261515902206  0.27981684244594307  0.2476381020437923  1.0000
  H   H5        1.0  0.20001469404365288  0.41758232388298966  0.8161472914253198  1.0000
  H   H6        1.0  0.15552803868404008  0.3549953691504437  0.5011966142537603  1.0000
  H   H7        1.0  0.1266695404924265  0.9728826903195853  0.3039034297104324  1.0000
  H   H8        1.0  0.1300222269958926  0.8221539238601923  0.5025435870251973  1.0000
  H   H9        1.0  0.11249720729640322  0.7027469763117683  0.8221848768834971  1.0000
  C   C15       1.0  0.1477388147174108  0.578052901163105  0.25172895456859745  1.0000
  C   C16       1.0  0.07922771817582805  0.49785795819214956  0.19026634357193895  1.0000
  C   C17       1.0  0.07922765729728609  0.4978580506500936  0.0593842036653065  1.0000
  C   C18       1.0  0.14773873837847984  0.5780529718464535  0.9872193902803085  1.0000
  C   C19       1.0  0.21619328967743323  0.6581814572260674  0.04868138768036711  1.0000
  C   C20       1.0  0.21619327748624623  0.6581814348669037  0.1795736863322266  1.0000
  H   H10       1.0  0.21702168908799546  0.6591520235999844  0.545027272718968  1.0000
  H   H11       1.0  0.02552548642257713  0.4349973717088445  0.24327172807315486  1.0000
  H   H12       1.0  0.02552546580419612  0.43499743958302894  0.014767698881582362  1.0000
  H   H13       1.0  0.2699025337503633  0.7210503271162989  0.9957203426912006  1.0000
  H   H14       1.0  0.26990248548322326  0.7210502765685172  0.22414471015031803  1.0000
  H   H15       1.0  0.2170219936875657  0.659151521224915  0.6830982467541764  1.0000
  Zn  Zn1       1.0  0.04201256875041224  0.5780546273978671  0.6194760050637242  1.0000
  Zn  Zn2       1.0  0.25345578402032043  0.5780505199268737  0.6194717837118147  1.0000
  C   C21       1.0  0.14777613167726833  0.5723085802895578  0.8481930911717934  1.0000
  C   C22       1.0  0.1476945175344604  0.5837983863549441  0.3907548213808545  1.0000
  C   C23       1.0  0.14592265210236355  0.8414081009505703  0.6146156443401168  1.0000
  C   C24       1.0  0.14954793687288312  0.3146971332863504  0.6243323341124327  1.0000
  O   O1        1.0  0.22792129250758106  0.5857187742161789  0.4374115671716534  1.0000
  O   O2        1.0  0.2280298721121239  0.5703839871638063  0.8015327804372454  1.0000
  O   O3        1.0  0.22653208221973822  0.7876852533465828  0.6129173402931973  1.0000
  O   O4        1.0  0.22941901017778638  0.3684175183497631  0.6260269134261618  1.0000
  O   O5        1.0  0.06604927043774289  0.7876876289779495  0.6129208753442317  1.0000
  O   O6        1.0  0.06754704841140824  0.5703880952057248  0.8015362495832321  1.0000
  O   O7        1.0  0.0674384692166965  0.5857228320101731  0.43741353066991473  1.0000
  O   O8        1.0  0.06893618695387915  0.368421565830368  0.6260289708088171  1.0000
