data_image0
_chemical_formula_structural       NC6NCNCH5C7NH3C7NH4Zn2C4O8
_chemical_formula_sum              "N5 C26 H12 Zn2 O8"
_cell_length_a       14.933214217465613
_cell_length_b       9.275154477615127
_cell_length_c       9.275157849593905
_cell_angle_alpha    86.33461140486662
_cell_angle_beta     89.70661770832213
_cell_angle_gamma    89.46799387830556

_space_group_name_H-M_alt    "P 1"
_space_group_IT_number       1

loop_
  _space_group_symop_operation_xyz
  'x, y, z'

loop_
  _atom_site_type_symbol
  _atom_site_label
  _atom_site_symmetry_multiplicity
  _atom_site_fract_x
  _atom_site_fract_y
  _atom_site_fract_z
  _atom_site_occupancy
  N   N1        1.0  0.8380847849529109  0.5635019065625639  0.4157049212659869  1.0000
  C   C1        1.0  0.7605912344176821  0.5644888966942063  0.4147185627473833  1.0000
  C   C2        1.0  0.6641886916194114  0.5657194200094444  0.41348869505640823  1.0000
  C   C3        1.0  0.616680403663364  0.4708878337441223  0.508279060133106  1.0000
  C   C4        1.0  0.5231434043165123  0.4719601749023912  0.5072072149018754  1.0000
  C   C5        1.0  0.4762125200561889  0.5678097686387673  0.41139932184712547  1.0000
  C   C6        1.0  0.37964395330489553  0.5657215564087437  0.4134866331791551  1.0000
  N   N2        1.0  0.30216411946374006  0.563979522471282  0.41522753885370545  1.0000
  C   C7        1.0  0.5238155820278811  0.663838820479868  0.3154121409377213  1.0000
  N   N3        1.0  0.47817182201358  0.7634633719036743  0.21583116808914604  1.0000
  C   C8        1.0  0.6178361281057868  0.6618097448984613  0.31744045190665715  1.0000
  H   H1        1.0  0.651927218076734  0.3961195052078603  0.5830148452047368  1.0000
  H   H2        1.0  0.487307116719819  0.39782080796344044  0.5813141828219093  1.0000
  H   H3        1.0  0.5142928509738515  0.8338278014380075  0.14549728329165235  1.0000
  H   H4        1.0  0.40841267637224654  0.7687642482414709  0.2105326679963202  1.0000
  H   H5        1.0  0.6547993391314654  0.7352031462582234  0.2440789595106889  1.0000
  C   C9        1.0  0.07272481602191361  0.14033801624326708  0.4137958686260774  1.0000
  C   C10       1.0  0.04850931399803439  0.22226851573118678  0.28675260198547536  1.0000
  C   C11       1.0  0.01699077272427108  0.1550388093656001  0.1664478377814207  1.0000
  C   C12       1.0  0.009167149086013461  0.004961404749053821  0.17176964441179154  1.0000
  C   C13       1.0  0.0342209087327774  0.9217962004023289  0.29591563099054685  1.0000
  C   C14       1.0  0.06753268487120373  0.9871324310872247  0.4171490801418334  1.0000
  C   C15       1.0  0.9915883079468283  0.24053515131229  0.03787428917924162  1.0000
  N   N4        1.0  0.9711717802963561  0.3092586286732251  0.9345340893585043  1.0000
  H   H6        1.0  0.08907372168925855  0.22043256369079559  0.767534899143407  1.0000
  H   H7        1.0  0.9844660230176755  0.951918763409378  0.07930836816848452  1.0000
  H   H8        1.0  0.08234421713391327  0.6906599908611355  0.6541603250170183  1.0000
  C   C16       1.0  0.07134195601148699  0.5596609234743177  0.9922573217902402  1.0000
  C   C17       1.0  0.1482367301136014  0.6067436583221246  0.06206008983133127  1.0000
  C   C18       1.0  0.22046842824761526  0.6651592366347638  0.9823382803352518  1.0000
  C   C19       1.0  0.21664589597549366  0.6774204503100305  0.8317317553653059  1.0000
  C   C20       1.0  0.1415993390091136  0.6291720652591082  0.7605809284877089  1.0000
  C   C21       1.0  0.06891556520833997  0.5678094625962449  0.8386876132740291  1.0000
  C   C22       1.0  0.2982285631922321  0.7142508053554528  0.05545568882964358  1.0000
  N   N5        1.0  0.360727805081682  0.7537071905580992  0.11422973801672454  1.0000
  H   H9        1.0  0.8537600915538929  0.5108227522877697  0.10012653627714219  1.0000
  H   H10       1.0  0.27212772593055334  0.7230849197188347  0.7690321998726022  1.0000
  H   H11       1.0  0.14135475915683338  0.6367521820366455  0.6435467093283975  1.0000
  H   H12       1.0  0.9233944562691564  0.5288746268660338  0.561277455616858  1.0000
  Zn  Zn1       1.0  0.9720080566722912  0.5636359476316197  0.4155754749259808  1.0000
  Zn  Zn2       1.0  0.1682408716809517  0.5638337669554017  0.4153687734664404  1.0000
  C   C23       1.0  0.06940740461606779  0.5605253297341535  0.67867139626621  1.0000
  C   C24       1.0  0.0708436550333027  0.5669462076002127  0.15227299852575205  1.0000
  C   C25       1.0  0.0685259583698703  0.8270149491019962  0.41077219660185404  1.0000
  C   C26       1.0  0.07172504472018026  0.3004548566281363  0.4201722682370397  1.0000
  O   O1        1.0  0.14514578986140392  0.5694599966975515  0.20589725436458206  1.0000
  O   O2        1.0  0.14404144371984323  0.5581605892265978  0.6248898396284042  1.0000
  O   O3        1.0  0.14332865655061178  0.7733543405019097  0.4085593474621514  1.0000
  O   O4        1.0  0.14585851031619448  0.3542662546286267  0.4222276385829766  1.0000
  O   O5        1.0  0.9943903510724311  0.7732034598923851  0.40871660987240754  1.0000
  O   O6        1.0  0.9951031278363661  0.558011440155298  0.6250470320546906  1.0000
  O   O7        1.0  0.9962074793126714  0.5693107807013607  0.20605271386437596  1.0000
  O   O8        1.0  0.9969201995172863  0.35411702936003975  0.4223832060935917  1.0000
