data_image0
_chemical_formula_structural       NC5NC3H4C6ClH5C10H5Zn2C4O8
_chemical_formula_sum              "N2 C28 H14 Cl1 Zn2 O8"
_cell_length_a       13.859018345313864
_cell_length_b       9.276545438789551
_cell_length_c       9.275153671780862
_cell_angle_alpha    85.73418776908572
_cell_angle_beta     89.40940085297899
_cell_angle_gamma    89.40960550048821

_space_group_name_H-M_alt    "P 1"
_space_group_IT_number       1

loop_
  _space_group_symop_operation_xyz
  'x, y, z'

loop_
  _atom_site_type_symbol
  _atom_site_label
  _atom_site_symmetry_multiplicity
  _atom_site_fract_x
  _atom_site_fract_y
  _atom_site_fract_z
  _atom_site_occupancy
  N   N1        1.0  0.9086997462076182  0.573990364539372  0.4104248516255622  1.0000
  C   C1        1.0  0.8362634841643668  0.5345845491186771  0.46167161220537095  1.0000
  C   C2        1.0  0.7461570333348625  0.48556899294619854  0.5254157657263727  1.0000
  C   C3        1.0  0.6586409845308087  0.5333534203865804  0.4632730226132802  1.0000
  C   C4        1.0  0.5709267317372926  0.4855687022160924  0.5254156399660241  1.0000
  C   C5        1.0  0.4810236059901925  0.5345844361966001  0.46167151479658347  1.0000
  N   N2        1.0  0.4087508443615689  0.5739903304684724  0.41042478255784176  1.0000
  C   C6        1.0  0.5709109765334361  0.38998542457164737  0.6497195933729716  1.0000
  C   C7        1.0  0.6582448650829484  0.34238494122612995  0.7116231963314894  1.0000
  C   C8        1.0  0.7457763166409398  0.38998572021795974  0.6497197972665667  1.0000
  H   H1        1.0  0.6587943857883848  0.6073374843803632  0.3670584192114188  1.0000
  H   H2        1.0  0.5035374970981121  0.35237419145415405  0.6986317518046703  1.0000
  H   H3        1.0  0.6580917111456464  0.26855107875560535  0.8076426583102241  1.0000
  H   H4        1.0  0.8129937521657683  0.35237472243426926  0.6986321775535571  1.0000
  C   C9        1.0  0.16164364075372828  0.15055457503373537  0.41018714044571936  1.0000
  C   C10       1.0  0.16292006334993614  0.23386544326228823  0.27709838089377237  1.0000
  C   C11       1.0  0.15539820380254765  0.16845286603491583  0.14690632238020673  1.0000
  C   C12       1.0  0.14641441160965374  0.01886401205326904  0.14780005054868028  1.0000
  C   C13       1.0  0.14664336722433788  0.934008476561136  0.2784459641578594  1.0000
  C   C14       1.0  0.15581617821363003  0.997415052116027  0.4106750064701059  1.0000
  Cl  Cl1       1.0  0.15577764217068374  0.27465299042213775  0.9822905177600926  1.0000
  H   H5        1.0  0.20943997881593615  0.41409375213751237  0.6368849731026145  1.0000
  H   H6        1.0  0.16746081429539905  0.35057870219038345  0.27424357550768885  1.0000
  H   H7        1.0  0.1401730726974748  0.9678846407059332  0.047075700139785015  1.0000
  H   H8        1.0  0.1419442786363896  0.817741226153332  0.2757945106977422  1.0000
  H   H9        1.0  0.1218744236207554  0.6992761960954972  0.6438367867907611  1.0000
  C   C15       1.0  0.1616577358323248  0.5729011040448038  0.9870008187198273  1.0000
  C   C16       1.0  0.186150310528971  0.7003344331305825  0.05081793286231395  1.0000
  C   C17       1.0  0.2016183275522451  0.8291249968476209  0.9658997316172311  1.0000
  C   C18       1.0  0.1926831460895519  0.8320863491070616  0.8159609183703203  1.0000
  C   C19       1.0  0.17004402504102134  0.7062613353006449  0.7505263277795864  1.0000
  C   C20       1.0  0.15580208674755402  0.5750684609869371  0.8338613445659431  1.0000
  C   C21       1.0  0.22558425961669082  0.9589303357001089  0.03308357354242486  1.0000
  C   C22       1.0  0.24565089387364944  0.06760550848344238  0.08935786518497957  1.0000
  C   C23       1.0  0.26914792138696697  0.1948593495530626  0.15526063987021343  1.0000
  C   C24       1.0  0.28921067640306286  0.3035137442092677  0.21153226843445583  1.0000
  H   H10       1.0  0.1910169404299873  0.7004074379098952  0.16743336693149824  1.0000
  H   H11       1.0  0.20416380682389193  0.9314996331412118  0.7493115132562882  1.0000
  H   H12       1.0  0.16590998641134508  0.7107760695754493  0.6336972520627202  1.0000
  H   H13       1.0  0.1703372389062057  0.22045047169999685  0.7571582367384004  1.0000
  H   H14       1.0  0.3068274144793572  0.3989212113309768  0.26094368113309563  1.0000
  Zn  Zn1       1.0  0.053003658852246234  0.5739865056055147  0.41043316549430475  1.0000
  Zn  Zn2       1.0  0.2644469077305953  0.5739823856950611  0.41042830493337523  1.0000
  C   C25       1.0  0.1569462826933179  0.5689144409601627  0.673783238289636  1.0000
  C   C26       1.0  0.16050657934506396  0.5790562700249191  0.14707837465783213  1.0000
  C   C27       1.0  0.1569524381362033  0.837325656669474  0.40483683523252156  1.0000
  C   C28       1.0  0.160500363141032  0.3106433221022211  0.41602485359359753  1.0000
  O   O1        1.0  0.2403618950036592  0.5811141457711946  0.20080001657571867  1.0000
  O   O2        1.0  0.23757151082512373  0.5668523494442113  0.6200574916141566  1.0000
  O   O3        1.0  0.2375753893606858  0.7835978045108904  0.40288136919368944  1.0000
  O   O4        1.0  0.2403579449934218  0.36436870074420247  0.417976030889627  1.0000
  O   O5        1.0  0.0770925494342578  0.7836001905593295  0.4028854395321284  1.0000
  O   O6        1.0  0.07708865950468047  0.5668564677089931  0.6200614860680198  1.0000
  O   O7        1.0  0.07987905608031441  0.5811182093512166  0.2008022773924285  1.0000
  O   O8        1.0  0.0798751053895903  0.3643727542874937  0.41797839980697105  1.0000
