data_image0
_chemical_formula_structural       NC8NC6H8C12NH11C12IH9Zn2C4O8
_chemical_formula_sum              "N3 C42 H28 I1 Zn2 O8"
_cell_length_a       17.457602349358154
_cell_length_b       10.299770795358612
_cell_length_c       10.29977335064465
_cell_angle_alpha    85.53972113204546
_cell_angle_beta     92.88561579931032
_cell_angle_gamma    91.70596819880058

_space_group_name_H-M_alt    "P 1"
_space_group_IT_number       1

loop_
  _space_group_symop_operation_xyz
  'x, y, z'

loop_
  _atom_site_type_symbol
  _atom_site_label
  _atom_site_symmetry_multiplicity
  _atom_site_fract_x
  _atom_site_fract_y
  _atom_site_fract_z
  _atom_site_occupancy
  N   N1        1.0  0.7225581079013084  0.4532130917067116  0.6263848251763284  1.0000
  C   C1        1.0  0.6614707859605842  0.4072907611021445  0.6157724071249104  1.0000
  C   C2        1.0  0.5854755763897084  0.3501690935812249  0.6025801006965865  1.0000
  C   C3        1.0  0.5269614495899037  0.39031030781746057  0.6774755193063826  1.0000
  C   C4        1.0  0.4524047677921765  0.3353067354511747  0.6648974996403121  1.0000
  C   C5        1.0  0.39030057750925434  0.3776898798060514  0.7442145979662782  1.0000
  C   C6        1.0  0.3157519334280958  0.39617369716910567  0.6884491811238216  1.0000
  C   C7        1.0  0.2572377806109364  0.43613095594427786  0.7634525681041107  1.0000
  C   C8        1.0  0.18125087921874433  0.4552212386908847  0.7054716240190271  1.0000
  N   N2        1.0  0.1201703258583352  0.4705634462740857  0.6588550964973314  1.0000
  C   C9        1.0  0.27278020224853783  0.45784739866258994  0.894729876373589  1.0000
  C   C10       1.0  0.3465442503862437  0.4397524613428034  0.9508828661924813  1.0000
  C   C11       1.0  0.4050468749908746  0.399975130675813  0.876337191563861  1.0000
  C   C12       1.0  0.4376505977595243  0.2394849244073276  0.5759911781600489  1.0000
  C   C13       1.0  0.49615309556280834  0.1996222799882785  0.5014957460340044  1.0000
  C   C14       1.0  0.5699250849156403  0.2547380762143592  0.5146237124495145  1.0000
  H   H1        1.0  0.5393255845599328  0.46548631879250857  0.7441012912036606  1.0000
  H   H2        1.0  0.3033944213103406  0.3812315790901971  0.5864248305487927  1.0000
  H   H3        1.0  0.2279305008969827  0.48871395295935444  0.9535639865026457  1.0000
  H   H4        1.0  0.35838829961593044  0.4562523445031039  0.05253383704885306  1.0000
  H   H5        1.0  0.461534177435684  0.3849705733012545  0.9224452001884705  1.0000
  H   H6        1.0  0.38115665786351954  0.19415227251911807  0.5653425991106691  1.0000
  H   H7        1.0  0.4843028589961201  0.1255630626221562  0.4336715585270918  1.0000
  H   H8        1.0  0.6147747206580959  0.22300168193829797  0.4563007967363311  1.0000
  C   C15       1.0  0.9212983632966797  0.08051682946843819  0.6426541760789182  1.0000
  C   C16       1.0  0.8990177232169819  0.08875795873959345  0.5094242705117786  1.0000
  C   C17       1.0  0.887798315180396  0.975800726983768  0.4418862782834285  1.0000
  C   C18       1.0  0.8991581441316968  0.8534824926443161  0.5093671848840851  1.0000
  C   C19       1.0  0.9214373958594565  0.8432500108176822  0.6425975276213436  1.0000
  C   C20       1.0  0.9323831143908912  0.957316729525017  0.7084948562434059  1.0000
  C   C21       1.0  0.8642270270488644  0.985572783258467  0.3009367984290485  1.0000
  C   C22       1.0  0.8083575489438846  0.07432584553225308  0.25118716156813314  1.0000
  C   C23       1.0  0.7862051493811655  0.08339551540112078  0.1185271367119225  1.0000
  C   C24       1.0  0.8195030563093714  0.004113879104579384  0.03350237908463583  1.0000
  C   C25       1.0  0.8751883438528494  0.9155511193027486  0.08234641558669131  1.0000
  C   C26       1.0  0.8974022003989914  0.9062281141079942  0.21498148620017019  1.0000
  N   N3        1.0  0.7968113341360121  0.013520935303618078  0.8978138060966391  1.0000
  H   H9        1.0  0.9297556912775904  0.40482740727133226  0.6934354145755413  1.0000
  H   H10       1.0  0.8913537328952034  0.18334372966765855  0.4574461652267033  1.0000
  H   H11       1.0  0.8895683862751642  0.7660497106497189  0.4581719185065025  1.0000
  H   H12       1.0  0.9495710358014031  0.9501910099409812  0.8112757786092806  1.0000
  H   H13       1.0  0.9299601783824566  0.511899979849281  0.6933524899252412  1.0000
  H   H14       1.0  0.7810720111858143  0.13552709769406213  0.31516216523177376  1.0000
  H   H15       1.0  0.7429468762369009  0.15199859466647014  0.08208296063281151  1.0000
  H   H16       1.0  0.9015249873650196  0.8539631060258601  0.017604649145665625  1.0000
  H   H17       1.0  0.9412484966532368  0.8381613831087203  0.2500341395750354  1.0000
  H   H18       1.0  0.8213065715122742  0.9548136869446128  0.8336745494838982  1.0000
  H   H19       1.0  0.7553487269901279  0.07926264827730378  0.8604931019429264  1.0000
  C   C27       1.0  0.9213313247998466  0.46198789805748874  0.26125368537236815  1.0000
  C   C28       1.0  0.9908915916198695  0.5340267047940763  0.2605908344554091  1.0000
  C   C29       1.0  0.026175194069320912  0.5704231135308377  0.1431279471319531  1.0000
  C   C30       1.0  0.990965352308982  0.5338157670926564  0.025327263698166298  1.0000
  C   C31       1.0  0.9214044433230213  0.4617789372789859  0.023998103793361206  1.0000
  C   C32       1.0  0.8869772389098178  0.42626733526694655  0.14246129063139423  1.0000
  C   C33       1.0  0.09976385162931733  0.6466318271390101  0.14348069955716403  1.0000
  C   C34       1.0  0.11185150363674447  0.7501783119984198  0.2242692587037689  1.0000
  C   C35       1.0  0.18115328024557142  0.8217945699022247  0.22440272289906527  1.0000
  C   C36       1.0  0.23913774426476112  0.7909652133313541  0.14415154118225004  1.0000
  C   C37       1.0  0.22779032295476184  0.6883372261811436  0.0635660932530493  1.0000
  C   C38       1.0  0.15856633639001294  0.6164983909999124  0.06303306012608534  1.0000
  I   I1        1.0  0.34361983217152314  0.8991631517812115  0.14465640269760294  1.0000
  H   H20       1.0  0.894803416951337  0.4346018738750634  0.5889529248308871  1.0000
  H   H21       1.0  0.018331127640793806  0.5604710311980587  0.3518062509979365  1.0000
  H   H22       1.0  0.017392767172990105  0.5631566511034576  0.9343700974711178  1.0000
  H   H23       1.0  0.8333142293994916  0.37069379272765457  0.14220425523146374  1.0000
  H   H24       1.0  0.8949104952795545  0.43429440507810607  0.6960418573420566  1.0000
  H   H25       1.0  0.06736893515045474  0.776815148894696  0.2860248258524789  1.0000
  H   H26       1.0  0.1896586888967736  0.9014426018766615  0.2866761033207479  1.0000
  H   H27       1.0  0.2726501028702936  0.6639530761391153  0.001549990448678205  1.0000
  H   H28       1.0  0.15139409141053117  0.5363676470948631  0.0010295082224012191  1.0000
  Zn  Zn1       1.0  0.8373004052232784  0.45821654446543914  0.6357625428744813  1.0000
  Zn  Zn2       1.0  0.005428013364665137  0.46554934270815296  0.6494880122081168  1.0000
  C   C39       1.0  0.9213879637941025  0.4566446432516751  0.8798232900412595  1.0000
  C   C40       1.0  0.921342291053018  0.4671229625919508  0.4054275422689846  1.0000
  C   C41       1.0  0.9214066751301653  0.6990784425693746  0.6374327359206147  1.0000
  C   C42       1.0  0.9213235220689622  0.2246876004396345  0.6478181610610971  1.0000
  O   O1        1.0  0.9851495214802105  0.47162343009603735  0.45902235018960763  1.0000
  O   O2        1.0  0.9851856975237492  0.45770862031748316  0.8366454219825809  1.0000
  O   O3        1.0  0.9851999471913161  0.653476941377503  0.6409132642591899  1.0000
  O   O4        1.0  0.9851352144344393  0.2758551158507945  0.654754405853232  1.0000
  O   O5        1.0  0.8575931467798028  0.6479107688218888  0.6304961445387058  1.0000
  O   O6        1.0  0.8575788973865268  0.4521440080955765  0.8262282328999689  1.0000
  O   O7        1.0  0.8575427212360913  0.4660587730478451  0.4486035997004214  1.0000
  O   O8        1.0  0.857528414194823  0.27029044948691694  0.6443357527331526  1.0000
