data_image0
_chemical_formula_structural       NC8NC6H8C12SCH10C12IH7Zn2C4O8
_chemical_formula_sum              "N2 C43 H25 S1 I1 Zn2 O8"
_cell_length_a       17.457602349358154
_cell_length_b       10.299776766347527
_cell_length_c       10.299773350644651
_cell_angle_alpha    85.54589617011163
_cell_angle_beta     92.88561579931032
_cell_angle_gamma    91.66964631390691

_space_group_name_H-M_alt    "P 1"
_space_group_IT_number       1

loop_
  _space_group_symop_operation_xyz
  'x, y, z'

loop_
  _atom_site_type_symbol
  _atom_site_label
  _atom_site_symmetry_multiplicity
  _atom_site_fract_x
  _atom_site_fract_y
  _atom_site_fract_z
  _atom_site_occupancy
  N   N1        1.0  0.7220175562933182  0.45317649764604373  0.6264976236933129  1.0000
  C   C1        1.0  0.6609473160798313  0.40725532343386095  0.6158816411469024  1.0000
  C   C2        1.0  0.5849733540530399  0.3501350943212372  0.6026849009301538  1.0000
  C   C3        1.0  0.5264442959275911  0.3902752977421713  0.6775834353042258  1.0000
  C   C4        1.0  0.4519080738061895  0.3352731104474045  0.6650011462564471  1.0000
  C   C5        1.0  0.3897881182669785  0.3776551875318552  0.7443215343654842  1.0000
  C   C6        1.0  0.31523259876111154  0.3961385394449779  0.6885575522384173  1.0000
  C   C7        1.0  0.2567035830442129  0.4360947920371201  0.7635640407043442  1.0000
  C   C8        1.0  0.1807095806404112  0.45518459406209777  0.7055845784085417  1.0000
  N   N2        1.0  0.1196233204397412  0.4705264153057604  0.6589692417502322  1.0000
  C   C9        1.0  0.2722379268175986  0.4578106879032008  0.894843034605852  1.0000
  C   C10       1.0  0.34600870572832093  0.43971620624076957  0.9509946198942549  1.0000
  C   C11       1.0  0.4045261263048408  0.39993987722595237  0.876445857746031  1.0000
  C   C12       1.0  0.4371895466082569  0.23945371233885693  0.5760873870795089  1.0000
  C   C13       1.0  0.49570687211758246  0.1995920717203079  0.5015888608118002  1.0000
  C   C14       1.0  0.569458360050185  0.2547064800489065  0.5147211053198435  1.0000
  H   H1        1.0  0.5387804676802185  0.46544941567378206  0.7442150423695184  1.0000
  H   H2        1.0  0.3028806446623423  0.38119679763076086  0.5865320418549819  1.0000
  H   H3        1.0  0.2273767440352381  0.48867646493435446  0.953679540599334  1.0000
  H   H4        1.0  0.3578466174972147  0.45621567390954354  0.05264687147288415  1.0000
  H   H5        1.0  0.46101900999417805  0.3849356976883993  0.9225527017156913  1.0000
  H   H6        1.0  0.3807124690967245  0.19412220199404714  0.5654352893060459  1.0000
  H   H7        1.0  0.4838841833546279  0.12553471927510396  0.4337589248224826  1.0000
  H   H8        1.0  0.6143198007777843  0.2229708849423167  0.4563957262251856  1.0000
  C   C15       1.0  0.9208964435004965  0.08048962045233755  0.642738045882071  1.0000
  C   C16       1.0  0.9255197591797548  0.06909084876383687  0.7796288097053512  1.0000
  C   C17       1.0  0.9277885648521708  0.9461731547197324  0.8489917754781513  1.0000
  C   C18       1.0  0.9253730598236185  0.8337966667084168  0.7796320193313113  1.0000
  C   C19       1.0  0.9207517930974205  0.8432035805068628  0.6427406734634571  1.0000
  C   C20       1.0  0.9185389220239778  0.9669897987604962  0.5750599310055697  1.0000
  C   C21       1.0  0.9326710563380146  0.9351780776239444  0.9938060676047028  1.0000
  C   C22       1.0  0.8887694015235663  0.8397809451014319  0.0642630187357256  1.0000
  C   C23       1.0  0.8933874386457626  0.8296687530735029  0.2005487655518375  1.0000
  C   C24       1.0  0.9417160181553178  0.9146662730630227  0.26816861643889567  1.0000
  C   C25       1.0  0.9858008900998545  0.009497223922662492  0.19909968598112948  1.0000
  C   C26       1.0  0.9812953500341234  0.019964216580860228  0.06281271161142832  1.0000
  S   S1        1.0  0.9477261983165408  0.9012340935151899  0.44304888932354175  1.0000
  C   C27       1.0  0.8706337404970421  0.013926373645882338  0.45628152552299933  1.0000
  H   H9        1.0  0.9263090277198904  0.15594133756660677  0.8326513246729272  1.0000
  H   H10       1.0  0.9281627268145126  0.7388896927261318  0.832621767236498  1.0000
  H   H11       1.0  0.9149727551097362  0.9750150010493693  0.46945457012865033  1.0000
  H   H12       1.0  0.850143960268567  0.7741447830604852  0.013994676745250012  1.0000
  H   H13       1.0  0.8590916859154553  0.7560941382038588  0.2534691124573283  1.0000
  H   H14       1.0  0.02360994937165196  0.07515318726826914  0.25089028207571074  1.0000
  H   H15       1.0  0.016559543930033893  0.09321173868966826  0.011384490629258283  1.0000
  H   H16       1.0  0.885987515499293  0.11093991972243368  0.4086580312766011  1.0000
  H   H17       1.0  0.8617538884877715  0.024188423366378938  0.5608350585184139  1.0000
  H   H18       1.0  0.8166439107166004  0.9760499230679199  0.4097504207690903  1.0000
  C   C28       1.0  0.9207875092275347  0.461951083034184  0.2613671649905269  1.0000
  C   C29       1.0  0.9903209797758743  0.5339880757267894  0.26070990573153696  1.0000
  C   C30       1.0  0.025591043854814158  0.5703835679480058  0.1432498435002525  1.0000
  C   C31       1.0  0.9903948189274742  0.5337771433370939  0.025446318601293424  1.0000
  C   C32       1.0  0.9208607054778407  0.46174212751762417  0.02411156719196739  1.0000
  C   C33       1.0  0.886446710313632  0.4262314197403847  0.142571997616598  1.0000
  C   C34       1.0  0.0991513540630571  0.6465903625077565  0.14360851125193916  1.0000
  C   C35       1.0  0.11120048988919479  0.7501342399131246  0.22440510768502198  1.0000
  C   C36       1.0  0.180475627401808  0.821748694413354  0.2245441307400133  1.0000
  C   C37       1.0  0.2384715590153666  0.7909201141713995  0.14429055604606322  1.0000
  C   C38       1.0  0.22716231223310618  0.6882947113460962  0.06369714212425093  1.0000
  C   C39       1.0  0.15796504755663038  0.6164576851732673  0.06315853286112572  1.0000
  I   I1        1.0  0.34291340053985797  0.8991153280367168  0.1448038158940952  1.0000
  H   H19       1.0  0.017750679301902217  0.5604317362234179  0.3519273748848053  1.0000
  H   H20       1.0  0.016811319864183716  0.563117288500925  0.9344914298160205  1.0000
  H   H21       1.0  0.8328043724914095  0.3706592766253054  0.14231064859382925  1.0000
  H   H22       1.0  0.06670801329988962  0.7767704060543473  0.2861627423871526  1.0000
  H   H23       1.0  0.18895140937815957  0.9013947207322328  0.28682369344834013  1.0000
  H   H24       1.0  0.27203116231982594  0.6639111753331257  0.0016791466201933009  1.0000
  H   H25       1.0  0.15082260880633425  0.5363289590791775  0.001148761202659499  1.0000
  Zn  Zn1       1.0  0.8367579924811916  0.45817982441041094  0.6358757297598711  1.0000
  Zn  Zn2       1.0  0.004882873041947456  0.4655124380023909  0.6496017682658959  1.0000
  C   C40       1.0  0.9208461357520389  0.45660796277945037  0.8799363549155507  1.0000
  C   C41       1.0  0.9207965653909833  0.46708601826010643  0.4055414204712657  1.0000
  C   C42       1.0  0.9207746689987356  0.69903565725457  0.6375646185258952  1.0000
  C   C43       1.0  0.9208679750776216  0.22465676098972495  0.6479132214110811  1.0000
  O   O1        1.0  0.984602121779482  0.47158637243574764  0.4591365777185374  1.0000
  O   O2        1.0  0.9846434737141848  0.45767191305273824  0.8367585694428578  1.0000
  O   O3        1.0  0.9845849034482219  0.6534353043761223  0.6410416072722831  1.0000
  O   O4        1.0  0.9846606346647057  0.27582298792696885  0.6548534378298749  1.0000
  O   O5        1.0  0.8569801734856624  0.6478692719849874  0.6306240555050378  1.0000
  O   O6        1.0  0.8570387434455191  0.4521074409560196  0.8263409484345977  1.0000
  O   O7        1.0  0.8569973914205937  0.4660218555138717  0.44871739530022414  1.0000
  O   O8        1.0  0.857055904313785  0.2702584616896422  0.644434352779945  1.0000
