data_image0
_chemical_formula_structural       NC9NC3NH7C7NC2NH8C8NH11Zn2C4O8
_chemical_formula_sum              "N6 C33 H26 Zn2 O8"
_cell_length_a       16.053384444249904
_cell_length_b       9.273995741505848
_cell_length_c       9.275652972338538
_cell_angle_alpha    86.07888925788727
_cell_angle_beta     90.23845156290304
_cell_angle_gamma    89.75855226915094

_space_group_name_H-M_alt    "P 1"
_space_group_IT_number       1

loop_
  _space_group_symop_operation_xyz
  'x, y, z'

loop_
  _atom_site_type_symbol
  _atom_site_label
  _atom_site_symmetry_multiplicity
  _atom_site_fract_x
  _atom_site_fract_y
  _atom_site_fract_z
  _atom_site_occupancy
  N   N1        1.0  0.7865979659472119  0.5483921638137261  0.41070322769305845  1.0000
  C   C1        1.0  0.7353433716323605  0.5247413191272756  0.3275771009355293  1.0000
  C   C2        1.0  0.6716481269599363  0.4953550330553089  0.2243141720845816  1.0000
  C   C3        1.0  0.6845516336408063  0.48099636756367814  0.07918825728206455  1.0000
  C   C4        1.0  0.6075081011757508  0.45249649817205867  0.021125472931832652  1.0000
  C   C5        1.0  0.5508934536529553  0.4510531410895557  0.13395917086223808  1.0000
  C   C6        1.0  0.4600354753640487  0.4245299684482506  0.12252132862363327  1.0000
  C   C7        1.0  0.4048748380079611  0.4726353505393206  0.22686042637941248  1.0000
  C   C8        1.0  0.3191308938301557  0.4474798946576312  0.21590575132207582  1.0000
  C   C9        1.0  0.2632131146059369  0.49753980137919873  0.32288208426382004  1.0000
  N   N2        1.0  0.2182717688570164  0.537780896222324  0.40887430493484717  1.0000
  C   C10       1.0  0.2878208912892578  0.3740948206041234  0.1006268863507851  1.0000
  C   C11       1.0  0.3419747867342925  0.3261237818641598  0.9965230359771242  1.0000
  C   C12       1.0  0.427509755770726  0.3510923545038158  0.007037111976269774  1.0000
  N   N3        1.0  0.5907739324445569  0.4773687025775199  0.25783034956500295  1.0000
  H   H1        1.0  0.7430919624666159  0.49020923956694235  0.021926608018391077  1.0000
  H   H2        1.0  0.594666426698273  0.43646964412264694  0.9087992790141723  1.0000
  H   H3        1.0  0.427923116339222  0.5314592563295302  0.3155681099168772  1.0000
  H   H4        1.0  0.2216401777258976  0.35408525909734045  0.09121868818809276  1.0000
  H   H5        1.0  0.3176457744845766  0.26912102049731934  0.9075603327594689  1.0000
  H   H6        1.0  0.4680415226126856  0.31120710627002723  0.9256463597246659  1.0000
  H   H7        1.0  0.5650758111384009  0.48067077030399313  0.3607845832812171  1.0000
  C   C13       1.0  0.99994308969846  0.11965181013569984  0.40874636519972585  1.0000
  C   C14       1.0  0.013993140630093269  0.2016752466101639  0.2783354005937495  1.0000
  C   C15       1.0  0.03552029163987913  0.13520020322266046  0.15329910333691885  1.0000
  C   C16       1.0  0.043902620143386556  0.9845603052806695  0.15510095739010515  1.0000
  C   C17       1.0  0.028098228446563848  0.9012944508566513  0.284325313022745  1.0000
  C   C18       1.0  0.004934587988828956  0.966510028423258  0.41084352087868004  1.0000
  C   C19       1.0  0.06772625077149864  0.9160860002186503  0.02105652215009556  1.0000
  N   N4        1.0  0.07018303009155757  0.9894385840031983  0.8900713870765244  1.0000
  C   C20       1.0  0.09476779061569073  0.8903435152046758  0.7993143944680239  1.0000
  C   C21       1.0  0.10699031757208677  0.7596378153286043  0.8757813654979357  1.0000
  N   N5        1.0  0.09001963720220064  0.7759812252709327  0.015217406085193723  1.0000
  H   H8        1.0  0.9333091054240769  0.3872719382309384  0.6164741795094907  1.0000
  H   H9        1.0  0.010348333838491099  0.3185777840447963  0.2737019743917879  1.0000
  H   H10       1.0  0.046844465377464256  0.20247019498759622  0.05533557812624411  1.0000
  H   H11       1.0  0.03092754027978862  0.7846760919522713  0.28631081895956334  1.0000
  H   H12       1.0  0.007081266906290964  0.6700215662342549  0.6505310739555348  1.0000
  H   H13       1.0  0.10347666351277107  0.9123863361906139  0.6843586199657321  1.0000
  H   H14       1.0  0.12725926577036017  0.6597437397298631  0.8329664097501287  1.0000
  H   H15       1.0  0.09491803000763643  0.6958807453717404  0.09945062521419334  1.0000
  C   C22       1.0  0.0005679549270138955  0.5403161965126897  0.9865251177198958  1.0000
  C   C23       1.0  0.9470966000908788  0.6359650273595838  0.0531347293271367  1.0000
  C   C24       1.0  0.9002516954686711  0.739866309954099  0.9708901395323707  1.0000
  C   C25       1.0  0.9057448227223371  0.7467572680957558  0.8200990619495296  1.0000
  C   C26       1.0  0.9573825717027445  0.6512177054622806  0.752089302236076  1.0000
  C   C27       1.0  0.004309747036770122  0.5458457042318765  0.8330647877955983  1.0000
  C   C28       1.0  0.8423714794824325  0.8399515415072756  0.04392585338495781  1.0000
  C   C29       1.0  0.7563119915164616  0.7716042933862071  0.0649016024071758  1.0000
  N   N6        1.0  0.7003922779866244  0.870437942737974  0.1335901657974503  1.0000
  H   H16       1.0  0.06035862089889135  0.32458120993555933  0.2823431481949086  1.0000
  H   H17       1.0  0.9431108557762  0.6320506794528866  0.16996911202218956  1.0000
  H   H18       1.0  0.8692680200052157  0.8253325831588292  0.7548646859892236  1.0000
  H   H19       1.0  0.958922915760073  0.6573735448293611  0.6350783931202164  1.0000
  H   H20       1.0  0.11776048564789421  0.41097075128341026  0.56177362492067  1.0000
  H   H21       1.0  0.8686063938854875  0.8646467601963757  0.15059237874398154  1.0000
  H   H22       1.0  0.8363166506983166  0.9442184810385698  0.9779024128026873  1.0000
  H   H23       1.0  0.7301277449380484  0.7480665509479998  0.9578206060264972  1.0000
  H   H24       1.0  0.7615831630948302  0.6681863181120862  0.13281361391612664  1.0000
  H   H25       1.0  0.6412747075712629  0.8234623668149241  0.13812234329202577  1.0000
  H   H26       1.0  0.7199396856154284  0.877175640288028  0.24064532786714876  1.0000
  Zn  Zn1       1.0  0.9111697126213542  0.545326189961153  0.4101837466433649  1.0000
  Zn  Zn2       1.0  0.09369998155242133  0.5408351995828522  0.40940553732618024  1.0000
  C   C30       1.0  0.0035667301521236138  0.5390562010647161  0.6730364530073265  1.0000
  C   C31       1.0  0.0013049685953947536  0.5471069597245244  0.14655296844088328  1.0000
  C   C32       1.0  0.003961412351306764  0.806398429124763  0.4047033883301274  1.0000
  C   C33       1.0  0.0009102142400112523  0.27976300129177706  0.4148861059393113  1.0000
  O   O1        1.0  0.07082156583191207  0.5476754037650773  0.19996443505668515  1.0000
  O   O2        1.0  0.0725863753258118  0.53507810874339  0.6190339259120673  1.0000
  O   O3        1.0  0.0729041590345536  0.7509603716703254  0.402353085378393  1.0000
  O   O4        1.0  0.07050371942106004  0.3317931519796431  0.41664516780825145  1.0000
  O   O5        1.0  0.9343659124640682  0.754368239098437  0.4029441164192811  1.0000
  O   O6        1.0  0.9340481386228799  0.5384877080782766  0.6196248843897121  1.0000
  O   O7        1.0  0.9322833212284404  0.5510849415313746  0.20055366045819786  1.0000
  O   O8        1.0  0.931965475231052  0.3352026801385135  0.4172345012498597  1.0000
