data_image0
_chemical_formula_structural       NC9NC3NH7C8NH7C9H10Zn2C4O8
_chemical_formula_sum              "N4 C33 H24 Zn2 O8"
_cell_length_a       16.053384444249904
_cell_length_b       9.274263428431858
_cell_length_c       9.272679976505534
_cell_angle_alpha    85.97590121954681
_cell_angle_beta     90.20084585415952
_cell_angle_gamma    89.79185309571561

_space_group_name_H-M_alt    "P 1"
_space_group_IT_number       1

loop_
  _space_group_symop_operation_xyz
  'x, y, z'

loop_
  _atom_site_type_symbol
  _atom_site_label
  _atom_site_symmetry_multiplicity
  _atom_site_fract_x
  _atom_site_fract_y
  _atom_site_fract_z
  _atom_site_occupancy
  N   N1        1.0  0.7877148399387145  0.5464367087390347  0.4053841726429767  1.0000
  C   C1        1.0  0.7364842574822407  0.5226637981729103  0.3223158998247546  1.0000
  C   C2        1.0  0.6728188393680963  0.49312587533296026  0.2191248594871562  1.0000
  C   C3        1.0  0.6857731225074156  0.47855919411179393  0.07401345195481435  1.0000
  C   C4        1.0  0.608742423071751  0.4499717973291311  0.016029553677614945  1.0000
  C   C5        1.0  0.5520841522505103  0.44868778588118846  0.1288924619596421  1.0000
  C   C6        1.0  0.46122182708936743  0.4221434169816677  0.11753731205879502  1.0000
  C   C7        1.0  0.4060371064741149  0.470405498252218  0.22174463628234098  1.0000
  C   C8        1.0  0.3202890803612845  0.44522978827093956  0.21086836615125248  1.0000
  C   C9        1.0  0.264346852020553  0.4954504945253948  0.3177072226691886  1.0000
  N   N2        1.0  0.2193858532630417  0.5358208471593178  0.40358893135412943  1.0000
  C   C10       1.0  0.2889990325948105  0.37166775853287204  0.095800081889585  1.0000
  C   C11       1.0  0.3431769655101626  0.323540378808878  0.991827624818796  1.0000
  C   C12       1.0  0.4287161235238715  0.3485285469188575  0.002263800136550915  1.0000
  N   N3        1.0  0.5919259140312187  0.475183556591873  0.2527061026810422  1.0000
  H   H1        1.0  0.7443383779459384  0.4876928040080728  0.01670974267960634  1.0000
  H   H2        1.0  0.5959384336146226  0.4337830117344841  0.9037303683497088  1.0000
  H   H3        1.0  0.4290708034031478  0.5293660174754209  0.3102827175487648  1.0000
  H   H4        1.0  0.2228153376778717  0.3516411037836511  0.08645409859817121  1.0000
  H   H5        1.0  0.3188632309768143  0.2664009876511522  0.9030286194299255  1.0000
  H   H6        1.0  0.469265900729685  0.3085206175915969  0.9209834191954971  1.0000
  H   H7        1.0  0.5661895077266752  0.47863189153035  0.35567215433748167  1.0000
  C   C13       1.0  0.0009197422314410875  0.11761250643875543  0.40480385294549004  1.0000
  C   C14       1.0  0.9896229532257573  0.20019107761845084  0.2730940155099959  1.0000
  C   C15       1.0  0.9865006180611129  0.1343071543775316  0.14254287315186764  1.0000
  C   C16       1.0  0.9952749328609722  0.984293172821673  0.14046959834883976  1.0000
  C   C17       1.0  0.00433276653067072  0.9002579570797001  0.2713050064543798  1.0000
  C   C18       1.0  0.006188890048988147  0.9646339404473354  0.4041816922721648  1.0000
  C   C19       1.0  0.9906663011833496  0.9132881309597446  0.9998246100949862  1.0000
  C   C20       1.0  0.9041146951401624  0.8762227699257323  0.9681432650023445  1.0000
  N   N4        1.0  0.8358013964765143  0.8469666005121339  0.943147388289229  1.0000
  H   H8        1.0  0.07413916755815264  0.1967500479737203  0.736880229949765  1.0000
  H   H9        1.0  0.9850089314596621  0.3169044693875407  0.27075198809934564  1.0000
  H   H10       1.0  0.978014656348784  0.2006407216835722  0.04266833624191535  1.0000
  H   H11       1.0  0.007921639196676322  0.7836648718439183  0.26939107312270894  1.0000
  H   H12       1.0  0.05225134988628799  0.6678205343775092  0.6297258095104725  1.0000
  H   H13       1.0  0.029171889218572163  0.8132707458429274  0.005243638045797197  1.0000
  H   H14       1.0  0.014903273278221276  0.9867839857957404  0.9100060870524191  1.0000
  C   C21       1.0  0.0018443834486376873  0.5377591566140811  0.9811396154659064  1.0000
  C   C22       1.0  0.05789362572342949  0.4471560479985499  0.061235953621988644  1.0000
  C   C23       1.0  0.11811731667020609  0.3681390327401717  0.9924394168186955  1.0000
  C   C24       1.0  0.12432870190276234  0.3771251381016092  0.8415448582846627  1.0000
  C   C25       1.0  0.06726750565395978  0.4657954835215699  0.7600698391449692  1.0000
  C   C26       1.0  0.005264231289838104  0.5444872678046428  0.8278459607546549  1.0000
  C   C27       1.0  0.19226144844767612  0.28856374052816847  0.7751756570861454  1.0000
  C   C28       1.0  0.1720178854122536  0.22304980480747516  0.6332067509281605  1.0000
  C   C29       1.0  0.2314062939826098  0.3507447501431693  0.635049779026667  1.0000
  H   H15       1.0  0.8770382500180304  0.6383540734952902  0.25454045890502  1.0000
  H   H16       1.0  0.05652978775006745  0.439913596599532  0.17832138297840605  1.0000
  H   H17       1.0  0.1608216932007589  0.3004287269126629  0.0579414484399956  1.0000
  H   H18       1.0  0.06916944926929114  0.47198435736683725  0.6432786073714353  1.0000
  H   H19       1.0  0.817010091790123  0.6848147558016425  0.7138300181693378  1.0000
  H   H20       1.0  0.23539051990943682  0.22261522562439917  0.8472285371803786  1.0000
  H   H21       1.0  0.11030259798472564  0.24918248654618821  0.5837643742698835  1.0000
  H   H22       1.0  0.20372425905396185  0.11842764442796527  0.6188544663088602  1.0000
  H   H23       1.0  0.20580583807057784  0.45437806974196526  0.5866101267550041  1.0000
  H   H24       1.0  0.29783226255188966  0.32074500388085714  0.6217708010601095  1.0000
  Zn  Zn1       1.0  0.9122857771756788  0.5433694201944417  0.40487442532310447  1.0000
  Zn  Zn2       1.0  0.09481486706453879  0.5388764796286933  0.4041104700567131  1.0000
  C   C30       1.0  0.004580215658436027  0.5374700864185535  0.6678045171523215  1.0000
  C   C31       1.0  0.0025224336853364453  0.5447775851792642  0.14118051004746257  1.0000
  C   C32       1.0  0.005165413173004115  0.8044832788011422  0.39855439768352197  1.0000
  C   C33       1.0  0.0019371634177744997  0.2777626621997552  0.4104307079107241  1.0000
  O   O1        1.0  0.07201879275275186  0.5454216944944885  0.1946017838401759  1.0000
  O   O2        1.0  0.07361920393661592  0.5334148478784078  0.6138030047862433  1.0000
  O   O3        1.0  0.07409083060804078  0.7490314124665801  0.3963816311326709  1.0000
  O   O4        1.0  0.07154710342409709  0.3298051408974523  0.4120230496523827  1.0000
  O   O5        1.0  0.9355534785278793  0.7524407604604126  0.39696184598055173  1.0000
  O   O6        1.0  0.9350818623212074  0.536825928003891  0.6143831414927785  1.0000
  O   O7        1.0  0.9334814438793053  0.5488327105880673  0.19518018729085895  1.0000
  O   O8        1.0  0.9330097549196397  0.3332161475346248  0.41260156119754776  1.0000
