data_image0
_chemical_formula_structural       NC5NC4H6C7NH5C6NCH8Zn2C4O8
_chemical_formula_sum              "N4 C27 H19 Zn2 O8"
_cell_length_a       13.854160002989762
_cell_length_b       9.275154477615127
_cell_length_c       9.274690524155613
_cell_angle_alpha    86.28222006600178
_cell_angle_beta     89.68736373973688
_cell_angle_gamma    89.43370676253429

_space_group_name_H-M_alt    "P 1"
_space_group_IT_number       1

loop_
  _space_group_symop_operation_xyz
  'x, y, z'

loop_
  _atom_site_type_symbol
  _atom_site_label
  _atom_site_symmetry_multiplicity
  _atom_site_fract_x
  _atom_site_fract_y
  _atom_site_fract_z
  _atom_site_occupancy
  N   N1        1.0  0.9043442429841289  0.5640761938013521  0.41638741564910053  1.0000
  C   C1        1.0  0.8320634779469968  0.5887667023710534  0.35744984192243906  1.0000
  C   C2        1.0  0.7421451918636596  0.619482358966881  0.2841292423888626  1.0000
  C   C3        1.0  0.6545033475986471  0.5906321538400197  0.3557248166111344  1.0000
  C   C4        1.0  0.5670027794833807  0.6194823730905274  0.2841292192765792  1.0000
  C   C5        1.0  0.4769553372193678  0.5887665558892077  0.3574499329461054  1.0000
  N   N2        1.0  0.4045706728075856  0.5640761303203701  0.4163874153104582  1.0000
  C   C6        1.0  0.5671725993883926  0.677789193167438  0.1409594462064157  1.0000
  C   C7        1.0  0.6547678401501941  0.7087880553004045  0.06926898097805334  1.0000
  C   C8        1.0  0.6549460380995539  0.7672357917210313  0.9146128706063728  1.0000
  C   C9        1.0  0.7422496887677807  0.6777891910554452  0.14095935593632025  1.0000
  H   H1        1.0  0.6543979522153985  0.5453925443987379  0.4665351506696005  1.0000
  H   H2        1.0  0.4993616554432632  0.6990847936360884  0.08540458503909389  1.0000
  H   H3        1.0  0.7194366756271712  0.8351711202518262  0.8911002676151628  1.0000
  H   H4        1.0  0.5897281977145885  0.8351711226955764  0.8911003326977919  1.0000
  H   H5        1.0  0.6558116896753594  0.6761114656646023  0.8427100608237985  1.0000
  H   H6        1.0  0.8101846140964695  0.6990849053453472  0.08540450007182511  1.0000
  C   C10       1.0  0.15726140556989376  0.14067231557783644  0.41471954033407404  1.0000
  C   C11       1.0  0.13123849002091112  0.22274304608323958  0.2876369500864795  1.0000
  C   C12       1.0  0.09733953145229159  0.1556549793203048  0.16728611340515798  1.0000
  C   C13       1.0  0.08890323386292831  0.005580805155841689  0.17260047489425784  1.0000
  C   C14       1.0  0.11583149347085969  0.9222771353628757  0.29678631881440687  1.0000
  C   C15       1.0  0.1516627853130996  0.9874690363688202  0.4180677906389616  1.0000
  C   C16       1.0  0.07003814959855337  0.24129416371086546  0.038671846481094244  1.0000
  N   N3        1.0  0.04809542164706968  0.3101324492446591  0.935298920122401  1.0000
  H   H7        1.0  0.17466454202567888  0.22042902197152905  0.7685155165514166  1.0000
  H   H8        1.0  0.1351962650160614  0.33966514701745854  0.2833603225418373  1.0000
  H   H9        1.0  0.062335442604639406  0.9526475138465628  0.08010329823253405  1.0000
  H   H10       1.0  0.11076347830672528  0.8058084337045107  0.2966594728860221  1.0000
  H   H11       1.0  0.16748112709464036  0.6907662629332372  0.6551211586313277  1.0000
  C   C17       1.0  0.15603201772908215  0.5603791705711567  0.9931317538203049  1.0000
  C   C18       1.0  0.23404013415578273  0.6227494544068073  0.062115742015466775  1.0000
  C   C19       1.0  0.30701237360709194  0.6960393913337126  0.9819077363286106  1.0000
  C   C20       1.0  0.3012233352616236  0.7066896760603734  0.8310533858637675  1.0000
  C   C21       1.0  0.2252806345201801  0.6434603825527946  0.7608553161548023  1.0000
  C   C22       1.0  0.15289213216613184  0.5677621483799904  0.8396554921692054  1.0000
  N   N4        1.0  0.38690542697124863  0.7614709138879112  0.050888247284179844  1.0000
  C   C23       1.0  0.4000384590529815  0.7563953837408322  0.2071497276399883  1.0000
  H   H12       1.0  0.047007446591023516  0.38658051142109334  0.2854433275447248  1.0000
  H   H13       1.0  0.35644756613105605  0.7631305494627104  0.7672179965283183  1.0000
  H   H14       1.0  0.22449976032813374  0.6508995117334297  0.6438120152186083  1.0000
  H   H15       1.0  0.0008051592539291038  0.5001204918347539  0.5639498449630591  1.0000
  H   H16       1.0  0.4390647468304476  0.8154043487619944  0.9864673555387623  1.0000
  H   H17       1.0  0.46721074388691863  0.8135252135773094  0.23305393792397555  1.0000
  H   H18       1.0  0.4061941131186897  0.6424103181543375  0.25092368640851787  1.0000
  H   H19       1.0  0.338119534236232  0.8104484206246949  0.25856546218256815  1.0000
  Zn  Zn1       1.0  0.04869878531476733  0.5640723879459528  0.41639573272608743  1.0000
  Zn  Zn2       1.0  0.26021616575313544  0.5640682407240007  0.4163908889727207  1.0000
  C   C24       1.0  0.15352148837649704  0.5606226865290034  0.6796217010976642  1.0000
  C   C25       1.0  0.15539575990199705  0.5675197625598385  0.15316506920993467  1.0000
  C   C26       1.0  0.15273737526312556  0.8273563178112082  0.41169120560413885  1.0000
  C   C27       1.0  0.1561798120072821  0.3007843996681026  0.4210956347001505  1.0000
  O   O1        1.0  0.23545201109525715  0.5699083463854713  0.206871848726574  1.0000
  O   O2        1.0  0.23400204348730666  0.5582298637304114  0.6259108260709022  1.0000
  O   O3        1.0  0.23336777459834615  0.7736206573903068  0.4095550612597152  1.0000
  O   O4        1.0  0.23608620814031897  0.35451756209864693  0.42322750550902244  1.0000
  O   O5        1.0  0.07282867074710017  0.7736230665742259  0.4095591161838632  1.0000
  O   O6        1.0  0.07346292846366409  0.5582340045267804  0.6259148109924375  1.0000
  O   O7        1.0  0.07491290289558745  0.5699124218239899  0.2068741005305319  1.0000
  O   O8        1.0  0.07554709960406499  0.35452162816701294  0.4232298653357962  1.0000
