data_image0
_chemical_formula_structural       NC5NC4H6C6ClH5C9H8Zn2C4O8
_chemical_formula_sum              "N2 C28 H19 Cl1 Zn2 O8"
_cell_length_a       13.854160002989762
_cell_length_b       9.276545438789551
_cell_length_c       9.273585224739813
_cell_angle_alpha    86.17382153224601
_cell_angle_beta     90.10207527117831
_cell_angle_gamma    89.40960627284836

_space_group_name_H-M_alt    "P 1"
_space_group_IT_number       1

loop_
  _space_group_symop_operation_xyz
  'x, y, z'

loop_
  _atom_site_type_symbol
  _atom_site_label
  _atom_site_symmetry_multiplicity
  _atom_site_fract_x
  _atom_site_fract_y
  _atom_site_fract_z
  _atom_site_occupancy
  N   N1        1.0  0.8962372562392268  0.5619603409537237  0.41108664709574194  1.0000
  C   C1        1.0  0.8236643979593918  0.5865696210034375  0.35206502878786994  1.0000
  C   C2        1.0  0.7333827367734004  0.617184226187768  0.27863987552801384  1.0000
  C   C3        1.0  0.646095390253264  0.5884327796550182  0.35033368309393254  1.0000
  C   C4        1.0  0.5582403242773023  0.6171842402798897  0.27863985236777006  1.0000
  C   C5        1.0  0.4685562577139886  0.5865694746390171  0.3520651203073556  1.0000
  N   N2        1.0  0.3964636860792757  0.5619602774675634  0.4110866469715435  1.0000
  C   C6        1.0  0.5577010779159529  0.6752936182019618  0.13527156430694737  1.0000
  C   C7        1.0  0.6449407450471626  0.7061937471451716  0.06347560625625627  1.0000
  C   C8        1.0  0.6443542920717589  0.7644278648607532  0.9086203807714136  1.0000
  C   C9        1.0  0.7327781668594311  0.6752936159626004  0.13527147404301168  1.0000
  H   H1        1.0  0.6465388289391344  0.5433459779585793  0.4612980397583844  1.0000
  H   H2        1.0  0.48961537333202887  0.6965125057736166  0.07964416356028182  1.0000
  H   H3        1.0  0.7087117215041288  0.8323350897852873  0.8848780290560648  1.0000
  H   H4        1.0  0.5790032439055631  0.8323350923209362  0.8848780941311413  1.0000
  H   H5        1.0  0.6448984129534125  0.6731954619921361  0.8370246244961745  1.0000
  H   H6        1.0  0.8004383315422822  0.6965126173714093  0.07964407821472586  1.0000
  C   C10       1.0  0.14926794119955963  0.13852275523044955  0.4108490692479934  1.0000
  C   C11       1.0  0.14947469686754286  0.2208263969467863  0.27781570901127184  1.0000
  C   C12       1.0  0.14090337626896798  0.15442851557820172  0.14767784284457736  1.0000
  C   C13       1.0  0.13192361977926903  0.004846425304377175  0.14857119777116815  1.0000
  C   C14       1.0  0.133203128258027  0.9209796286849037  0.27916272912172957  1.0000
  C   C15       1.0  0.14344235783835765  0.9853869244578776  0.4113367314025438  1.0000
  Cl  Cl1       1.0  0.13995933654669956  0.2593828142092276  0.9831305607742595  1.0000
  H   H7        1.0  0.19890382876713963  0.4037776004469784  0.6374525438184697  1.0000
  H   H8        1.0  0.15399408578168075  0.3375180505264448  0.2749620925754457  1.0000
  H   H9        1.0  0.1248702071545022  0.9531047638348944  0.047888773740349055  1.0000
  H   H10       1.0  0.12848107250716478  0.8046923118102552  0.2765123787091971  1.0000
  H   H11       1.0  0.11136346310221112  0.6890126553255079  0.6444014518618318  1.0000
  C   C16       1.0  0.14587936590889172  0.5576665758366697  0.9878389018370461  1.0000
  C   C17       1.0  0.23223992277465255  0.5255513665688523  0.06377719116684677  1.0000
  C   C18       1.0  0.319817499391265  0.5064142308105576  0.9915058067643986  1.0000
  C   C19       1.0  0.3202440063652716  0.5202030120942676  0.8394545210149243  1.0000
  C   C20       1.0  0.23493363555607027  0.549607125806103  0.76251095125936  1.0000
  C   C21       1.0  0.14683091424543307  0.5662430566975116  0.8343468811705314  1.0000
  C   C22       1.0  0.40950948745264387  0.4733467289036477  0.08300198072610734  1.0000
  C   C23       1.0  0.48566590383700925  0.3744105776628719  0.022707075985907824  1.0000
  C   C24       1.0  0.5045686650341603  0.5356365681661266  0.026703798973440888  1.0000
  H   H12       1.0  0.231828030943395  0.51859252203701  0.18094269271844018  1.0000
  H   H13       1.0  0.3857998237405882  0.5071743214787523  0.7785126985036848  1.0000
  H   H14       1.0  0.0025445048618428735  0.6686980223433886  0.5457357446602993  1.0000
  H   H15       1.0  0.40322944969059626  0.46404712224812483  0.20275847411382916  1.0000
  H   H16       1.0  0.4729386140839158  0.3373053724971036  0.9131078724151332  1.0000
  H   H17       1.0  0.5261895232599896  0.3068984278373357  0.10618949939063006  1.0000
  H   H18       1.0  0.503280715297636  0.5962898282053688  0.9195195753977369  1.0000
  H   H19       1.0  0.55613094143934  0.5623800412655839  0.11252669464283649  1.0000
  Zn  Zn1       1.0  0.04059183988146109  0.5619565465372078  0.41109497711927306  1.0000
  Zn  Zn2       1.0  0.25210919808795906  0.5619523921821128  0.4110901473234543  1.0000
  C   C25       1.0  0.14668840876662226  0.5588775377521125  0.674335442704892  1.0000
  C   C26       1.0  0.14601492660924872  0.5650332217303417  0.14784982419861037  1.0000
  C   C27       1.0  0.14453207377563304  0.825253345270476  0.40550099049966926  1.0000
  C   C28       1.0  0.14817120142789414  0.2986556825728466  0.41668435225089095  1.0000
  O   O1        1.0  0.22633020040016572  0.5674976681036252  0.20154911495625188  1.0000
  O   O2        1.0  0.22690992269251392  0.5564088463203833  0.6206320707127062  1.0000
  O   O3        1.0  0.22516757452693875  0.771510694878734  0.4035463493966944  1.0000
  O   O4        1.0  0.2280724761967584  0.3523958287668009  0.4186347282106955  1.0000
  O   O5        1.0  0.06462848959214895  0.7715131099554308  0.40355039622609973  1.0000
  O   O6        1.0  0.06637082574955498  0.5564129930391213  0.6206360416891223  1.0000
  O   O7        1.0  0.0657911019191557  0.5675017470172974  0.20155135301715443  1.0000
  O   O8        1.0  0.0675333779042182  0.3523998984618566  0.4186370743272352  1.0000
