data_image0
_chemical_formula_structural       NC6NC2H4C6NH5C6BrH3Zn2C4O8
_chemical_formula_sum              "N3 C24 H12 Br1 Zn2 O8"
_cell_length_a       14.927258858638513
_cell_length_b       9.274771166103582
_cell_length_c       10.302972455390005
_cell_angle_alpha    85.45577943417274
_cell_angle_beta     89.9998753099982
_cell_angle_gamma    90.59705168739299

_space_group_name_H-M_alt    "P 1"
_space_group_IT_number       1

loop_
  _space_group_symop_operation_xyz
  'x, y, z'

loop_
  _atom_site_type_symbol
  _atom_site_label
  _atom_site_symmetry_multiplicity
  _atom_site_fract_x
  _atom_site_fract_y
  _atom_site_fract_z
  _atom_site_occupancy
  N   N1        1.0  0.8537916827760402  0.5786601740034671  0.5653644431556346  1.0000
  C   C1        1.0  0.776265191423723  0.5786601454861944  0.5653644527387462  1.0000
  C   C2        1.0  0.6798326846249036  0.5786602606150828  0.5653644076453668  1.0000
  C   C3        1.0  0.6326270538185871  0.5549631576290985  0.45131063191379756  1.0000
  C   C4        1.0  0.5389157426412503  0.5549631832717951  0.45131051167972935  1.0000
  C   C5        1.0  0.49201661948332887  0.5786600830177313  0.5653644247152441  1.0000
  C   C6        1.0  0.395584045692993  0.5786601981495851  0.5653643796165242  1.0000
  N   N2        1.0  0.3180575543406761  0.5786601696323119  0.5653643891996359  1.0000
  C   C7        1.0  0.5392221832981291  0.6023571860066805  0.6794182004414735  1.0000
  C   C8        1.0  0.6329334944754658  0.6023571603639846  0.6794183206755413  1.0000
  H   H1        1.0  0.6682040086693561  0.536525475442813  0.362570248494334  1.0000
  H   H2        1.0  0.5031003544375596  0.5365256730330534  0.36257024372433744  1.0000
  H   H3        1.0  0.5036452953682319  0.6207948578726787  0.7681586812189499  1.0000
  H   H4        1.0  0.6687488833071205  0.6207947679575034  0.768158687562229  1.0000
  C   C9        1.0  0.08317858834832542  0.15506361067936061  0.5660720634807765  1.0000
  C   C10       1.0  0.06256423137607325  0.23837235800496262  0.4499739714640902  1.0000
  C   C11       1.0  0.05031399111142145  0.17332296776523085  0.33313928673707766  1.0000
  C   C12       1.0  0.058725072677144025  0.023587357157511153  0.33155644947983487  1.0000
  C   C13       1.0  0.07768286985715415  0.9389591817511795  0.4460596932585952  1.0000
  C   C14       1.0  0.08867917839477296  0.0022456491342315275  0.5646680614729587  1.0000
  N   N3        1.0  0.030250032782646274  0.25973121298793456  0.2157652093579252  1.0000
  H   H5        1.0  0.18399776231958398  0.2347239340107115  0.8501998085942499  1.0000
  H   H6        1.0  0.04972374570847496  0.9721001309584175  0.2416639470313866  1.0000
  H   H7        1.0  0.15295403067543645  0.7051793421464484  0.7579755289184182  1.0000
  H   H8        1.0  0.024077806962595767  0.37180511450165077  0.21572304260721364  1.0000
  H   H9        1.0  0.02133304143116345  0.21226119460842074  0.12800776080824816  1.0000
  C   C15       1.0  0.08592884868423756  0.5786546006480247  0.18412749759280556  1.0000
  C   C16       1.0  0.11109972071452526  0.43270626519478045  0.19332043256497133  1.0000
  C   C17       1.0  0.12358588122737454  0.36030801082810315  0.08094278943616962  1.0000
  C   C18       1.0  0.11109987133729023  0.43270620889340083  0.9582380420569433  1.0000
  C   C19       1.0  0.08592889109469476  0.5786546045955808  0.9466125796607557  1.0000
  C   C20       1.0  0.07346495967108102  0.6509239525335508  0.06021571429525663  1.0000
  Br  Br1       1.0  0.15782241918073894  0.1617930480279357  0.0951011577216121  1.0000
  H   H10       1.0  0.12111965064383458  0.3746069035963444  0.28746344486648767  1.0000
  H   H11       1.0  0.1211200049402093  0.3746069519199511  0.8723825421570357  1.0000
  H   H12       1.0  0.054052171777821977  0.7634849054240154  0.052187713633764725  1.0000
  Zn  Zn1       1.0  0.9877687674988982  0.5786563074995089  0.5653719356217259  1.0000
  Zn  Zn2       1.0  0.18408040378595436  0.5786522207151874  0.5653675660598343  1.0000
  C   C21       1.0  0.08588958305755857  0.5729080756477414  0.8024961121559495  1.0000
  C   C22       1.0  0.08596174376152543  0.5844022725804581  0.32824351388574025  1.0000
  C   C23       1.0  0.08763482737850105  0.8421101795376023  0.5597599684544432  1.0000
  C   C24       1.0  0.08421642120068884  0.3151984356226345  0.5709797296766315  1.0000
  O   O1        1.0  0.16047198567449275  0.5863233997843604  0.37660851767324854  1.0000
  O   O2        1.0  0.16037532367889762  0.5709827584653855  0.7541274200533801  1.0000
  O   O3        1.0  0.16178362625435583  0.788366861902661  0.5581162641525443  1.0000
  O   O4        1.0  0.1590636161781627  0.36893930666737235  0.5726195762160702  1.0000
  O   O5        1.0  0.012785488115172553  0.7883692215502888  0.5581199254601499  1.0000
  O   O6        1.0  0.011377196788091789  0.5709868511839413  0.7541310092662612  1.0000
  O   O7        1.0  0.01147385851678063  0.5863274422358744  0.37661054608610756  1.0000
  O   O8        1.0  0.010065488949805754  0.368943338801564  0.5726217019816029  1.0000
