data_image0
_chemical_formula_structural       NC12NC2H8C6NCOC6H11C7OC6OCH12Zn2C4O8
_chemical_formula_sum              "N3 C45 H31 O11 Zn2"
_cell_length_a       17.80743265337812
_cell_length_b       10.29965916528486
_cell_length_c       10.299362532796529
_cell_angle_alpha    85.59689086151258
_cell_angle_beta     91.54954799628842
_cell_angle_gamma    89.45195528988226

_space_group_name_H-M_alt    "P 1"
_space_group_IT_number       1

loop_
  _space_group_symop_operation_xyz
  'x, y, z'

loop_
  _atom_site_type_symbol
  _atom_site_label
  _atom_site_symmetry_multiplicity
  _atom_site_fract_x
  _atom_site_fract_y
  _atom_site_fract_z
  _atom_site_occupancy
  N   N1        1.0  0.707440345838056  0.40617294630972567  0.601841834413563  1.0000
  C   C1        1.0  0.6566145861646963  0.43570762473668134  0.5331543485625765  1.0000
  C   C2        1.0  0.5933823273683556  0.4724466220934842  0.44771576329894414  1.0000
  C   C3        1.0  0.6050979675022108  0.526422858658616  0.32111658930327125  1.0000
  C   C4        1.0  0.5437731882159462  0.5616591188069111  0.23807342869367007  1.0000
  C   C5        1.0  0.4705784050497345  0.5431823756699465  0.28096964086787835  1.0000
  C   C6        1.0  0.4578860464750156  0.48908749854141076  0.4080369096255776  1.0000
  C   C7        1.0  0.5200681397587786  0.4538544865884755  0.4910635599037984  1.0000
  C   C8        1.0  0.3801233247784914  0.4694976301336565  0.45379298747663377  1.0000
  C   C9        1.0  0.3613628233464066  0.4967267239229539  0.5808452250513481  1.0000
  C   C10       1.0  0.2881381079379154  0.47829156694255076  0.6237820141962265  1.0000
  C   C11       1.0  0.23273101831266355  0.4323733370708385  0.5405044340760836  1.0000
  C   C12       1.0  0.1573698328763268  0.4133858469489722  0.5848419383615175  1.0000
  N   N2        1.0  0.0967847765597253  0.39812118186659895  0.6204862416726309  1.0000
  C   C13       1.0  0.2508000868421111  0.4049755206030428  0.4139950996838744  1.0000
  C   C14       1.0  0.32397190765370504  0.4234253751492576  0.3708024320414032  1.0000
  H   H1        1.0  0.6615605085239293  0.5412344789169631  0.286685243515463  1.0000
  H   H2        1.0  0.5529623633693065  0.6037216926452127  0.1403104019487118  1.0000
  H   H3        1.0  0.4239333208892686  0.5727947245543541  0.21539008732739598  1.0000
  H   H4        1.0  0.5115770949627755  0.4104065953193723  0.5887016574177415  1.0000
  H   H5        1.0  0.403056253415341  0.5339275356445023  0.6464305057530226  1.0000
  H   H6        1.0  0.2747145281671532  0.500170139583851  0.7217972785749023  1.0000
  H   H7        1.0  0.2083900581473204  0.3690421014245462  0.34882321202723854  1.0000
  H   H8        1.0  0.33686688556123207  0.4000113964892017  0.2730899613322202  1.0000
  C   C15       1.0  0.9020500575874129  0.020787644795321032  0.611045548975844  1.0000
  C   C16       1.0  0.9025397390473096  0.030016131765733926  0.4742557237422238  1.0000
  C   C17       1.0  0.9038942504033857  0.9178062610532778  0.40548635911840947  1.0000
  C   C18       1.0  0.9026813327922377  0.7948230024695264  0.47455888259269  1.0000
  C   C19       1.0  0.9021822435904361  0.7834963348800313  0.6112940347959737  1.0000
  C   C20       1.0  0.902133782342943  0.8970807523658052  0.67877823926073  1.0000
  N   N3        1.0  0.9032407333328591  0.9308492354204363  0.2653917164009678  1.0000
  C   C21       1.0  0.9384440529317509  0.838967692918148  0.1873529564397456  1.0000
  O   O1        1.0  0.9902772638761198  0.7650916464350719  0.2368121775748817  1.0000
  C   C22       1.0  0.9165862264285034  0.8331803294477104  0.047942788243340084  1.0000
  C   C23       1.0  0.8471109855271239  0.8844600676459987  0.998271015293152  1.0000
  C   C24       1.0  0.8269598472354153  0.8778230934453384  0.8667860264153339  1.0000
  C   C25       1.0  0.8755839703750028  0.8197041480436458  0.7836595630124713  1.0000
  C   C26       1.0  0.9443976630867071  0.7676501444185556  0.8319234650969607  1.0000
  C   C27       1.0  0.9648355868269529  0.7739248230190484  0.9633177146647948  1.0000
  H   H9        1.0  0.9004093025976613  0.21065843925362016  0.869040670664636  1.0000
  H   H10       1.0  0.9024450722970412  0.12461076201782363  0.42042929056827694  1.0000
  H   H11       1.0  0.9008075552793064  0.7080548373184167  0.4216648938989345  1.0000
  H   H12       1.0  0.9017663387236242  0.8891010345799729  0.7842282393132054  1.0000
  H   H13       1.0  0.9009913075327525  0.4517230130858914  0.6636974226428609  1.0000
  H   H14       1.0  0.8817980475429499  0.017411424562179922  0.21842541386595984  1.0000
  H   H15       1.0  0.8077529152663929  0.9279907329797604  0.06086732260225026  1.0000
  H   H16       1.0  0.7734140016133481  0.9173530118584554  0.8294368722385661  1.0000
  H   H17       1.0  0.8598357216950359  0.8146413533931439  0.6819500147488808  1.0000
  H   H18       1.0  0.9819779372824677  0.7223599257199109  0.7674783422937068  1.0000
  H   H19       1.0  0.0185692222688838  0.7332042163196449  0.9984571989692707  1.0000
  C   C28       1.0  0.9020575052117106  0.40202268906294286  0.22980007739682828  1.0000
  C   C29       1.0  0.8307336297196741  0.34481849034698486  0.22965364645409725  1.0000
  C   C30       1.0  0.7944362397727306  0.31729629108513163  0.1123932003420478  1.0000
  C   C31       1.0  0.8309452221575718  0.34497766841966443  0.9944095309619865  1.0000
  C   C32       1.0  0.9021748191749712  0.40226131147015065  0.9925395467810271  1.0000
  C   C33       1.0  0.9372583078069614  0.43071019116066506  0.11075099580914173  1.0000
  C   C34       1.0  0.7195018278792362  0.2555498171851176  0.11458756244516177  1.0000
  O   O2        1.0  0.7041391435481512  0.17666284782775524  0.20972330955614685  1.0000
  C   C35       1.0  0.6619985804888661  0.2832895759688241  0.00892755015360591  1.0000
  C   C36       1.0  0.6562427289137583  0.40677816813951817  0.9408376969683729  1.0000
  C   C37       1.0  0.6012579213496043  0.43209428698943575  0.8425167537935518  1.0000
  C   C38       1.0  0.5507052919826018  0.3354778005760686  0.811016142326586  1.0000
  C   C39       1.0  0.5556711067659216  0.2121990963731562  0.879986440847778  1.0000
  C   C40       1.0  0.6106491598813499  0.18675592117848153  0.9783794251966138  1.0000
  O   O3        1.0  0.4966288840590843  0.3657549934587205  0.7114513188456923  1.0000
  C   C41       1.0  0.4418374481933214  0.2771290236040629  0.669426425972214  1.0000
  H   H20       1.0  0.03677377156974537  0.5094729267998661  0.43739048884535725  1.0000
  H   H21       1.0  0.8029137901378202  0.32265342638626704  0.32084830995542624  1.0000
  H   H22       1.0  0.804084899038476  0.32045368409034125  0.9040612461137014  1.0000
  H   H23       1.0  0.992206942639174  0.47489616541458096  0.11004123036116109  1.0000
  H   H24       1.0  0.9296259493990537  0.42375110201754274  0.664391893859241  1.0000
  H   H25       1.0  0.6937022604911252  0.48425231553235126  0.9644805574977924  1.0000
  H   H26       1.0  0.597694971454144  0.5276250363424737  0.7908128109203463  1.0000
  H   H27       1.0  0.5173487306251211  0.13542856459279445  0.8583992551445138  1.0000
  H   H28       1.0  0.613482165491553  0.09105840334006478  0.029935163642619278  1.0000
  H   H29       1.0  0.40655803465967  0.3265525017072362  0.5896690800246418  1.0000
  H   H30       1.0  0.40514695178115745  0.2456755667512818  0.751208888808391  1.0000
  H   H31       1.0  0.4698278759612801  0.1912322951022274  0.6320838729904517  1.0000
  Zn  Zn1       1.0  0.8197967421308741  0.40384591616838006  0.6072296934257835  1.0000
  Zn  Zn2       1.0  0.9844283775660245  0.4004376221285784  0.615108972282467  1.0000
  C   C42       1.0  0.9021500613862031  0.39704270363715766  0.8483636750229815  1.0000
  C   C43       1.0  0.9020768563866486  0.4072424360597183  0.3739752047273608  1.0000
  C   C44       1.0  0.902152604472882  0.6393266460029912  0.6060717170001897  1.0000
  C   C45       1.0  0.9020742568629119  0.1649569346150979  0.6162672287919106  1.0000
  O   O4        1.0  0.964560197498392  0.40769513540980934  0.4253518379324517  1.0000
  O   O5        1.0  0.9646183220256962  0.3940022081585082  0.802966857989971  1.0000
  O   O6        1.0  0.9646195335902377  0.5896495735761167  0.6073143477615615  1.0000
  O   O7        1.0  0.9645589297428597  0.21204778041474473  0.6210042481003488  1.0000
  O   O8        1.0  0.8396661337733407  0.5922357590467087  0.6013344149122595  1.0000
  O   O9        1.0  0.8396649224651582  0.3965899538723824  0.7969868564032698  1.0000
  O   O10       1.0  0.8396067977398459  0.41028283537930577  0.41937027492938833  1.0000
  O   O11       1.0  0.8396055299946061  0.21463547112619288  0.6150227824621566  1.0000
