data_image0
_chemical_formula_structural       NC6NC2H4C9H6C9H9Zn2C4O8
_chemical_formula_sum              "N2 C30 H19 Zn2 O8"
_cell_length_a       14.927258858638513
_cell_length_b       9.275152443626249
_cell_length_c       10.29718717394978
_cell_angle_alpha    85.37052444745348
_cell_angle_beta     89.97408174876965
_cell_angle_gamma    90.5735452640029

_space_group_name_H-M_alt    "P 1"
_space_group_IT_number       1

loop_
  _space_group_symop_operation_xyz
  'x, y, z'

loop_
  _atom_site_type_symbol
  _atom_site_label
  _atom_site_symmetry_multiplicity
  _atom_site_fract_x
  _atom_site_fract_y
  _atom_site_fract_z
  _atom_site_occupancy
  N   N1        1.0  0.8538357836449907  0.5785968724561494  0.5622688320303397  1.0000
  C   C1        1.0  0.7763092922969381  0.5785968439377864  0.5622688416603558  1.0000
  C   C2        1.0  0.6798767854828882  0.5785969590701996  0.5622687963740798  1.0000
  C   C3        1.0  0.6327125073199485  0.5548822641849274  0.448186645678027  1.0000
  C   C4        1.0  0.5390011961733644  0.5548822898133396  0.44818652534017167  1.0000
  C   C5        1.0  0.49206072038107357  0.578596781460233  0.5622688137125444  1.0000
  C   C6        1.0  0.3956281465755076  0.5785968965956108  0.562268768420921  1.0000
  N   N2        1.0  0.3181016552274549  0.5785968680772478  0.5622687780509373  1.0000
  C   C7        1.0  0.5392249315524967  0.60231147634847  0.67635096440325  1.0000
  C   C8        1.0  0.6329362426990813  0.6023114507200574  0.676351084741105  1.0000
  H   H1        1.0  0.6683216368945385  0.5364308944933607  0.3594241848726638  1.0000
  H   H2        1.0  0.5032179826140984  0.5364310920995814  0.3594241798116931  1.0000
  H   H3        1.0  0.5036158688712298  0.6207628357321943  0.7651135226354269  1.0000
  H   H4        1.0  0.66871945683096  0.6207627458103178  0.765113529113419  1.0000
  C   C9        1.0  0.08332992037922214  0.1549647484312335  0.5635949912856176  1.0000
  C   C10       1.0  0.05104739056293275  0.23768906096698195  0.4532387884301432  1.0000
  C   C11       1.0  0.02709272539649189  0.17223234476538196  0.34081644148911994  1.0000
  C   C12       1.0  0.035044599514415964  0.022889818328451147  0.3365243681065742  1.0000
  C   C13       1.0  0.06557561839686303  0.938477231531728  0.44594791818623225  1.0000
  C   C14       1.0  0.08861604114052729  0.0022179057022779676  0.560953873683356  1.0000
  C   C15       1.0  0.010809761543201013  0.955724392365239  0.220103957388361  1.0000
  C   C16       1.0  0.9905187506296397  0.8994557100806706  0.12262011683776544  1.0000
  C   C17       1.0  0.9658996203770259  0.8311716170850371  0.004340573067706193  1.0000
  H   H5        1.0  0.211973976198864  0.2366516609174376  0.8230199131119791  1.0000
  H   H6        1.0  0.0031672196596961326  0.2384606074052602  0.2566867861182698  1.0000
  H   H7        1.0  0.1723555933495571  0.7069427630094239  0.7383918105555742  1.0000
  H   H8        1.0  0.9822727553525352  0.7144514464082012  0.016476003030487796  1.0000
  H   H9        1.0  0.8929917403740322  0.843751754551891  0.9865574018261674  1.0000
  H   H10       1.0  0.003757598255873295  0.8835086520045999  0.9202583459213469  1.0000
  C   C18       1.0  0.08609108399326854  0.5785391635664906  0.18082145809155303  1.0000
  C   C19       1.0  0.9955527676642099  0.6181631392654274  0.17721603805737535  1.0000
  C   C20       1.0  0.9491673181592144  0.6384634279723167  0.05875247208931778  1.0000
  C   C21       1.0  0.9952017932061201  0.6183161878808907  0.9419928359137719  1.0000
  C   C22       1.0  0.08585487928269192  0.5786434843084727  0.9437274426085978  1.0000
  C   C23       1.0  0.13070751764727281  0.5590126282459553  0.06352992526133816  1.0000
  C   C24       1.0  0.8512436015391683  0.6813192945199338  0.06428512354930938  1.0000
  C   C25       1.0  0.7881643725599736  0.6232950702070905  0.9641941586240923  1.0000
  C   C26       1.0  0.8157962284623373  0.7824474932392201  0.9525985412215854  1.0000
  H   H11       1.0  0.9606000813108481  0.6334605292977791  0.267246505195337  1.0000
  H   H12       1.0  0.9612189772351973  0.6331853929758982  0.8493393876098736  1.0000
  H   H13       1.0  0.20055955015243476  0.5284411810161933  0.06558423754851607  1.0000
  H   H14       1.0  0.2570695197403179  0.5036944586023147  0.7397885351890913  1.0000
  H   H15       1.0  0.8197694621740633  0.6950951144908406  0.16031946586307577  1.0000
  H   H16       1.0  0.8180964803138878  0.5581823448620741  0.8898721455896337  1.0000
  H   H17       1.0  0.718416972806841  0.6037753847557292  0.9993735901751255  1.0000
  H   H18       1.0  0.8625136159904433  0.8140109819285455  0.8712337536272996  1.0000
  H   H19       1.0  0.7621976355064719  0.8559458261799244  0.9809984265085498  1.0000
  Zn  Zn1       1.0  0.9878128670269614  0.5785930066513296  0.5622763342744822  1.0000
  Zn  Zn2       1.0  0.18412450570466618  0.5785889189254433  0.5622719682644499  1.0000
  C   C27       1.0  0.08586166356473673  0.572876718224334  0.7995397877566093  1.0000
  C   C28       1.0  0.08607786420091906  0.5843070275361536  0.3250086365551773  1.0000
  C   C29       1.0  0.0876138375887341  0.8420682882334428  0.5562768149705728  1.0000
  C   C30       1.0  0.08432561235430308  0.3151137243230544  0.5682716839994313  1.0000
  O   O1        1.0  0.16057263204269723  0.5862349304865747  0.3733975335543257  1.0000
  O   O2        1.0  0.16036288046299374  0.5709446244383694  0.7511472065208854  1.0000
  O   O3        1.0  0.1617767784429938  0.7883202218183301  0.5547106302167514  1.0000
  O   O4        1.0  0.1591586671693751  0.3688593434144567  0.5698340124316454  1.0000
  O   O5        1.0  0.012778638570736026  0.7883225821652804  0.5547142901019388  1.0000
  O   O6        1.0  0.011364751421838909  0.570948717992275  0.7511507917425082  1.0000
  O   O7        1.0  0.011574503231028155  0.5862389735557645  0.3733995571877442  1.0000
  O   O8        1.0  0.010160538259512467  0.3688633761787685  0.5698361334865311  1.0000
