data_image0
_chemical_formula_structural       NC8NC6H8C9H10C9H10Zn2C4O8
_chemical_formula_sum              "N2 C36 H28 Zn2 O8"
_cell_length_a       17.457602349358154
_cell_length_b       9.272676604525723
_cell_length_c       9.272679976505533
_cell_angle_alpha    86.26619108519446
_cell_angle_beta     93.25957942520282
_cell_angle_gamma    92.2282679722568

_space_group_name_H-M_alt    "P 1"
_space_group_IT_number       1

loop_
  _space_group_symop_operation_xyz
  'x, y, z'

loop_
  _atom_site_type_symbol
  _atom_site_label
  _atom_site_symmetry_multiplicity
  _atom_site_fract_x
  _atom_site_fract_y
  _atom_site_fract_z
  _atom_site_occupancy
  N   N1        1.0  0.7250686739854457  0.6012038556262078  0.48249098767958665  1.0000
  C   C1        1.0  0.6636841729541545  0.5500951582977605  0.4704555129926986  1.0000
  C   C2        1.0  0.5873193427127996  0.48652237323224756  0.45549400975981214  1.0000
  C   C3        1.0  0.5293296048077198  0.5318162894886345  0.5388854942716088  1.0000
  C   C4        1.0  0.4544175125602554  0.47060199035517414  0.524617707469444  1.0000
  C   C5        1.0  0.3928679614207343  0.5184278731956471  0.612931765942613  1.0000
  C   C6        1.0  0.3181968217758348  0.5384326477479546  0.5511038994017126  1.0000
  C   C7        1.0  0.2602064742529261  0.5835232530842986  0.6346142826857912  1.0000
  C   C8        1.0  0.18409150220873016  0.6041807555100793  0.5703293346271174  1.0000
  N   N2        1.0  0.12290794531515561  0.6207823025440296  0.5186443699005152  1.0000
  C   C9        1.0  0.2763985934749618  0.6088837979834247  0.7805185603006146  1.0000
  C   C10       1.0  0.3502888543046536  0.5893146321479108  0.842778952649418  1.0000
  C   C11       1.0  0.40827051612436915  0.5444282026110363  0.7597778479422033  1.0000
  C   C12       1.0  0.4387740144883662  0.3633282433307401  0.425363503507842  1.0000
  C   C13       1.0  0.4967552795319149  0.3183475250843639  0.34241772928119424  1.0000
  C   C14       1.0  0.5708855187557128  0.37969166746128735  0.3572968538807384  1.0000
  H   H1        1.0  0.5423788516763569  0.6159473102405826  0.6132842441017637  1.0000
  H   H2        1.0  0.30534510607517423  0.5208727892719052  0.43772249822157927  1.0000
  H   H3        1.0  0.2319571345459185  0.6437242516392078  0.8460231261882489  1.0000
  H   H4        1.0  0.3626342304841163  0.6086012654831341  0.955754195062766  1.0000
  H   H5        1.0  0.4648606417822166  0.528196904041339  0.8108999321713672  1.0000
  H   H6        1.0  0.381986016145431  0.3128741944961597  0.4132910838584922  1.0000
  H   H7        1.0  0.4842212845950092  0.23544568124972276  0.26669420013102774  1.0000
  H   H8        1.0  0.6153241551700321  0.3438898570942286  0.29235524038110117  1.0000
  C   C15       1.0  0.921810022738309  0.18738241837353023  0.49852799648213625  1.0000
  C   C16       1.0  0.8915211027640734  0.25096583983842713  0.615176606696864  1.0000
  C   C17       1.0  0.8682688356850095  0.16668830541863877  0.7359882059001301  1.0000
  C   C18       1.0  0.8745557642393718  0.016310960175993212  0.7442194023084894  1.0000
  C   C19       1.0  0.9035828328539114  0.9512067045793272  0.626345348509029  1.0000
  C   C20       1.0  0.9261739477273843  0.03459305728033501  0.5026204653381501  1.0000
  C   C21       1.0  0.8486161267269776  0.9325494019042122  0.8803548651005033  1.0000
  C   C22       1.0  0.8097648457686001  0.7844257852228412  0.8624697187174324  1.0000
  C   C23       1.0  0.891049843250361  0.7963676345169083  0.9308588015923136  1.0000
  H   H9        1.0  0.9379864376295933  0.4850746184202823  0.26374872717207887  1.0000
  H   H10       1.0  0.88746998011637  0.3672878714179457  0.6146698694568749  1.0000
  H   H11       1.0  0.8458610147726701  0.21977200899841146  0.8245377752590051  1.0000
  H   H12       1.0  0.9072500237745614  0.8349977702769252  0.6280173765955626  1.0000
  H   H13       1.0  0.9447923330834064  0.9558101634966488  0.1513011482558988  1.0000
  H   H14       1.0  0.8272196375390958  0.9923608709871854  0.969184062821325  1.0000
  H   H15       1.0  0.8057971358960665  0.7440824635594194  0.7522010066356406  1.0000
  H   H16       1.0  0.7655811029851695  0.7541485838075821  0.9416281900313831  1.0000
  H   H17       1.0  0.9364353556010825  0.7631494298926494  0.8622158348469424  1.0000
  H   H18       1.0  0.8943713660341575  0.7730638755645373  0.05000627410412672  1.0000
  C   C24       1.0  0.9224180354596617  0.6075048157019989  0.07705365933075536  1.0000
  C   C25       1.0  0.9741263293468171  0.5208410864599702  0.16162957138636488  1.0000
  C   C26       1.0  0.029675111796203076  0.44605296819000545  0.0977382484297815  1.0000
  C   C27       1.0  0.035394376030371204  0.4554716091292759  0.9474356024334906  1.0000
  C   C28       1.0  0.9827545765267337  0.5401322060331607  0.8613822230359345  1.0000
  C   C29       1.0  0.9255658979519775  0.6144706943148232  0.9240948339810634  1.0000
  C   C30       1.0  0.09805346151102266  0.37168031635777043  0.8866023792178344  1.0000
  C   C31       1.0  0.07943482467968788  0.30476436884569624  0.7425225613197131  1.0000
  C   C32       1.0  0.13409368052887224  0.436586039068656  0.7502346507010826  1.0000
  H   H19       1.0  0.8073367715261782  0.699349235268707  0.3399720973912068  1.0000
  H   H20       1.0  0.9728736087403129  0.5135047782010249  0.2785585898739753  1.0000
  H   H21       1.0  0.06907131661166743  0.38134382817805523  0.16665993321726624  1.0000
  H   H22       1.0  0.9845038338896377  0.5464527959813139  0.7447894866023592  1.0000
  H   H23       1.0  0.7519871128535447  0.7416015871226913  0.7942102729262439  1.0000
  H   H24       1.0  0.13784004641811265  0.30876229845230085  0.962121141786684  1.0000
  H   H25       1.0  0.022542100407321183  0.32657502115843545  0.6877782596532649  1.0000
  H   H26       1.0  0.10871658951232543  0.20238196298374198  0.7304364850880342  1.0000
  H   H27       1.0  0.11043977628203948  0.5384068743079682  0.7000613586790299  1.0000
  H   H28       1.0  0.1953300713899318  0.4112386157539281  0.7426528931663108  1.0000
  Zn  Zn1       1.0  0.8398765049428726  0.6068499725096144  0.49293238139934265  1.0000
  Zn  Zn2       1.0  0.008100083068180108  0.6151244555490534  0.5082147267606114  1.0000
  C   C33       1.0  0.9249395787487431  0.6074071566104658  0.7639579578115823  1.0000
  C   C34       1.0  0.923038856159872  0.6145691830890944  0.23718946757815673  1.0000
  C   C35       1.0  0.9253237421160384  0.8744047654942398  0.49609935782987913  1.0000
  C   C36       1.0  0.9226546267482086  0.3475698388861816  0.5050481308645756  1.0000
  O   O1        1.0  0.98708714803596  0.620073879206898  0.29673204770486417  1.0000
  O   O2        1.0  0.9885690830928189  0.6081815100063586  0.7160139037817335  1.0000
  O   O3        1.0  0.9888784448500884  0.8237854258278934  0.4997161182157499  1.0000
  O   O4        1.0  0.9867777285266599  0.4044699699917933  0.5130297199686464  1.0000
  O   O5        1.0  0.8611988020779218  0.8175044552447077  0.4881173829686149  1.0000
  O   O6        1.0  0.8608894489585492  0.6019022719201441  0.7044151000071897  1.0000
  O   O7        1.0  0.8594075072498059  0.6137945765946893  0.28513150971416823  1.0000
  O   O8        1.0  0.8590980880860648  0.39819065795098707  0.5014292900574594  1.0000
