data_image0
_chemical_formula_structural       NC5NC4H6C10H6C6IH3Zn2C4O8
_chemical_formula_sum              "N2 C29 H15 I1 Zn2 O8"
_cell_length_a       13.854160002989762
_cell_length_b       9.275150299802176
_cell_length_c       9.275433903346869
_cell_angle_alpha    85.8435202653109
_cell_angle_beta     89.96562887878927
_cell_angle_gamma    89.48388968248379

_space_group_name_H-M_alt    "P 1"
_space_group_IT_number       1

loop_
  _space_group_symop_operation_xyz
  'x, y, z'

loop_
  _atom_site_type_symbol
  _atom_site_label
  _atom_site_symmetry_multiplicity
  _atom_site_fract_x
  _atom_site_fract_y
  _atom_site_fract_z
  _atom_site_occupancy
  N   N1        1.0  0.9001307225450883  0.5620563383835735  0.4016891305004253  1.0000
  C   C1        1.0  0.8276734883225088  0.5866500730294113  0.3425275131018161  1.0000
  C   C2        1.0  0.7375356676468816  0.617245338975001  0.26892819737404117  1.0000
  C   C3        1.0  0.650108863010987  0.5885134284805846  0.34078491884062356  1.0000
  C   C4        1.0  0.5623932552000049  0.6172453530635598  0.2689281741311049  1.0000
  C   C5        1.0  0.47256534780389164  0.5866499266272023  0.34252760551551065  1.0000
  N   N2        1.0  0.40035715233022673  0.5620562748610365  0.4016891307735393  1.0000
  C   C6        1.0  0.5621334206572907  0.6753160155208012  0.12523025842567703  1.0000
  C   C7        1.0  0.6495145741919766  0.7061977862133322  0.053257964689282115  1.0000
  C   C8        1.0  0.6492259868602134  0.764387494703807  0.8980750558287065  1.0000
  C   C9        1.0  0.7372105097429835  0.6753160132348572  0.1252301681971668  1.0000
  H   H1        1.0  0.6503359456497761  0.5434565281973291  0.4520050971956758  1.0000
  H   H2        1.0  0.49415497629617916  0.6965191218738769  0.06948326981666275  1.0000
  H   H3        1.0  0.7136802809861609  0.8323216469359639  0.8739133865641633  1.0000
  H   H4        1.0  0.583971803285866  0.832321649505723  0.8739134516079349  1.0000
  H   H5        1.0  0.6498052583109309  0.6730669737413715  0.8270671968685672  1.0000
  H   H6        1.0  0.8049779347396072  0.6965192334926704  0.0694831837929959  1.0000
  C   C10       1.0  0.1527942255726873  0.1383764253459676  0.40410139511762755  1.0000
  C   C11       1.0  0.20360497322289905  0.2192690681594285  0.29508927869957136  1.0000
  C   C12       1.0  0.2461404299602616  0.1519011700671098  0.18053730799305412  1.0000
  C   C13       1.0  0.23829690381929236  0.0026590454544643777  0.17352197215794374  1.0000
  C   C14       1.0  0.1895937411089516  0.9203156741655151  0.28188650131224624  1.0000
  C   C15       1.0  0.1477029233073539  0.9857251813933936  0.39928943051398225  1.0000
  C   C16       1.0  0.29696405883409627  0.2365094412613951  0.06903274040519602  1.0000
  C   C17       1.0  0.339516278159851  0.30737154248527476  0.9756801766682138  1.0000
  C   C18       1.0  0.38934295248671874  0.39035604804230967  0.8663683958383626  1.0000
  C   C19       1.0  0.4318869672432786  0.4612128574428265  0.7730337271316724  1.0000
  H   H7        1.0  0.10691814385743578  0.4031337823477404  0.6329136536729578  1.0000
  H   H8        1.0  0.2082415850512315  0.33574110667109025  0.29731526719865337  1.0000
  H   H9        1.0  0.2706941062935008  0.9495711581404761  0.08488281487900662  1.0000
  H   H10       1.0  0.1866447366417214  0.8042494511174809  0.2756655892883814  1.0000
  H   H11       1.0  0.0848241465554378  0.8588954902301312  0.7416419414701261  1.0000
  H   H12       1.0  0.46924416111478273  0.5234311535296523  0.6910781790548275  1.0000
  C   C20       1.0  0.1504450651037259  0.5575476958749126  0.9785686551389015  1.0000
  C   C21       1.0  0.23937488951824076  0.5548466659259212  0.052038862683575715  1.0000
  C   C22       1.0  0.3262662376780997  0.5654406525754607  0.9758599630925354  1.0000
  C   C23       1.0  0.3256185949332209  0.5790725056610435  0.8252369061381741  1.0000
  C   C24       1.0  0.23833729146710014  0.5795927276145527  0.7502585617023487  1.0000
  C   C25       1.0  0.15005210390848345  0.5665538927886846  0.8248221336885315  1.0000
  I   I1        1.0  0.45849073281332614  0.563525351026734  0.08865523819638964  1.0000
  H   H13       1.0  0.9198413588064851  0.6430223402160564  0.07557285895496757  1.0000
  H   H14       1.0  0.3928846743048981  0.5878920387444404  0.7659758921105477  1.0000
  H   H15       1.0  0.9943507156630929  0.6180335336630136  0.5400542561519206  1.0000
  Zn  Zn1       1.0  0.04448528958990727  0.5620525459773427  0.4016974822926411  1.0000
  Zn  Zn2       1.0  0.25600265190381766  0.5620483868219408  0.40169267963962585  1.0000
  C   C26       1.0  0.1501587699675326  0.5591038922067469  0.664894771301958  1.0000
  C   C27       1.0  0.15033147028561977  0.5649988624686519  0.13849552166332613  1.0000
  C   C28       1.0  0.14866301004935392  0.825497144052233  0.39445716494392125  1.0000
  C   C29       1.0  0.15182716840718652  0.29860387803159627  0.4089332146866733  1.0000
  O   O1        1.0  0.23056312131239132  0.5674916693391523  0.19216665218166762  1.0000
  O   O2        1.0  0.23046390949073695  0.556606835801303  0.6112195870819099  1.0000
  O   O3        1.0  0.2292549816702  0.7717227716352982  0.3928392980621802  1.0000
  O   O4        1.0  0.23177197694453297  0.3523757426777248  0.4105468331077555  1.0000
  O   O5        1.0  0.06871589236869105  0.7717251901244683  0.39284332881856243  1.0000
  O   O6        1.0  0.06992480980533866  0.5566109868849523  0.6112235311670327  1.0000
  O   O7        1.0  0.07002402279768738  0.5674957517092274  0.19216886418665965  1.0000
  O   O8        1.0  0.07123287843772341  0.3523798158781417  0.4105491532004404  1.0000
