data_image0
_chemical_formula_structural       NC5NC4H6C6ClH5C6SCH6Zn2C4O8
_chemical_formula_sum              "N2 C26 H17 Cl1 S1 Zn2 O8"
_cell_length_a       13.854160002989762
_cell_length_b       9.276545438789551
_cell_length_c       9.275274088470228
_cell_angle_alpha    86.1334652357246
_cell_angle_beta     89.72578587479208
_cell_angle_gamma    89.40960627284836

_space_group_name_H-M_alt    "P 1"
_space_group_IT_number       1

loop_
  _space_group_symop_operation_xyz
  'x, y, z'

loop_
  _atom_site_type_symbol
  _atom_site_label
  _atom_site_symmetry_multiplicity
  _atom_site_fract_x
  _atom_site_fract_y
  _atom_site_fract_z
  _atom_site_occupancy
  N   N1        1.0  0.9032155142894203  0.5629748730292385  0.41129223637230194  1.0000
  C   C1        1.0  0.8309018696931629  0.5876218387871208  0.3522782548633696  1.0000
  C   C2        1.0  0.7409426802554807  0.6182833264354923  0.27886260207382696  1.0000
  C   C3        1.0  0.653340465785571  0.589486102914804  0.35054713318800945  1.0000
  C   C4        1.0  0.5658002678610986  0.6182833405424022  0.27886257891657973  1.0000
  C   C5        1.0  0.4757937290458207  0.5876216923642645  0.3522783463710133  1.0000
  N   N2        1.0  0.40344194413001433  0.562974809543157  0.41129223624811884  1.0000
  C   C6        1.0  0.565890672517833  0.6764842600998836  0.13551284125850271  1.0000
  C   C7        1.0  0.6534456562277112  0.7074302312548175  0.06372617287678528  1.0000
  C   C8        1.0  0.6535393030965684  0.7657632250941524  0.9088909840879142  1.0000
  C   C9        1.0  0.740967761857736  0.6764842579181569  0.13551275100624616  1.0000
  H   H1        1.0  0.6532965664339312  0.5443284497154373  0.46149713218986843  1.0000
  H   H2        1.0  0.4980492747467141  0.6977386661485101  0.07989263813344127  1.0000
  H   H3        1.0  0.7180010052110735  0.8336856096731253  0.8851517043921348  1.0000
  H   H4        1.0  0.5882925273267083  0.8336856121672234  0.885151769458791  1.0000
  H   H5        1.0  0.6543978613021161  0.6745765366070522  0.8373044915775689  1.0000
  H   H6        1.0  0.8088722333317916  0.6977387778007966  0.07989255279892848  1.0000
  C   C10       1.0  0.1562472426543704  0.1395374390010502  0.4110546892647178  1.0000
  C   C11       1.0  0.15703825995960308  0.2219260234304852  0.2780385421958751  1.0000
  C   C12       1.0  0.14903848444279957  0.15561123598217264  0.14791751454948776  1.0000
  C   C13       1.0  0.14005480447848395  0.006028575295098818  0.14881075388500875  1.0000
  C   C14       1.0  0.14076077544919108  0.9220783950870214  0.27938538801558943  1.0000
  C   C15       1.0  0.1504195175575286  0.9864012968528468  0.4115422883207296  1.0000
  Cl  Cl1       1.0  0.14881711055605096  0.2606705991815677  0.9833915232289887  1.0000
  H   H7        1.0  0.204887923329307  0.40464759634460284  0.6376288436433042  1.0000
  H   H8        1.0  0.161570181509224  0.3386194990638134  0.2751852949890803  1.0000
  H   H9        1.0  0.1334435732569521  0.9543512002440249  0.04814135713895706  1.0000
  H   H10       1.0  0.1360503596213416  0.8057927704792924  0.276735380531526  1.0000
  H   H11       1.0  0.11731703915095254  0.6898782142976785  0.6445768525684266  1.0000
  C   C16       1.0  0.15471646162331587  0.5589513545009426  0.9880992550801824  1.0000
  C   C17       1.0  0.2365651271552226  0.6097065769934937  0.05747682736402471  1.0000
  C   C18       1.0  0.31297371800897394  0.6719497395337685  0.9774486044615651  1.0000
  C   C19       1.0  0.3088145814625787  0.6835759705391706  0.826895172078904  1.0000
  C   C20       1.0  0.22903602198267436  0.6317292625635058  0.7560140594825473  1.0000
  C   C21       1.0  0.1519502794228227  0.5669873678104107  0.8344977056126992  1.0000
  S   S1        1.0  0.4161900665208557  0.7373268699267773  0.06817460571541423  1.0000
  C   C22       1.0  0.3653353680303373  0.917811416473444  0.08001068242890685  1.0000
  H   H12       1.0  0.9213888387444058  0.49962093158408966  0.09676978971217776  1.0000
  H   H13       1.0  0.36779255411969736  0.7318891284155562  0.7644251200038181  1.0000
  H   H14       1.0  0.22870099121644416  0.6391999799361634  0.6389588973223899  1.0000
  H   H15       1.0  0.35119084006653495  0.9682023342667447  0.9700776030663119  1.0000
  H   H16       1.0  0.2971336589344833  0.9123948760309772  0.14337312619354803  1.0000
  H   H17       1.0  0.4176028615498719  0.9850906970483614  0.13504874296635694  1.0000
  Zn  Zn1       1.0  0.04757006134749895  0.5629710732939459  0.4113005653180122  1.0000
  Zn  Zn2       1.0  0.259087440765702  0.5629669220227085  0.4112957361471199  1.0000
  C   C23       1.0  0.15251051942601834  0.559723983665787  0.6745069702565969  1.0000
  C   C24       1.0  0.15414927946796775  0.5662158323230375  0.1480894736508771  1.0000
  C   C25       1.0  0.15153486315287212  0.8262714438260439  0.4057073025035547  1.0000
  C   C26       1.0  0.15512487523566196  0.29966664047522046  0.41688921724116335  1.0000
  O   O1        1.0  0.23422871440251514  0.5686459913308044  0.20178181626479597  1.0000
  O   O2        1.0  0.23296789013242125  0.5572895822054711  0.620810546936204  1.0000
  O   O3        1.0  0.2321789483811016  0.772530041486055  0.403752914311319  1.0000
  O   O4        1.0  0.23501758425944175  0.35340554134074575  0.4188393408420952  1.0000
  O   O5        1.0  0.07163984567327229  0.772532453978823  0.4037569606171054  1.0000
  O   O6        1.0  0.0724287757495574  0.5572937263887141  0.6208145173988155  1.0000
  O   O7        1.0  0.07368960609229291  0.5686500688154592  0.20178405403611666  1.0000
  O   O8        1.0  0.0744784756631256  0.35340960953779  0.4188416866550706  1.0000
