data_image0
_chemical_formula_structural       NC12NC2H8C7N4H6C6OCH6Zn2C4O8
_chemical_formula_sum              "N6 C32 H20 O9 Zn2"
_cell_length_a       17.80743265337812
_cell_length_b       9.274187458527196
_cell_length_c       9.273891588657152
_cell_angle_alpha    86.43492671572189
_cell_angle_beta     91.22048166911064
_cell_angle_gamma    89.89930755814213

_space_group_name_H-M_alt    "P 1"
_space_group_IT_number       1

loop_
  _space_group_symop_operation_xyz
  'x, y, z'

loop_
  _atom_site_type_symbol
  _atom_site_label
  _atom_site_symmetry_multiplicity
  _atom_site_fract_x
  _atom_site_fract_y
  _atom_site_fract_z
  _atom_site_occupancy
  N   N1        1.0  0.7185650813585632  0.5473505940974175  0.4579271435440957  1.0000
  C   C1        1.0  0.6681042592072548  0.5794676556945415  0.3819005218656255  1.0000
  C   C2        1.0  0.6053259439805373  0.6194189860514528  0.2873329862814846  1.0000
  C   C3        1.0  0.6177120964809846  0.6781042599223447  0.14720378846364432  1.0000
  C   C4        1.0  0.5568263631394483  0.7164107556485215  0.05528440853474059  1.0000
  C   C5        1.0  0.4834035250802608  0.6963177631789709  0.1027637873593219  1.0000
  C   C6        1.0  0.4700385465806634  0.6375053464888778  0.24341165716151592  1.0000
  C   C7        1.0  0.5317816639562999  0.5992022957636726  0.33531273646231563  1.0000
  C   C8        1.0  0.3920331107855795  0.6162045417249781  0.29405726626751694  1.0000
  C   C9        1.0  0.3729734606752421  0.6476680593765702  0.4352416733852764  1.0000
  C   C10       1.0  0.2995207458570254  0.6276216259324008  0.48276636634334635  1.0000
  C   C11       1.0  0.24418084196708092  0.5758378958027932  0.3900347683063371  1.0000
  C   C12       1.0  0.16858444448572524  0.5551919668054528  0.4391101801567874  1.0000
  N   N2        1.0  0.10781029373173122  0.5385940277382313  0.4785634350137684  1.0000
  C   C13       1.0  0.2625464718944044  0.5441923685772959  0.24945171286722334  1.0000
  C   C14       1.0  0.33594721388325055  0.5642526261039335  0.20164315277462452  1.0000
  H   H1        1.0  0.674357602064341  0.6942110932516208  0.10909355953791543  1.0000
  H   H2        1.0  0.5665350730666365  0.7621516815278008  0.9470757516584934  1.0000
  H   H3        1.0  0.43711335889886443  0.7285513058458659  0.03018679424812088  1.0000
  H   H4        1.0  0.5227651404164042  0.5519223408865738  0.44337332638758536  1.0000
  H   H5        1.0  0.41461874438749957  0.6896024987339056  0.5082795289020015  1.0000
  H   H6        1.0  0.28587039229978223  0.6528629179721108  0.5916899190509883  1.0000
  H   H7        1.0  0.2201890289727793  0.5036688608616355  0.17688125152981038  1.0000
  H   H8        1.0  0.34906090443285875  0.5373098593523633  0.09304518755768854  1.0000
  C   C15       1.0  0.9113744643444692  0.11963184754793123  0.4655195385793098  1.0000
  C   C16       1.0  0.9505744352609495  0.19943403105109467  0.3578921302052387  1.0000
  C   C17       1.0  0.9946830444632431  0.1304744791640784  0.26038848614851773  1.0000
  C   C18       1.0  0.0009641891534954968  0.9795212242666186  0.2678090016923691  1.0000
  C   C19       1.0  0.9607705890872587  0.8985245833392379  0.3733083316594781  1.0000
  C   C20       1.0  0.915007988085421  0.9663016146490331  0.47098372747719086  1.0000
  C   C21       1.0  0.048813829475577546  0.9084579134947568  0.1639015325275135  1.0000
  N   N3        1.0  0.08523896707829226  0.9793738179597298  0.05520344734843418  1.0000
  N   N4        1.0  0.12124981213775188  0.8778769917582143  0.9893372582179886  1.0000
  N   N5        1.0  0.10789144356531333  0.7495805370306371  0.05426029995775439  1.0000
  N   N6        1.0  0.0628689617008431  0.7658422998849616  0.16344336665386747  1.0000
  H   H9        1.0  0.8125863641565207  0.3926471136969487  0.6049208804653112  1.0000
  H   H10       1.0  0.9486205991757982  0.3164277146744947  0.35116736371180485  1.0000
  H   H11       1.0  0.024680830606716327  0.19595413788800675  0.1799197182867045  1.0000
  H   H12       1.0  0.9631301380479672  0.7818372722813379  0.3777735683565382  1.0000
  H   H13       1.0  0.8664223052605571  0.6728440993917587  0.6897274963115333  1.0000
  H   H14       1.0  0.04388556101247887  0.6816773188659272  0.23302811984869765  1.0000
  C   C22       1.0  0.9144052877137375  0.5391210581077106  0.04501691363622284  1.0000
  C   C23       1.0  0.9761752141144946  0.5986277933206672  0.11724453368296771  1.0000
  C   C24       1.0  0.03373100043821098  0.6689952047657803  0.040932315315267864  1.0000
  C   C25       1.0  0.029723124007395633  0.6802125087979356  0.8893484944743788  1.0000
  C   C26       1.0  0.9695274012118008  0.6197973795594275  0.8158566997627639  1.0000
  C   C27       1.0  0.9119771761689999  0.5468123963923833  0.8914863689966629  1.0000
  O   O1        1.0  0.09344213694978043  0.7267731278020688  0.11967264277421741  1.0000
  C   C28       1.0  0.15561745148734296  0.8012510532221697  0.056364945974020975  1.0000
  H   H15       1.0  0.7353744526500795  0.4545969976520816  0.1459913463688023  1.0000
  H   H16       1.0  0.07322563217483413  0.7342884387278363  0.8270754426546483  1.0000
  H   H17       1.0  0.9689532530422459  0.6272408887805094  0.6987913449129439  1.0000
  H   H18       1.0  0.7925604137197316  0.48416536654634856  0.6093059674295608  1.0000
  H   H19       1.0  0.18662739306186604  0.7289994696534146  0.9871508327804079  1.0000
  H   H20       1.0  0.1942125404623063  0.8348444339326258  0.14346919802084201  1.0000
  Zn  Zn1       1.0  0.8308928044771737  0.5448198648246783  0.4638906154850484  1.0000
  Zn  Zn2       1.0  0.9954824839312696  0.5411131045088406  0.4726116431130667  1.0000
  C   C29       1.0  0.9124098315246274  0.53961558145989  0.731448382810212  1.0000
  C   C30       1.0  0.9139672615984265  0.5463191676390415  0.20505412421985847  1.0000
  C   C31       1.0  0.9143338064772538  0.8062109432642548  0.4642074172163954  1.0000
  C   C32       1.0  0.9120432228293215  0.27972207577615094  0.47229515249918474  1.0000
  O   O2        1.0  0.9762811546282422  0.5473219334471517  0.2620736179947906  1.0000
  O   O3        1.0  0.9750156933773337  0.5357983790250187  0.6810475253092947  1.0000
  O   O4        1.0  0.9765684811816177  0.751077537820635  0.465248519876722  1.0000
  O   O5        1.0  0.9747283110148891  0.3320427852471399  0.4778725124537823  1.0000
  O   O6        1.0  0.8516469212272025  0.7538901853528154  0.4586297431607029  1.0000
  O   O7        1.0  0.8500941410730458  0.538612757882161  0.6744286829241364  1.0000
  O   O8        1.0  0.8513596071288657  0.5501362463215141  0.25545304248030787  1.0000
  O   O9        1.0  0.8498067631582307  0.33485708879233433  0.4712520449292512  1.0000
