data_image0
_chemical_formula_structural       NC8NC6H8C7OCH9C7NC2NH6Zn2C4O8
_chemical_formula_sum              "N4 C35 H23 O9 Zn2"
_cell_length_a       17.457602349358154
_cell_length_b       10.300832083147542
_cell_length_c       9.27399911348925
_cell_angle_alpha    85.04366218099177
_cell_angle_beta     92.55204972901187
_cell_angle_gamma    91.68357009181102

_space_group_name_H-M_alt    "P 1"
_space_group_IT_number       1

loop_
  _space_group_symop_operation_xyz
  'x, y, z'

loop_
  _atom_site_type_symbol
  _atom_site_label
  _atom_site_symmetry_multiplicity
  _atom_site_fract_x
  _atom_site_fract_y
  _atom_site_fract_z
  _atom_site_occupancy
  N   N1        1.0  0.7271151505627897  0.46487933739266385  0.47337219031060335  1.0000
  C   C1        1.0  0.6660766095215672  0.4190523611921855  0.4615949454593251  1.0000
  C   C2        1.0  0.5901420479806528  0.36204923206767364  0.4469546525788661  1.0000
  C   C3        1.0  0.5313510984287778  0.40154344414366583  0.5301567713955719  1.0000
  C   C4        1.0  0.45685236930889134  0.3466529400502212  0.516198353649394  1.0000
  C   C5        1.0  0.3944550435819287  0.3883508961864851  0.6043126023939027  1.0000
  C   C6        1.0  0.32010102654982747  0.4073120365209597  0.5423475347607236  1.0000
  C   C7        1.0  0.2613097093513935  0.4466213825218491  0.6256696701379779  1.0000
  C   C8        1.0  0.18552519780071242  0.4662079636867553  0.5612428055681815  1.0000
  N   N2        1.0  0.12460736684737299  0.481949194479681  0.5094437767419269  1.0000
  C   C9        1.0  0.27637846707888675  0.46720819935511165  0.7715217851175576  1.0000
  C   C10       1.0  0.34994641262363035  0.4486325743679107  0.8339173567552924  1.0000
  C   C11       1.0  0.4087245253784881  0.40949920839151366  0.75110371874118  1.0000
  C   C12       1.0  0.4424382492188785  0.2516035694365095  0.41744598427659474  1.0000
  C   C13       1.0  0.5012160761284451  0.21238446593228932  0.334688195238094  1.0000
  C   C14       1.0  0.5749281234841912  0.26738245971638097  0.34925761005216355  1.0000
  H   H1        1.0  0.5434596024730298  0.4761402859559519  0.6041600808303369  1.0000
  H   H2        1.0  0.3081111706191701  0.39324764921822886  0.42899554300322396  1.0000
  H   H3        1.0  0.23131146583542678  0.4975665618751812  0.8368814272716666  1.0000
  H   H4        1.0  0.3614237682091637  0.4642577916544175  0.9468540238218077  1.0000
  H   H5        1.0  0.46505084003703623  0.3940999650130348  0.8023376434260329  1.0000
  H   H6        1.0  0.3859930792201414  0.20636652868440541  0.40562838305394133  1.0000
  H   H7        1.0  0.48962548217619933  0.13891460979182835  0.259353019577963  1.0000
  H   H8        1.0  0.619993441349669  0.23614994565855033  0.2844662061547034  1.0000
  C   C15       1.0  0.9258858625425935  0.09207738074595051  0.49156167257163713  1.0000
  C   C16       1.0  0.9049936109703421  0.10174234593713871  0.3431068141582394  1.0000
  C   C17       1.0  0.8935772025566443  0.9894198810638302  0.26870836652529095  1.0000
  C   C18       1.0  0.9049394354432114  0.8664840697110014  0.34272054207277236  1.0000
  C   C19       1.0  0.925843970806557  0.8547413428911385  0.49126747118966557  1.0000
  C   C20       1.0  0.9360144119956675  0.9680686224545549  0.5648828061139521  1.0000
  C   C21       1.0  0.8734253342753762  0.0010612051282279334  0.10900250425033975  1.0000
  O   O1        1.0  0.9418060364154316  0.010559140761851046  0.03269623250651566  1.0000
  C   C22       1.0  0.9236615135053658  0.021570381962192416  0.8825540117208769  1.0000
  H   H9        1.0  0.8975301271200504  0.19655863123141537  0.28472863993150566  1.0000
  H   H10       1.0  0.8974380630733029  0.7801533631828627  0.28407712883277214  1.0000
  H   H11       1.0  0.9521339501970761  0.9598520410761789  0.6793739741741298  1.0000
  H   H12       1.0  0.9661213970677102  0.6254096464344665  0.7711263105488249  1.0000
  H   H13       1.0  0.8381880805109446  0.08900802261767816  0.08167556131951503  1.0000
  H   H14       1.0  0.8382199076332635  0.9139225133135509  0.08134749175613765  1.0000
  H   H15       1.0  0.9778919523309556  0.0289334710409792  0.8240784353935267  1.0000
  H   H16       1.0  0.8910861462650879  0.11131516117932262  0.849498639222947  1.0000
  H   H17       1.0  0.8911005924229752  0.9338365659241679  0.8491422806166907  1.0000
  C   C23       1.0  0.9271893733265476  0.4767897334372251  0.06768209716009088  1.0000
  C   C24       1.0  0.9874005549313615  0.41719410516860833  0.15165434260248944  1.0000
  C   C25       1.0  0.04253517873146251  0.3481355743621666  0.08803272776837523  1.0000
  C   C26       1.0  0.038940498028420034  0.3362701999816805  0.9384145830267435  1.0000
  C   C27       1.0  0.9798835266894432  0.39810837649692515  0.8529876006528972  1.0000
  C   C28       1.0  0.9245404346212169  0.4700289953966954  0.9151469739560563  1.0000
  C   C29       1.0  0.09780711634159611  0.26113345488231743  0.8730906296121009  1.0000
  N   N3        1.0  0.16203779489111447  0.21851896916793173  0.946975526052069  1.0000
  C   C30       1.0  0.1991708473622913  0.15513795027157262  0.8510470178172693  1.0000
  C   C31       1.0  0.1572749439268295  0.1598105638663625  0.7217005100130898  1.0000
  N   N4        1.0  0.09352442648021132  0.22641309689227346  0.7357219405714601  1.0000
  H   H18       1.0  0.8455360561517625  0.637191238032965  0.32678699266380384  1.0000
  H   H19       1.0  0.08751720501542894  0.3022288336707055  0.156860695641166  1.0000
  H   H20       1.0  0.8048661618581625  0.5381813042968812  0.6184967306617959  1.0000
  H   H21       1.0  0.25343052051594617  0.1080437869787052  0.8743582345330918  1.0000
  H   H22       1.0  0.17199944313323612  0.11708174736723143  0.6243605632688722  1.0000
  H   H23       1.0  0.050132523532253614  0.24423281004353045  0.6560713175651061  1.0000
  Zn  Zn1       1.0  0.841822792060051  0.46980178054319244  0.4837900037287859  1.0000
  Zn  Zn2       1.0  0.00989967475928522  0.4770160101566684  0.4990377810501525  1.0000
  C   C32       1.0  0.9250397133227128  0.4661335979541577  0.7549598410303848  1.0000
  C   C33       1.0  0.9266845883582214  0.4806859088773707  0.22786825124747945  1.0000
  C   C34       1.0  0.9258658942280743  0.7106273230580573  0.48557265490495416  1.0000
  C   C35       1.0  0.9258583499452545  0.23619062052614792  0.4972555097016675  1.0000
  O   O2        1.0  0.9902994792672742  0.48472559822124867  0.28741464209241774  1.0000
  O   O3        1.0  0.9889912887002282  0.46756836563424287  0.7069857453668342  1.0000
  O   O4        1.0  0.9896575756971209  0.6650000918249841  0.489453608085328  1.0000
  O   O5        1.0  0.9896331352547921  0.2872938797213312  0.5049466659759834  1.0000
  O   O6        1.0  0.8620892742081763  0.6595239085181417  0.4778811135920466  1.0000
  O   O7        1.0  0.861422987362522  0.4620937431143354  0.6954131733338865  1.0000
  O   O8        1.0  0.8627311834057084  0.47925094429127046  0.27584033523603413  1.0000
  O   O9        1.0  0.862064839052448  0.281819215640141  0.4933724673066326  1.0000
