data_image0
_chemical_formula_structural       NC8NC6H8C9H10C7F3H4Zn2C4O8
_chemical_formula_sum              "N2 C34 H22 F3 Zn2 O8"
_cell_length_a       17.457602349358154
_cell_length_b       9.272676604525723
_cell_length_c       9.272721663655245
_cell_angle_alpha    86.12112079025516
_cell_angle_beta     93.38388695232669
_cell_angle_gamma    92.2282679722568

_space_group_name_H-M_alt    "P 1"
_space_group_IT_number       1

loop_
  _space_group_symop_operation_xyz
  'x, y, z'

loop_
  _atom_site_type_symbol
  _atom_site_label
  _atom_site_symmetry_multiplicity
  _atom_site_fract_x
  _atom_site_fract_y
  _atom_site_fract_z
  _atom_site_occupancy
  N   N1        1.0  0.7233865642256833  0.6049437204453004  0.48206604400059017  1.0000
  C   C1        1.0  0.6619887222591684  0.5538646842575761  0.4700271990543825  1.0000
  C   C2        1.0  0.58560730767439  0.49032877146044984  0.4550615061948278  1.0000
  C   C3        1.0  0.5277100065382785  0.5354171713893514  0.5384763425839034  1.0000
  C   C4        1.0  0.45278209890966264  0.4742380348766561  0.5242045604144849  1.0000
  C   C5        1.0  0.3913304410534603  0.5218462698233549  0.6125433492191448  1.0000
  C   C6        1.0  0.3165907672141083  0.5420034176802286  0.5506981691988124  1.0000
  C   C7        1.0  0.25869298825561887  0.5868882136658948  0.6342319376550514  1.0000
  C   C8        1.0  0.1825067584214147  0.6077041448151229  0.5699289880674833  1.0000
  N   N2        1.0  0.121265910412668  0.624433068213686  0.5182295501490375  1.0000
  C   C9        1.0  0.2750468376600614  0.61188918094777  0.7801770724245978  1.0000
  C   C10       1.0  0.3490061121251034  0.5921665758581379  0.8424548993717897  1.0000
  C   C11       1.0  0.4068957698992644  0.547484700567018  0.7594305521042286  1.0000
  C   C12       1.0  0.4370285807562939  0.36720889747399643  0.4249225625839539  1.0000
  C   C13       1.0  0.49491790308633987  0.3224325971127236  0.34195356129099475  1.0000
  C   C14       1.0  0.5690646353395048  0.3837400702414393  0.3568368524489558  1.0000
  H   H1        1.0  0.5408417220197453  0.6193648381942618  0.6128959260817395  1.0000
  H   H2        1.0  0.30361337188983284  0.5247229849670378  0.43728501815139276  1.0000
  H   H3        1.0  0.23067798842802434  0.6465682001610132  0.8456999813671949  1.0000
  H   H4        1.0  0.3614767177142976  0.6111747843991095  0.9554617779169543  1.0000
  H   H5        1.0  0.46354256273742034  0.5311274128382876  0.8105669519034313  1.0000
  H   H6        1.0  0.380227200525837  0.31678460083011895  0.412846762329693  1.0000
  H   H7        1.0  0.4822999710614871  0.2397173721122017  0.2662088274990091  1.0000
  H   H8        1.0  0.6134312860713702  0.3480983069341684  0.2918770535362918  1.0000
  C   C15       1.0  0.92014568948518  0.19108276036637473  0.49810754360053605  1.0000
  C   C16       1.0  0.8899860707303193  0.2543787041095604  0.6147888185896881  1.0000
  C   C17       1.0  0.8668677194095554  0.16980343238084664  0.7356342483171976  1.0000
  C   C18       1.0  0.8731637719794592  0.019405801550690608  0.7438677496837847  1.0000
  C   C19       1.0  0.9020601810099647  0.9545920437522649  0.625960687952462  1.0000
  C   C20       1.0  0.9245141508438902  0.038283313481151986  0.5022011584588191  1.0000
  C   C21       1.0  0.8473750362335482  0.9353087406731306  0.8800413340974373  1.0000
  C   C22       1.0  0.8085039301676804  0.7872292015090592  0.8621511793883256  1.0000
  C   C23       1.0  0.8898647347404247  0.7990025075371703  0.9305594130611555  1.0000
  H   H9        1.0  0.936061859134367  0.48935356833071797  0.26326252972774916  1.0000
  H   H10       1.0  0.885934386380741  0.37070198453093833  0.6142819394495282  1.0000
  H   H11       1.0  0.8445580528367505  0.22266890765587607  0.8242086139569984  1.0000
  H   H12       1.0  0.9057292253197808  0.8383789887764653  0.6276331842522063  1.0000
  H   H13       1.0  0.9427431100764041  0.9603662377872147  0.1507834624398421  1.0000
  H   H14       1.0  0.8260770113442141  0.9949012923139222  0.96889540640271  1.0000
  H   H15       1.0  0.8044139909869295  0.7471576344603464  0.7518515890766126  1.0000
  H   H16       1.0  0.7644079319947166  0.7567569159265252  0.9413318172210587  1.0000
  H   H17       1.0  0.935174158578087  0.7659534718696195  0.8618972244234671  1.0000
  H   H18       1.0  0.8933183286517971  0.7754051124764714  0.04974025009660665  1.0000
  C   C24       1.0  0.9202865115076599  0.6122438711607046  0.07651518220417386  1.0000
  C   C25       1.0  0.9523533563543494  0.49585480731234033  0.161637278222855  1.0000
  C   C26       1.0  0.991193484203758  0.38837575352268705  0.0987850973899822  1.0000
  C   C27       1.0  0.9956045171532493  0.3952327808910389  0.9480651836461197  1.0000
  C   C28       1.0  0.9630671802966182  0.5085962114132123  0.8619189179896138  1.0000
  C   C29       1.0  0.924373320653393  0.6171222389510196  0.9237934801437891  1.0000
  C   C30       1.0  0.02339277691820696  0.2624555110517426  0.19150262279801722  1.0000
  F   F1        1.0  0.04946415592507171  0.3056469614392068  0.3262881459530127  1.0000
  F   F2        1.0  0.08428291808317301  0.20578657155855784  0.1276567105918167  1.0000
  F   F3        1.0  0.9664925664474702  0.15586202613764444  0.20891358688483797  1.0000
  H   H19       1.0  0.8733923974785005  0.9533642128340469  0.1499711325527107  1.0000
  H   H20       1.0  0.02354439100864325  0.31188430285716295  0.8963270615397169  1.0000
  H   H21       1.0  0.9663594138928753  0.5092187171231267  0.7455655467733409  1.0000
  H   H22       1.0  0.7878535298060675  0.8536765062579006  0.7911558522466366  1.0000
  Zn  Zn1       1.0  0.8382059691310335  0.6105641047625623  0.4925103615937636  1.0000
  Zn  Zn2       1.0  0.006446487242907976  0.6188009248258306  0.507796986426198  1.0000
  C   C31       1.0  0.9235694660405078  0.6104533527852298  0.7636118325177378  1.0000
  C   C32       1.0  0.921084837582635  0.6189135876622505  0.23669583282084128  1.0000
  C   C33       1.0  0.9236567167953522  0.878111092809201  0.4956782248635905  1.0000
  C   C34       1.0  0.9209975208535933  0.3512541121631272  0.5046295037974311  1.0000
  O   O1        1.0  0.9851991304869472  0.6242715425094283  0.29625508648480703  1.0000
  O   O2        1.0  0.9871458259481738  0.6113458631604187  0.7156543528524955  1.0000
  O   O3        1.0  0.9872154285915523  0.8274828397230221  0.4992959980404572  1.0000
  O   O4        1.0  0.9851294699659461  0.40813457283248544  0.512613327962916  1.0000
  O   O5        1.0  0.8595229289957349  0.8212304539466122  0.4876940148328899  1.0000
  O   O6        1.0  0.8594533349142925  0.6050952100498637  0.70405230109833  1.0000
  O   O7        1.0  0.8575066308788587  0.6180208291468132  0.2846513000288611  1.0000
  O   O8        1.0  0.8574369708232196  0.401883849774914  0.5010096496167444  1.0000
