data_image0
_chemical_formula_structural       NC8NH4C10H6C9H6Zn2C4O8
_chemical_formula_sum              "N2 C31 H16 Zn2 O8"
_cell_length_a       13.859017981522156
_cell_length_b       9.275150299802176
_cell_length_c       9.275153671780863
_cell_angle_alpha    85.37735250896073
_cell_angle_beta     89.40939788478961
_cell_angle_gamma    89.4839203727508

_space_group_name_H-M_alt    "P 1"
_space_group_IT_number       1

loop_
  _space_group_symop_operation_xyz
  'x, y, z'

loop_
  _atom_site_type_symbol
  _atom_site_label
  _atom_site_symmetry_multiplicity
  _atom_site_fract_x
  _atom_site_fract_y
  _atom_site_fract_z
  _atom_site_occupancy
  N   N1        1.0  0.9101291367272129  0.5749710349543538  0.4005681021936626  1.0000
  C   C1        1.0  0.8382407276516208  0.5677798451485767  0.3392757746183004  1.0000
  C   C2        1.0  0.7488157586286062  0.5588353184717406  0.2630360924005062  1.0000
  C   C3        1.0  0.7497640467234435  0.5413926154564643  0.11436497437077221  1.0000
  C   C4        1.0  0.6628945175222162  0.532707179403644  0.04032643996620977  1.0000
  C   C5        1.0  0.5748987621677304  0.5413943380644748  0.1143647162242547  1.0000
  C   C6        1.0  0.5735855171775497  0.5588362917723462  0.26303590303291635  1.0000
  C   C7        1.0  0.6606354126208949  0.5675556687137071  0.3373603228371812  1.0000
  C   C8        1.0  0.483000907131322  0.5677807487559825  0.3392755289929957  1.0000
  N   N2        1.0  0.4101802198303495  0.5749713483601799  0.4005680067829134  1.0000
  H   H1        1.0  0.8175044658478946  0.5345287740322432  0.05586445953843966  1.0000
  H   H2        1.0  0.6637679354872648  0.5192337008853054  0.9254843969187032  1.0000
  H   H3        1.0  0.5080481804613849  0.5345318722976169  0.05586402188107154  1.0000
  H   H4        1.0  0.6597602123643749  0.5810563142623704  0.4524358486482256  1.0000
  C   C9        1.0  0.16268850687145608  0.15127183927867205  0.4029819875292936  1.0000
  C   C10       1.0  0.21418490155303976  0.23304531480009438  0.29389341481627007  1.0000
  C   C11       1.0  0.2574446548828724  0.1666030032586241  0.17926110544847118  1.0000
  C   C12       1.0  0.24964914827358392  0.01741755436960491  0.1722408524810522  1.0000
  C   C13       1.0  0.2002637786533359  0.9341985844513073  0.28068138323499436  1.0000
  C   C14       1.0  0.15763004098981193  0.9986594706199965  0.3981666500815029  1.0000
  C   C15       1.0  0.3089700101197599  0.25211224555973044  0.06767833379225041  1.0000
  C   C16       1.0  0.352109719882454  0.32372864738940965  0.9742602969495061  1.0000
  C   C17       1.0  0.4026243199308661  0.40759640605906616  0.864871849968264  1.0000
  C   C18       1.0  0.44575571252326585  0.4792073714712195  0.7714717207065599  1.0000
  H   H5        1.0  0.11535197518990836  0.41418041214904555  0.6319547078853338  1.0000
  H   H6        1.0  0.2188055237465345  0.34949937169036627  0.2961209629351152  1.0000
  H   H7        1.0  0.2826069851121337  0.9650458761499975  0.08353953010263426  1.0000
  H   H8        1.0  0.19735595159859592  0.8181826224058766  0.27445610977693236  1.0000
  H   H9        1.0  0.09256409628776563  0.8690636042133142  0.7407592449002521  1.0000
  H   H10       1.0  0.4836286726366841  0.5420878788256089  0.6894586928557048  1.0000
  C   C19       1.0  0.16308614279578904  0.5738813070420423  0.9771508538916991  1.0000
  C   C20       1.0  0.18769444264539129  0.7013939922342689  0.040169953470744695  1.0000
  C   C21       1.0  0.20327941715141296  0.8302647495087349  0.9544452397123148  1.0000
  C   C22       1.0  0.19434692474995652  0.8332279379632797  0.8044878832219542  1.0000
  C   C23       1.0  0.17159353913108813  0.7073245708773658  0.7398412353597839  1.0000
  C   C24       1.0  0.1572324617985792  0.576050008429818  0.8239978081946567  1.0000
  C   C25       1.0  0.2273632284238991  0.9601509207624497  0.020816213187235373  1.0000
  C   C26       1.0  0.24752855310006705  0.06889376776827306  0.07640995794241845  1.0000
  C   C27       1.0  0.29130256931397547  0.30494890831152865  0.1971070539890243  1.0000
  H   H11       1.0  0.16894168378819896  0.334907072924963  0.2770452979676927  1.0000
  H   H12       1.0  0.19256113895158267  0.7014670465179038  0.15678492966741353  1.0000
  H   H13       1.0  0.20591786481690155  0.9327031229272759  0.7372159321176706  1.0000
  H   H14       1.0  0.1674636003248453  0.7118421124301075  0.622983888140956  1.0000
  H   H15       1.0  0.17144557899864243  0.2212112580207355  0.749515381561586  1.0000
  H   H16       1.0  0.3090059491013868  0.4004157875877153  0.24592100497568217  1.0000
  Zn  Zn1       1.0  0.05443304907454973  0.5749672938261743  0.40057641937924515  1.0000
  Zn  Zn2       1.0  0.2658762989107473  0.5749633474873682  0.4005715540693868  1.0000
  C   C28       1.0  0.15837106918816526  0.5698921580703451  0.6639582393621861  1.0000
  C   C29       1.0  0.16194057590521305  0.5800403040624902  0.1371898652107022  1.0000
  C   C30       1.0  0.15862097391648433  0.8384704775779086  0.3933309957355189  1.0000
  C   C31       1.0  0.16169060884269015  0.31146025126307114  0.4078171955634688  1.0000
  O   O1        1.0  0.24179776213431325  0.5820995274940919  0.19089860879366777  1.0000
  O   O2        1.0  0.23899442648764274  0.5678288499280568  0.610245394235897  1.0000
  O   O3        1.0  0.23919513565730277  0.7847092434266334  0.3917119717743829  1.0000
  O   O4        1.0  0.241596981499094  0.3652191440413933  0.4094319230857638  1.0000
  O   O5        1.0  0.07871229433104254  0.7847114972750473  0.3917160503569358  1.0000
  O   O6        1.0  0.07851157534042552  0.5678328370712238  0.6102493860864175  1.0000
  O   O7        1.0  0.08131492333453405  0.582103459918464  0.1909008673494792  1.0000
  O   O8        1.0  0.08111414200971323  0.3652230664227857  0.40943428980506136  1.0000
