data_image0
_chemical_formula_structural       NC12NC2H8C12ClH9C16H10Zn2C4O8
_chemical_formula_sum              "N2 C46 H27 Cl1 Zn2 O8"
_cell_length_a       19.240039667572717
_cell_length_b       10.299768534541528
_cell_length_c       10.299151387937775
_cell_angle_alpha    85.58714147101236
_cell_angle_beta     89.98856263563694
_cell_angle_gamma    90.01670575511149

_space_group_name_H-M_alt    "P 1"
_space_group_IT_number       1

loop_
  _space_group_symop_operation_xyz
  'x, y, z'

loop_
  _atom_site_type_symbol
  _atom_site_label
  _atom_site_symmetry_multiplicity
  _atom_site_fract_x
  _atom_site_fract_y
  _atom_site_fract_z
  _atom_site_occupancy
  N   N1        1.0  0.6548519305327842  0.4206392149463185  0.567527126306403  1.0000
  C   C1        1.0  0.5947035617373604  0.42063929889123974  0.5675270443740013  1.0000
  C   C2        1.0  0.5198855246291654  0.4206394161162918  0.5675269070755473  1.0000
  C   C3        1.0  0.4833907063871106  0.3562195336802948  0.6709355897535243  1.0000
  C   C4        1.0  0.41071993173916654  0.3561086909853572  0.6710221258124986  1.0000
  C   C5        1.0  0.3735532897305942  0.4206395085819678  0.5675266793982461  1.0000
  C   C6        1.0  0.4107623261176468  0.48517051324726834  0.46403142753676563  1.0000
  C   C7        1.0  0.4834329879835877  0.48505943510823957  0.46411808608281846  1.0000
  C   C8        1.0  0.29634819928887834  0.42063942988028824  0.5675265839774966  1.0000
  C   C9        1.0  0.259138241508821  0.3073978936042663  0.6093905613657873  1.0000
  C   C10       1.0  0.18646757956166687  0.3075047532484263  0.6092992420534735  1.0000
  C   C11       1.0  0.15001591233901584  0.42063930073505257  0.5675266448801413  1.0000
  C   C12       1.0  0.07519787513975759  0.42063918710088366  0.567526893535143  1.0000
  N   N2        1.0  0.0150495582590309  0.42063914636788446  0.5675271019529782  1.0000
  C   C13       1.0  0.18651175599046077  0.53377392402566  0.5257539948204579  1.0000
  C   C14       1.0  0.259182478690797  0.5338809637186435  0.5256625129238595  1.0000
  H   H1        1.0  0.5110891605564052  0.30634455239302816  0.7516741774613322  1.0000
  H   H2        1.0  0.3836102186286188  0.3070322690138205  0.7528762747381195  1.0000
  H   H3        1.0  0.3836855084497182  0.5342469622489774  0.38217722776413576  1.0000
  H   H4        1.0  0.5111643052322757  0.5349343162532469  0.3833797741655869  1.0000
  H   H5        1.0  0.2862142727450079  0.218256873610138  0.6405528382208774  1.0000
  H   H6        1.0  0.15873552367849145  0.21926335084385729  0.6414945458989796  1.0000
  H   H7        1.0  0.15881398842046274  0.6220153018999084  0.49355870552394654  1.0000
  H   H8        1.0  0.2862929262889587  0.6230220628692407  0.4945001913018936  1.0000
  C   C15       1.0  0.83488852975792  0.03927379677571263  0.5675249752589324  1.0000
  C   C16       1.0  0.8394805487674867  0.0487803088421186  0.431055630233857  1.0000
  C   C17       1.0  0.8418741778837959  0.9364579700928752  0.3619129166421071  1.0000
  C   C18       1.0  0.8396132908557233  0.8134925980909221  0.43107112021353955  1.0000
  C   C19       1.0  0.8350196368174361  0.8019945569602956  0.5675404031890086  1.0000
  C   C20       1.0  0.8326834928272251  0.9154419390871946  0.6350031018014741  1.0000
  C   C21       1.0  0.8467330753  0.9475687351659748  0.21753972624604279  1.0000
  C   C22       1.0  0.807200975060715  0.04107652434643683  0.14307570195653097  1.0000
  C   C23       1.0  0.8118362329656792  0.05133850162106701  0.00719553702619513  1.0000
  C   C24       1.0  0.8559366520275252  0.9686140907605978  0.9440875333927932  1.0000
  C   C25       1.0  0.8954575225283405  0.8754178906064154  0.017040332538331704  1.0000
  C   C26       1.0  0.8909456890026194  0.8647636684252678  0.1529351407550359  1.0000
  Cl  Cl1       1.0  0.8616748307759112  0.9817353084179613  0.7736020126551306  1.0000
  H   H9        1.0  0.8331030833452324  0.36310509660339285  0.619523260470427  1.0000
  H   H10       1.0  0.8421657371799139  0.1437698072370015  0.37832287873087855  1.0000
  H   H11       1.0  0.8404847023284386  0.7266358486158759  0.37812481309812496  1.0000
  H   H12       1.0  0.8291402576545914  0.9073399139232268  0.7402829194189537  1.0000
  H   H13       1.0  0.8332969121590422  0.4701595213171808  0.619546489395222  1.0000
  H   H14       1.0  0.7720547377950371  0.10507272145028869  0.18981931796580254  1.0000
  H   H15       1.0  0.7809835239863941  0.12342808898848003  0.9510836112930559  1.0000
  H   H16       1.0  0.9298288257802493  0.8113743458026152  0.968607233524204  1.0000
  H   H17       1.0  0.922680508120567  0.7929667419365667  0.20755275660083397  1.0000
  C   C27       1.0  0.8349943312383562  0.4204654517167148  0.18616173033665784  1.0000
  C   C28       1.0  0.7679438829172229  0.4744179458649398  0.181254369228667  1.0000
  C   C29       1.0  0.733906496081162  0.501946914632142  0.06161028412611236  1.0000
  C   C30       1.0  0.7678230412303478  0.47479553616305525  0.945942042691128  1.0000
  C   C31       1.0  0.8349138183832646  0.42080289807552873  0.9489037138199078  1.0000
  C   C32       1.0  0.8680871188672993  0.39397219179796994  0.06944015905661183  1.0000
  C   C33       1.0  0.662975242238162  0.5590224303010254  0.057464297979113795  1.0000
  C   C34       1.0  0.6453388151221633  0.6588337169378087  0.9621615464491958  1.0000
  C   C35       1.0  0.5785668574152992  0.7125139804397564  0.9583876153591269  1.0000
  C   C36       1.0  0.5285554141838594  0.6671914007224504  0.049614710689343866  1.0000
  C   C37       1.0  0.5455620209737404  0.5679384472120597  0.1447553808085933  1.0000
  C   C38       1.0  0.6123140237907349  0.5141705917890029  0.14877887507654952  1.0000
  C   C39       1.0  0.4598232685754071  0.7225013721860545  0.04560144736570382  1.0000
  C   C40       1.0  0.4022610664736687  0.7688226372034292  0.04224031084480795  1.0000
  C   C41       1.0  0.33485632638550356  0.8230644237032646  0.03830445347585499  1.0000
  C   C42       1.0  0.2773034264895153  0.8693784408410496  0.034943966642828395  1.0000
  H   H18       1.0  0.8607700158349934  0.39965044722420107  0.5155297543873694  1.0000
  H   H19       1.0  0.7424103306547937  0.4968120934952461  0.27055868262510296  1.0000
  H   H20       1.0  0.7414537606578318  0.49417434320405906  0.8535695463366363  1.0000
  H   H21       1.0  0.9198040111772546  0.3523536926972708  0.07250985846780678  1.0000
  H   H22       1.0  0.9613693954537451  0.31813629485271666  0.7472595763885095  1.0000
  H   H23       1.0  0.6834477630114373  0.6965353232249742  0.8916158937141984  1.0000
  H   H24       1.0  0.5660107946940721  0.789562387185204  0.8845367470407846  1.0000
  H   H25       1.0  0.5071837628470968  0.5318780207719933  0.2156324751874912  1.0000
  H   H26       1.0  0.6240485992227948  0.4363605564475974  0.22223671081341112  1.0000
  H   H27       1.0  0.22676722856630227  0.9100459093766785  0.031993189125151034  1.0000
  Zn  Zn1       1.0  0.758797192982752  0.42063573129937115  0.5675346076746224  1.0000
  Zn  Zn2       1.0  0.9111043116406408  0.42063204132222975  0.5675302193271154  1.0000
  C   C43       1.0  0.8349266041612675  0.41556552128239516  0.804729025161569  1.0000
  C   C44       1.0  0.8349765639193225  0.42570388995976494  0.3303359292926322  1.0000
  C   C45       1.0  0.8349918177317472  0.6578218432451526  0.56236232425088  1.0000
  C   C46       1.0  0.8349112981015713  0.18344600774073114  0.5727026994121704  1.0000
  O   O1        1.0  0.8927703578463527  0.42745489167166095  0.3787204420398793  1.0000
  O   O2        1.0  0.8927303890198015  0.4138107390843546  0.7563408078921674  1.0000
  O   O3        1.0  0.8927822704917947  0.6094357834350173  0.5606279821720115  1.0000
  O   O4        1.0  0.8927184244141312  0.23182985656930824  0.5744331703865255  1.0000
  O   O5        1.0  0.777183028234318  0.6094379160549628  0.5606316566098783  1.0000
  O   O6        1.0  0.7771311470346522  0.4138144319632468  0.7563444131158521  1.0000
  O   O7        1.0  0.7771711160644483  0.42745853860412025  0.37872248585349677  1.0000
  O   O8        1.0  0.7771191826175113  0.23183349425612795  0.574435311568319  1.0000
