data_image0
_chemical_formula_structural       NC9NC5H8C6NCH9C7F3H5Zn2C4O8
_chemical_formula_sum              "N3 C32 H22 F3 Zn2 O8"
_cell_length_a       17.807436237873137
_cell_length_b       9.273386996610926
_cell_length_c       9.272291681409872
_cell_angle_alpha    85.970276704532
_cell_angle_beta     89.81650948764641
_cell_angle_gamma    87.7895077601149

_space_group_name_H-M_alt    "P 1"
_space_group_IT_number       1

loop_
  _space_group_symop_operation_xyz
  'x, y, z'

loop_
  _atom_site_type_symbol
  _atom_site_label
  _atom_site_symmetry_multiplicity
  _atom_site_fract_x
  _atom_site_fract_y
  _atom_site_fract_z
  _atom_site_occupancy
  N   N1        1.0  0.6930863042239924  0.5283565583019911  0.3959564964944364  1.0000
  C   C1        1.0  0.6326671092678564  0.4891498767792879  0.3837809656561346  1.0000
  C   C2        1.0  0.5575122712672274  0.4403810824688912  0.36863592720350913  1.0000
  C   C3        1.0  0.5394242143957754  0.3600299762003256  0.2522043553973705  1.0000
  C   C4        1.0  0.4664530767023605  0.312554557162088  0.23740797271235278  1.0000
  C   C5        1.0  0.4105234346554215  0.34501043336778586  0.3390077974582064  1.0000
  C   C6        1.0  0.332973564953207  0.2946847618383059  0.32337397914548927  1.0000
  C   C7        1.0  0.270407459560299  0.38577660970685357  0.3520244185510468  1.0000
  C   C8        1.0  0.1972953046582328  0.33807570872950854  0.3372435760705443  1.0000
  C   C9        1.0  0.1336642733005761  0.4321615837436579  0.36629326796703565  1.0000
  N   N2        1.0  0.0825179448484355  0.5078001283902626  0.3896484240112481  1.0000
  C   C10       1.0  0.1861671714486206  0.19899605739368084  0.2937846047948789  1.0000
  C   C11       1.0  0.2478759567034363  0.10788873754552995  0.2651248767337695  1.0000
  C   C12       1.0  0.3208702437950927  0.1551493111807436  0.2796815835738775  1.0000
  C   C13       1.0  0.4293007946059028  0.4259129491871888  0.4556818587052165  1.0000
  C   C14       1.0  0.5023253213965413  0.473175329243863  0.4703057965634186  1.0000
  H   H1        1.0  0.5816619612700267  0.33436451592955985  0.1726404235930732  1.0000
  H   H2        1.0  0.4535267136125513  0.25211725471966795  0.14545754936046928  1.0000
  H   H3        1.0  0.2784319082493669  0.49435151592184123  0.38390887119201844  1.0000
  H   H4        1.0  0.12986523994663565  0.1610753957261455  0.2820833090925845  1.0000
  H   H5        1.0  0.23914327441267788  0.00021372031110455865  0.2319065057439327  1.0000
  H   H6        1.0  0.3678319139821401  0.08191408930214639  0.2586519109532015  1.0000
  H   H7        1.0  0.3877884972777511  0.4509917101775107  0.5366836583361365  1.0000
  H   H8        1.0  0.5157683657200772  0.5349590389473396  0.5610978587991537  1.0000
  C   C15       1.0  0.8901190814113565  0.09430826776164049  0.39347338745570526  1.0000
  C   C16       1.0  0.9028325654188246  0.17597256236573866  0.2629155285396889  1.0000
  C   C17       1.0  0.9084707847311726  0.11003177021085887  0.13246421715187928  1.0000
  C   C18       1.0  0.9014757909559908  0.9600711158598993  0.12923646250577092  1.0000
  C   C19       1.0  0.890084873782473  0.8773701334950634  0.2593200850657522  1.0000
  C   C20       1.0  0.8854924354948486  0.941837060498118  0.3921439768303625  1.0000
  N   N3        1.0  0.9064688483147884  0.8891044119989944  0.9961041906674387  1.0000
  C   C21       1.0  0.9184680569919184  0.96513692535321  0.8552251951047145  1.0000
  H   H9        1.0  0.9063441465737343  0.3576668956502646  0.6298984723440686  1.0000
  H   H10       1.0  0.9066587570486949  0.2924010164350237  0.2610848343364429  1.0000
  H   H11       1.0  0.9175859991118047  0.17729614994627996  0.034389739311774026  1.0000
  H   H12       1.0  0.8865296420122326  0.7611368353394468  0.2571033772618665  1.0000
  H   H13       1.0  0.9144550393231125  0.812017756412624  0.7428104113207594  1.0000
  H   H14       1.0  0.9011672985811365  0.7770432850008623  0.9991795836029147  1.0000
  H   H15       1.0  0.8717918097101837  0.04595521737287789  0.8309327123020172  1.0000
  H   H16       1.0  0.9728582385709396  0.01981968855165262  0.8545768177652263  1.0000
  H   H17       1.0  0.9200475763394358  0.8868703989840517  0.7698516463669449  1.0000
  C   C22       1.0  0.8862443291910403  0.5144519070239342  0.9694793884082723  1.0000
  C   C23       1.0  0.9372774615871587  0.4209637648394864  0.04902262034125204  1.0000
  C   C24       1.0  0.9923232424468995  0.3401910063885989  0.9794630333379652  1.0000
  C   C25       1.0  0.9985240145145826  0.3524411896273838  0.82844940591333  1.0000
  C   C26       1.0  0.9460197146346394  0.44122756227561005  0.7477677284762847  1.0000
  C   C27       1.0  0.8893671910535298  0.521693477394014  0.8161379086397043  1.0000
  C   C28       1.0  0.05669095238414102  0.2619994468417777  0.7530667042937709  1.0000
  F   F1        1.0  0.11974266795338329  0.23431211645276817  0.8390049099276653  1.0000
  F   F2        1.0  0.07878782842176935  0.3330292286422154  0.6245166849457497  1.0000
  F   F3        1.0  0.026449414050944146  0.1321322328816701  0.7238154026147634  1.0000
  H   H18       1.0  0.7788346058328042  0.8116450303201226  0.05082664785790625  1.0000
  H   H19       1.0  0.9355901689427296  0.41243975274690836  0.1661109149040232  1.0000
  H   H20       1.0  0.030555276080750815  0.26891264374744916  0.04417189087613283  1.0000
  H   H21       1.0  0.9481411111332584  0.4449637096251485  0.6307391945773557  1.0000
  H   H22       1.0  0.7183207349789151  0.6689242990900948  0.705337130917234  1.0000
  Zn  Zn1       1.0  0.8054679141003014  0.5224206374206195  0.39414446624986477  1.0000
  Zn  Zn2       1.0  0.9701364247028125  0.51372438747967  0.3914723240207587  1.0000
  C   C29       1.0  0.8888066186170144  0.5145758277541147  0.6561103949032991  1.0000
  C   C30       1.0  0.8867995089432985  0.5215709241967785  0.12950650482252057  1.0000
  C   C31       1.0  0.8863419260531354  0.7815871616459713  0.38665072961504965  1.0000
  C   C32       1.0  0.8892641550654463  0.25455786015088355  0.3989662505988585  1.0000
  O   O1        1.0  0.9494767083041015  0.5206536541962192  0.1821990127823674  1.0000
  O   O2        1.0  0.9511090130458063  0.5088917530684972  0.6013893795496958  1.0000
  O   O3        1.0  0.9491179057526044  0.7245068393140857  0.3837988046741849  1.0000
  O   O4        1.0  0.951467758952061  0.30503858031670417  0.3997894804651272  1.0000
  O   O5        1.0  0.8241365236577352  0.7311064475526952  0.3858273107097816  1.0000
  O   O6        1.0  0.8261276211993507  0.5154930944302545  0.6034178060014903  1.0000
  O   O7        1.0  0.8244953103893055  0.5272549304436236  0.18422570611741373  1.0000
  O   O8        1.0  0.82648636148919  0.3116398471671442  0.4018162818972111  1.0000
