data_image0
_chemical_formula_structural       NC8NH4C7NH5C6SCH7Zn2C4O8
_chemical_formula_sum              "N3 C26 H16 S1 Zn2 O8"
_cell_length_a       13.859017981522156
_cell_length_b       9.275154477615127
_cell_length_c       9.275274088470228
_cell_angle_alpha    86.32665131531041
_cell_angle_beta     89.72577744646335
_cell_angle_gamma    89.43373755438122

_space_group_name_H-M_alt    "P 1"
_space_group_IT_number       1

loop_
  _space_group_symop_operation_xyz
  'x, y, z'

loop_
  _atom_site_type_symbol
  _atom_site_label
  _atom_site_symmetry_multiplicity
  _atom_site_fract_x
  _atom_site_fract_y
  _atom_site_fract_z
  _atom_site_occupancy
  N   N1        1.0  0.9033243722561772  0.5628564989127833  0.4165708450799963  1.0000
  C   C1        1.0  0.8312165783870723  0.5552453053277393  0.3552412699398162  1.0000
  C   C2        1.0  0.7415187229882976  0.5457783483386294  0.2789552602367409  1.0000
  C   C3        1.0  0.7419348695399803  0.5273168808884419  0.1301937971263456  1.0000
  C   C4        1.0  0.6548003320594793  0.5181240972714494  0.05611028095721426  1.0000
  C   C5        1.0  0.5670695829863525  0.5273186005794064  0.13019355570396307  1.0000
  C   C6        1.0  0.5662884802495216  0.5457793196895586  0.27895508034127103  1.0000
  C   C7        1.0  0.6536044070026945  0.5550080029545714  0.3533246594868569  1.0000
  C   C8        1.0  0.4759767564163442  0.5552462066412882  0.35524103314483857  1.0000
  N   N2        1.0  0.4033754548189395  0.5628568114522052  0.41657075273728106  1.0000
  H   H1        1.0  0.8094658967844113  0.5200521666291336  0.0716577293579328  1.0000
  H   H2        1.0  0.6552626934156496  0.5038636668832408  0.9411984527176043  1.0000
  H   H3        1.0  0.500009607901749  0.5200552598325516  0.07165732176651307  1.0000
  H   H4        1.0  0.6531410992031708  0.5692972004549339  0.46847011019614637  1.0000
  C   C9        1.0  0.15615213879047096  0.13945154275804983  0.41490309436102657  1.0000
  C   C10       1.0  0.13008194097566061  0.22142431366696913  0.287835250897605  1.0000
  C   C11       1.0  0.0961414487651373  0.15424346878228223  0.16749838236079384  1.0000
  C   C12       1.0  0.0877104670940958  0.004173383296911972  0.17281212975925708  1.0000
  C   C13       1.0  0.11468440592727114  0.9209654414186165  0.29698356262847425  1.0000
  C   C14       1.0  0.15055696711680744  0.986250839340238  0.4182509578425664  1.0000
  C   C15       1.0  0.06879255297289279  0.23978351211636584  0.03889904022077318  1.0000
  N   N3        1.0  0.0468116357786661  0.30854211363598893  0.935538109565341  1.0000
  H   H5        1.0  0.17370620317053875  0.21948092201378594  0.768658030743048  1.0000
  H   H6        1.0  0.13403643050829772  0.3383431219952282  0.2835591183010271  1.0000
  H   H7        1.0  0.061110934906940084  0.9511687857522655  0.08032568863387679  1.0000
  H   H8        1.0  0.10961811097002831  0.8044966378475763  0.29685673279202907  1.0000
  H   H9        1.0  0.16647497747436413  0.6897307678887604  0.6552768268459834  1.0000
  C   C16       1.0  0.15473606497517683  0.5588334933007053  0.9933642061263028  1.0000
  C   C17       1.0  0.23656985617463372  0.609584914850182  0.06291317887076087  1.0000
  C   C18       1.0  0.31296860680701216  0.6718233964849157  0.9830951577435618  1.0000
  C   C19       1.0  0.3088140930055776  0.6834487380392749  0.8325809933963053  1.0000
  C   C20       1.0  0.22904938509948836  0.6316059158871401  0.7615247933485304  1.0000
  C   C21       1.0  0.15197303993335343  0.56686889191356  0.8397897985684604  1.0000
  S   S1        1.0  0.4161665712088083  0.7371956291192943  0.07404193826453853  1.0000
  C   C22       1.0  0.36537882950664025  0.9176663791554616  0.08648760463466632  1.0000
  H   H10       1.0  0.92147408049003  0.4995074006026124  0.10183441930651416  1.0000
  H   H11       1.0  0.3677845434944822  0.731758262324653  0.7702741000801581  1.0000
  H   H12       1.0  0.2287165054115335  0.6390760636386548  0.6444948631827958  1.0000
  H   H13       1.0  0.9961163289112096  0.5210438539681794  0.5626938602565001  1.0000
  H   H14       1.0  0.351252976812898  0.9680534450354223  0.9767247214479201  1.0000
  H   H15       1.0  0.29719955289117556  0.9122501955703364  0.1498317729232579  1.0000
  H   H16       1.0  0.4176463159587158  0.9849405752196335  0.14175288270829411  1.0000
  Zn  Zn1       1.0  0.047628317263253894  0.5628528178673524  0.41657912189402735  1.0000
  Zn  Zn2       1.0  0.2590715517529898  0.5628488404000405  0.4165742211201193  1.0000
  C   C23       1.0  0.1525311063541786  0.5596060617738488  0.6797745314122619  1.0000
  C   C24       1.0  0.1541710591333674  0.5660974170288444  0.1533789601928135  1.0000
  C   C25       1.0  0.1516283502134035  0.82613320744568  0.41187511210470307  1.0000
  C   C26       1.0  0.1550737543185088  0.29956853980137543  0.42127844948896076  1.0000
  O   O1        1.0  0.23422308511707288  0.5685274565147558  0.20707948872372928  1.0000
  O   O2        1.0  0.23295961142602847  0.5571719118317549  0.6260698641425717  1.0000
  O   O3        1.0  0.23222953783844447  0.7723959669040457  0.4097391935710286  1.0000
  O   O4        1.0  0.23495308683799387  0.3533034107322228  0.42341005127908327  1.0000
  O   O5        1.0  0.07174671002306532  0.7723982475380253  0.409743291729161  1.0000
  O   O6        1.0  0.07247677241109862  0.5571759240242267  0.6260738923062132  1.0000
  O   O7        1.0  0.07374025215450009  0.5685314020137278  0.20708178397080812  1.0000
  O   O8        1.0  0.07447025358689907  0.35330734694429156  0.42341245453644905  1.0000
