data_image0
_chemical_formula_structural       NC10NC3NCH9C12NCOCH13C15H11Zn2C4O8
_chemical_formula_sum              "N4 C47 H33 O9 Zn2"
_cell_length_a       19.437513618241372
_cell_length_b       10.299155265289647
_cell_length_c       10.299157797200026
_cell_angle_alpha    85.52785804654131
_cell_angle_beta     90.36969697792763
_cell_angle_gamma    89.50051482239499

_space_group_name_H-M_alt    "P 1"
_space_group_IT_number       1

loop_
  _space_group_symop_operation_xyz
  'x, y, z'

loop_
  _atom_site_type_symbol
  _atom_site_label
  _atom_site_symmetry_multiplicity
  _atom_site_fract_x
  _atom_site_fract_y
  _atom_site_fract_z
  _atom_site_occupancy
  N   N1        1.0  0.6472624445075894  0.4110004342081226  0.5752418605197998  1.0000
  C   C1        1.0  0.5883249551718231  0.4280127035321961  0.5722620940130196  1.0000
  C   C2        1.0  0.5148792996354922  0.44926796795706686  0.5685633935250733  1.0000
  C   C3        1.0  0.4731342621170776  0.34807499267737896  0.5569245628475146  1.0000
  C   C4        1.0  0.39724047738594187  0.3581429932227353  0.5497006445423305  1.0000
  C   C5        1.0  0.3576664727598244  0.43897409509101665  0.6154304194018956  1.0000
  C   C6        1.0  0.28148385192125996  0.43036820322822905  0.6069875805789553  1.0000
  C   C7        1.0  0.2483735080772545  0.30901341450402625  0.6116566795922624  1.0000
  C   C8        1.0  0.1766382950108809  0.302643739488794  0.6044894980392401  1.0000
  C   C9        1.0  0.1370429858709772  0.4171560068871638  0.5930155713967484  1.0000
  C   C10       1.0  0.06319332471336869  0.4104481877954038  0.5856803585710357  1.0000
  N   N2        1.0  0.003823295169861802  0.4050556911897931  0.5797833057704558  1.0000
  C   C11       1.0  0.1694369850472567  0.5381999372922566  0.5890918612091605  1.0000
  C   C12       1.0  0.24115656793642196  0.5448235991235755  0.5963210149410569  1.0000
  C   C13       1.0  0.3863548841071055  0.5312331686953999  0.7053367753580093  1.0000
  N   N3        1.0  0.443322295035056  0.594457440049877  0.6849180333146461  1.0000
  C   C14       1.0  0.4871356274638388  0.5852365869238669  0.5718051959410335  1.0000
  H   H1        1.0  0.4955337926515504  0.25301658314477415  0.5448224976677103  1.0000
  H   H2        1.0  0.3725248665205814  0.2886471127761694  0.49139335116635724  1.0000
  H   H3        1.0  0.2778443353250011  0.21909138019246988  0.622697064231647  1.0000
  H   H4        1.0  0.1520642259396539  0.2084095828985597  0.6083966556993363  1.0000
  H   H5        1.0  0.1392816016268731  0.6274661789612586  0.580363909037849  1.0000
  H   H6        1.0  0.26524903025067886  0.6394705893508841  0.5923983100331274  1.0000
  H   H7        1.0  0.3563694855293555  0.5515895077246744  0.7897045385065092  1.0000
  H   H8        1.0  0.5298759273652571  0.6555517723036051  0.5775542350141603  1.0000
  H   H9        1.0  0.4574395759841347  0.6133802139739919  0.4811479528335094  1.0000
  C   C15       1.0  0.8256230358525257  0.026629178390698675  0.5776323350222963  1.0000
  C   C16       1.0  0.8138421951350783  0.03657598355570091  0.44254958399911226  1.0000
  C   C17       1.0  0.8078024029963587  0.9244826953527887  0.3739412041452619  1.0000
  C   C18       1.0  0.8136776252393229  0.8013190725258442  0.4422396859351944  1.0000
  C   C19       1.0  0.8254693254567421  0.7894168220774017  0.577404170383818  1.0000
  C   C20       1.0  0.8313724975443844  0.9025905814736178  0.6442684048558049  1.0000
  C   C21       1.0  0.7953405453503168  0.9359788693160823  0.23103997553535227  1.0000
  C   C22       1.0  0.8302154014856852  0.0295386706071552  0.15006204279487712  1.0000
  C   C23       1.0  0.818493633498872  0.040226356098189704  0.015582536672704709  1.0000
  C   C24       1.0  0.7720903964133381  0.9566784740644447  0.9592378377136725  1.0000
  C   C25       1.0  0.7363751290776713  0.8649489955873728  0.04013690296957528  1.0000
  C   C26       1.0  0.7481219475586465  0.8540048869345538  0.17457939061294914  1.0000
  N   N4        1.0  0.7581538770282277  0.9672030988260999  0.8214916140443383  1.0000
  C   C27       1.0  0.8083695176146669  0.0033389913726602463  0.7239080089035053  1.0000
  O   O1        1.0  0.8714923132979413  0.004810501696839176  0.7525719649731059  1.0000
  C   C28       1.0  0.7863917514383213  0.030203792108140833  0.5850804774700946  1.0000
  H   H10       1.0  0.8301758055781914  0.35027904462849646  0.6295855165374764  1.0000
  H   H11       1.0  0.8083879822309822  0.1317313197322918  0.39066759175390775  1.0000
  H   H12       1.0  0.8099656162435827  0.7146014881889458  0.38956102729995745  1.0000
  H   H13       1.0  0.8404616222150619  0.8942034992340567  0.7484601376446245  1.0000
  H   H14       1.0  0.8481374911498467  0.5596618103216434  0.8323944857441901  1.0000
  H   H15       1.0  0.8669622135122463  0.09395943304659582  0.19062463514687278  1.0000
  H   H16       1.0  0.8448752839491347  0.11526433888860721  0.9563348057825894  1.0000
  H   H17       1.0  0.6995621091006139  0.8012337103481341  0.9987063831271756  1.0000
  H   H18       1.0  0.7195297157549762  0.7826197981092403  0.23463195934366474  1.0000
  H   H19       1.0  0.7096889047325103  0.9391541352728592  0.7897991471473434  1.0000
  H   H20       1.0  0.7367268836646453  0.08447916299985582  0.5799940130756717  1.0000
  H   H21       1.0  0.780015807816984  0.9367173118713714  0.5397726813601982  1.0000
  H   H22       1.0  0.8255469259263839  0.08966288386987498  0.5301808199107878  1.0000
  C   C29       1.0  0.8254663780753712  0.40813057188042623  0.1961251855046482  1.0000
  C   C30       1.0  0.7538086468799878  0.39134458477176687  0.19539298058622512  1.0000
  C   C31       1.0  0.7176233984668868  0.38272214521958414  0.0778813180986262  1.0000
  C   C32       1.0  0.7540131097759305  0.3911324284980321  0.960128352081543  1.0000
  C   C33       1.0  0.8256259352462374  0.4079153693007094  0.9589113029382417  1.0000
  C   C34       1.0  0.8609343976032512  0.4163106770088158  0.07743471372080601  1.0000
  C   C35       1.0  0.6418651281634381  0.36498095417991605  0.078153510364807  1.0000
  C   C36       1.0  0.6109250356364996  0.2785113063087176  0.9966781809336265  1.0000
  C   C37       1.0  0.5396333105235637  0.26190915834299955  0.9969665565439865  1.0000
  C   C38       1.0  0.498012035779013  0.3307886723558209  0.07924629476051526  1.0000
  C   C39       1.0  0.5285837562476006  0.41811007199222616  0.15973996620703046  1.0000
  C   C40       1.0  0.5998747868208445  0.4347164302065911  0.15959953123264614  1.0000
  C   C41       1.0  0.42121021523196883  0.31525274838708417  0.07721010576679732  1.0000
  C   C42       1.0  0.3902492481825737  0.4095433627661457  0.979377046577921  1.0000
  C   C43       1.0  0.3648039400153639  0.48707823985873455  0.8989313865010198  1.0000
  H   H23       1.0  0.9607714860609777  0.43901756256814317  0.4048627798025068  1.0000
  H   H24       1.0  0.7261369688070457  0.3831804427424269  0.28658082041468513  1.0000
  H   H25       1.0  0.7262417411175915  0.3863570274599546  0.8691438795886638  1.0000
  H   H26       1.0  0.9161715380038983  0.42925208564691314  0.07721170182465098  1.0000
  H   H27       1.0  0.8531734616581259  0.41432916369304307  0.6309708690537067  1.0000
  H   H28       1.0  0.6419434602766718  0.2226244283877692  0.9337175852358537  1.0000
  H   H29       1.0  0.5168683128084823  0.19512801265582905  0.9331373845470066  1.0000
  H   H30       1.0  0.4971636099234849  0.4736944460668451  0.22235053762783208  1.0000
  H   H31       1.0  0.6220781991802432  0.5036143235797832  0.22177968457630604  1.0000
  H   H32       1.0  0.40749921467451145  0.21523368999745382  0.05361994233446543  1.0000
  H   H33       1.0  0.3993064120124006  0.33106402593423456  0.17414785641851283  1.0000
  Zn  Zn1       1.0  0.7501582116533864  0.4092814181788895  0.576559933992268  1.0000
  Zn  Zn2       1.0  0.9009275386167387  0.406764033824015  0.5784759060379301  1.0000
  C   C44       1.0  0.8255953023075655  0.4027820094277201  0.814729947542196  1.0000
  C   C45       1.0  0.825492094055314  0.41326505379744205  0.3403060403947349  1.0000
  C   C46       1.0  0.8254937368420324  0.6452352119710263  0.5722717662331049  1.0000
  C   C47       1.0  0.8255936084027914  0.17081029166877415  0.5827642907597766  1.0000
  O   O2        1.0  0.8827168995567172  0.4140272324042953  0.389421555505131  1.0000
  O   O3        1.0  0.8828009275258446  0.4001082146500246  0.7670682373052211  1.0000
  O   O4        1.0  0.8827181411090949  0.5958922544403897  0.571281530260533  1.0000
  O   O5        1.0  0.8827996345038637  0.21824320279136322  0.5852081645124118  1.0000
  O   O6        1.0  0.7682860643160883  0.5978022500720168  0.5698276748571269  1.0000
  O   O7        1.0  0.7683688504007202  0.40201977072748885  0.7656143121852049  1.0000
  O   O8        1.0  0.7682848221597934  0.4159387436619731  0.38796606889963137  1.0000
  O   O9        1.0  0.76836755712637  0.22015470473208332  0.5837527752836607  1.0000
