data_image0
_chemical_formula_structural       NC8NC6H8C6SCNH5C8H6Zn2C4O8
_chemical_formula_sum              "N3 C33 H19 S1 Zn2 O8"
_cell_length_a       17.457602349358154
_cell_length_b       10.302215558581764
_cell_length_c       9.275144076552241
_cell_angle_alpha    85.96516146856106
_cell_angle_beta     93.32514331016303
_cell_angle_gamma    91.70712283406877

_space_group_name_H-M_alt    "P 1"
_space_group_IT_number       1

loop_
  _space_group_symop_operation_xyz
  'x, y, z'

loop_
  _atom_site_type_symbol
  _atom_site_label
  _atom_site_symmetry_multiplicity
  _atom_site_fract_x
  _atom_site_fract_y
  _atom_site_fract_z
  _atom_site_occupancy
  N   N1        1.0  0.7162031645222057  0.4426155989577425  0.4751521287989564  1.0000
  C   C1        1.0  0.6550656897252833  0.39662570285589643  0.4633586737374449  1.0000
  C   C2        1.0  0.5790081344368685  0.3394200535126415  0.4486982112781157  1.0000
  C   C3        1.0  0.5208427106340823  0.38010919802097015  0.5318658656976201  1.0000
  C   C4        1.0  0.44622657618380485  0.32502569000417814  0.5178879335424629  1.0000
  C   C5        1.0  0.3844916732820222  0.3679891453998865  0.6059656161095845  1.0000
  C   C6        1.0  0.30968428603188003  0.38605287453734316  0.5440515698603623  1.0000
  C   C7        1.0  0.2515193344330865  0.4265589140244726  0.6273390643767793  1.0000
  C   C8        1.0  0.17526340779664093  0.4452124507084365  0.56296518119393  1.0000
  N   N2        1.0  0.11396655872603029  0.4602035171835617  0.5112087459457744  1.0000
  C   C9        1.0  0.2676720674409746  0.449247953263719  0.7731052676284664  1.0000
  C   C10       1.0  0.3416966665800593  0.43157589427018406  0.8354497345080056  1.0000
  C   C11       1.0  0.3998522198061765  0.3912531478593722  0.7526704924491672  1.0000
  C   C12       1.0  0.4310575808693018  0.2285655073797792  0.4191512212050228  1.0000
  C   C13       1.0  0.4892132391440403  0.1881578428921955  0.33642774615686877  1.0000
  C   C14       1.0  0.5630472382574515  0.2433576438483898  0.35101632661899496  1.0000
  H   H1        1.0  0.5335177749336049  0.4557627568999625  0.6058592075049063  1.0000
  H   H2        1.0  0.2968524959791948  0.3703544022949174  0.4307673603900395  1.0000
  H   H3        1.0  0.22309627749038163  0.4805451011442364  0.8384374869041575  1.0000
  H   H4        1.0  0.3540132877954142  0.44882895981494064  0.9483197127085102  1.0000
  H   H5        1.0  0.4565534616319143  0.3765958585126197  0.8038623774675131  1.0000
  H   H6        1.0  0.3745133310016665  0.18316487294030306  0.40731774572355456  1.0000
  H   H7        1.0  0.4770465260649231  0.11361186962638059  0.2611040118380388  1.0000
  H   H8        1.0  0.6076253215325657  0.21119468225673677  0.2862515106946051  1.0000
  C   C15       1.0  0.9150121255908221  0.07013386498645202  0.4931341597070718  1.0000
  C   C16       1.0  0.9921272487000309  0.06975865355134836  0.5454805671532876  1.0000
  C   C17       1.0  0.030504996831415724  0.9525341901878112  0.5719863858403629  1.0000
  C   C18       1.0  0.9923272642938281  0.8345930602233843  0.5456207482855894  1.0000
  C   C19       1.0  0.9151649581478578  0.8326756053090959  0.493239808747292  1.0000
  C   C20       1.0  0.8769227499325153  0.9509844014386647  0.46733921339508044  1.0000
  S   S1        1.0  0.12902478361839864  0.9535741101115172  0.6382222643920588  1.0000
  C   C21       1.0  0.10449231231289763  0.9408237006283491  0.820707270975203  1.0000
  N   N3        1.0  0.08838574957235791  0.9324640733976993  0.940339678318372  1.0000
  H   H9        1.0  0.885668691575118  0.3976162219196138  0.4731431154989367  1.0000
  H   H10       1.0  0.02267655348185227  0.1601957851647249  0.5661355860410349  1.0000
  H   H11       1.0  0.02301367172788127  0.7447550302903121  0.566371928282468  1.0000
  H   H12       1.0  0.8174485071177932  0.9504242471402763  0.4269877934662209  1.0000
  H   H13       1.0  0.7697463531343787  0.6218542635673192  0.3943616166984547  1.0000
  C   C22       1.0  0.9132801551813394  0.44866793071084743  0.06973725522393903  1.0000
  C   C23       1.0  0.8632545071833705  0.5311304294938948  0.1311864334690509  1.0000
  C   C24       1.0  0.8193887897282582  0.6202982470132008  0.04428588382029197  1.0000
  C   C25       1.0  0.8247553386251348  0.628832425782808  0.8943428729659065  1.0000
  C   C26       1.0  0.8731875672792873  0.5462042572173351  0.8309934096040323  1.0000
  C   C27       1.0  0.9168969545227893  0.45414160499212025  0.9166367976972079  1.0000
  C   C28       1.0  0.7797755795008349  0.7215200808799351  0.8049718525770246  1.0000
  C   C29       1.0  0.7421186329353818  0.799121506179595  0.7301313541034914  1.0000
  H   H14       1.0  0.07280363796007117  0.2852835176808204  0.20278131323987103  1.0000
  H   H15       1.0  0.859414906966773  0.5287780709297165  0.2475082405952671  1.0000
  H   H16       1.0  0.7817980450697772  0.6835543982881362  0.09432455079939306  1.0000
  H   H17       1.0  0.875389063975802  0.5516966823514677  0.7141090105042234  1.0000
  H   H18       1.0  0.022639490715888444  0.3399390847986319  0.6563937143269833  1.0000
  H   H19       1.0  0.7090636507125802  0.8672389930381457  0.66443545660773  1.0000
  Zn  Zn1       1.0  0.8309891228182327  0.44768766419622597  0.4855656150202454  1.0000
  Zn  Zn2       1.0  0.9991806344641501  0.4551208830250932  0.5008070639859847  1.0000
  C   C30       1.0  0.9162105512295181  0.447934442881331  0.7565537410826169  1.0000
  C   C31       1.0  0.9139610436317653  0.4548758246450686  0.22981924611811655  1.0000
  C   C32       1.0  0.9151075995209681  0.6885016960998334  0.48747330483013357  1.0000
  C   C33       1.0  0.9150639379639292  0.21430700946507875  0.49889975383207985  1.0000
  O   O1        1.0  0.9780173570124489  0.45977445400701744  0.28932827429518365  1.0000
  O   O2        1.0  0.979807701532345  0.448676472451195  0.7086122047748833  1.0000
  O   O3        1.0  0.9789162000529807  0.6429375434773894  0.491327770926492  1.0000
  O   O4        1.0  0.9789088006395678  0.26551338903353416  0.5066125948248492  1.0000
  O   O5        1.0  0.8512608992472745  0.6372951556525566  0.47976007897263795  1.0000
  O   O6        1.0  0.8521524007074844  0.44303564405262064  0.6970444361508062  1.0000
  O   O7        1.0  0.8503620488256163  0.45413356916068626  0.2777587719814161  1.0000
  O   O8        1.0  0.8512534929094403  0.25987249559926373  0.4950432006210647  1.0000
