data_image0
_chemical_formula_structural       NC10NC5H10C7OC3NC3H11C7OC3FC3H9Zn2C4O8
_chemical_formula_sum              "N3 C45 H30 O10 F1 Zn2"
_cell_length_a       19.4436361288709
_cell_length_b       10.298746005989749
_cell_length_c       10.29938172300155
_cell_angle_alpha    85.57926667056456
_cell_angle_beta     89.68829794462899
_cell_angle_gamma    89.42734808848357

_space_group_name_H-M_alt    "P 1"
_space_group_IT_number       1

loop_
  _space_group_symop_operation_xyz
  'x, y, z'

loop_
  _atom_site_type_symbol
  _atom_site_label
  _atom_site_symmetry_multiplicity
  _atom_site_fract_x
  _atom_site_fract_y
  _atom_site_fract_z
  _atom_site_occupancy
  N   N1        1.0  0.6479829026382952  0.40905463325124714  0.562217084321643  1.0000
  C   C1        1.0  0.5891464625373959  0.418958495626292  0.5766019259358661  1.0000
  C   C2        1.0  0.515816544204447  0.43130994397331435  0.5945953241175246  1.0000
  C   C3        1.0  0.4736388733800745  0.39930279705288396  0.4999187832018222  1.0000
  C   C4        1.0  0.39773456234153426  0.40974235828709143  0.5052477757787057  1.0000
  C   C5        1.0  0.3579831617800105  0.38500111547971727  0.6123180438886984  1.0000
  C   C6        1.0  0.2818641584532772  0.38891700322885125  0.5993590074468911  1.0000
  C   C7        1.0  0.2412970981140469  0.44659054680417387  0.6931347458968347  1.0000
  C   C8        1.0  0.16963499399434231  0.4502277416977307  0.6825911634889719  1.0000
  C   C9        1.0  0.137545135042434  0.39579537281698096  0.5785583345522718  1.0000
  C   C10       1.0  0.0637538059416125  0.39949380336804574  0.5678594755061588  1.0000
  N   N2        1.0  0.004430582330035202  0.40246714747297574  0.559258302159346  1.0000
  C   C11       1.0  0.1773872102942956  0.33741471269259327  0.4851657690242215  1.0000
  C   C12       1.0  0.24906576289286664  0.33372326913907036  0.4954575692295018  1.0000
  C   C13       1.0  0.3861002137853553  0.34454766005092585  0.7434091318661871  1.0000
  C   C14       1.0  0.4447628347034709  0.38767680775260543  0.790655418219832  1.0000
  C   C15       1.0  0.48898531095413983  0.48553687233348214  0.7162965766301437  1.0000
  H   H1        1.0  0.4957441057624187  0.3701760891786734  0.4096094028754427  1.0000
  H   H2        1.0  0.37304683817549106  0.43223132594961  0.4120913947926756  1.0000
  H   H3        1.0  0.26516338799015765  0.4898914191041939  0.773986879089833  1.0000
  H   H4        1.0  0.1392869373002707  0.49555186468012075  0.7555160084756991  1.0000
  H   H5        1.0  0.1530490220218048  0.294309540509804  0.4046481360031116  1.0000
  H   H6        1.0  0.2787479537467701  0.28615563292598756  0.42322886021733663  1.0000
  H   H7        1.0  0.3551233822415614  0.2803306108198877  0.807650403526157  1.0000
  H   H8        1.0  0.4599006599820499  0.35361472907690095  0.888586868697703  1.0000
  H   H9        1.0  0.4588861246788085  0.5762563775937661  0.6910526354879929  1.0000
  H   H10       1.0  0.5322664869737096  0.511129992642006  0.7793838080409301  1.0000
  C   C16       1.0  0.826177167204863  0.0243593548160852  0.5607207933864862  1.0000
  C   C17       1.0  0.8583702151926301  0.032239964503672836  0.4379506983895541  1.0000
  C   C18       1.0  0.8739254357569641  0.9191146030320582  0.37518921000290284  1.0000
  C   C19       1.0  0.8583707383327678  0.7970033420950253  0.43790155750664456  1.0000
  C   C20       1.0  0.8262428824323609  0.7871523440223427  0.5607658020009716  1.0000
  C   C21       1.0  0.8101844249912326  0.9013951376124615  0.6212427116165438  1.0000
  C   C22       1.0  0.9085055112270107  0.9272342863205238  0.24608811024230423  1.0000
  O   O1        1.0  0.9505037606839909  0.8384738444587334  0.22052753050141005  1.0000
  C   C23       1.0  0.895442679289142  0.0359882955091937  0.14599198194798513  1.0000
  C   C24       1.0  0.8303180409091183  0.09658092010149268  0.13442524611513185  1.0000
  C   C25       1.0  0.8182803784145204  0.1984504296208911  0.03861945782507448  1.0000
  N   N3        1.0  0.7520546021017329  0.25990582488043584  0.027965228012232668  1.0000
  C   C26       1.0  0.871410099169085  0.23933375891537878  0.9530452579501515  1.0000
  C   C27       1.0  0.9359072069655551  0.17858750304097745  0.962761152576721  1.0000
  C   C28       1.0  0.9478914170704064  0.07714337934372684  0.05826318014401966  1.0000
  H   H11       1.0  0.7663018239285252  0.21674664948045622  0.7935507046091561  1.0000
  H   H12       1.0  0.8720548024845152  0.1264922917939664  0.3916158465329716  1.0000
  H   H13       1.0  0.870782360451638  0.7095704485450329  0.3901012070203813  1.0000
  H   H14       1.0  0.7853727874924116  0.8945684715087783  0.715878089237332  1.0000
  H   H15       1.0  0.7657960433487985  0.5612161015379259  0.7931119369435902  1.0000
  H   H16       1.0  0.7886568408796433  0.06396276856756455  0.19873293160031702  1.0000
  H   H17       1.0  0.7120829683480661  0.23020624107073379  0.091247439250153  1.0000
  H   H18       1.0  0.7425238871405517  0.33567949188000973  0.9568067815434906  1.0000
  H   H19       1.0  0.8627536484488857  0.31782664813438766  0.8786308495196119  1.0000
  H   H20       1.0  0.9767260512977795  0.21018503147136294  0.89612817667643  1.0000
  H   H21       1.0  0.9983337721515567  0.031570860611878526  0.06437195458889988  1.0000
  C   C29       1.0  0.8262679220780077  0.405653620384247  0.17937515104446722  1.0000
  C   C30       1.0  0.8480222576020746  0.2747860474179494  0.18804802523779718  1.0000
  C   C31       1.0  0.8597417936070801  0.20922252256648657  0.07520743651127626  1.0000
  C   C32       1.0  0.8479564998849641  0.27508042166093666  0.9527825385614133  1.0000
  C   C33       1.0  0.8261521134624842  0.4058580234750911  0.9421114799676175  1.0000
  C   C34       1.0  0.8156073689000075  0.470488628528154  0.05599495210544636  1.0000
  C   C35       1.0  0.882016702364523  0.07063069501589703  0.08425958109672105  1.0000
  O   O2        1.0  0.8608264376558049  0.9977719920954957  0.0002498399865600341  1.0000
  C   C36       1.0  0.9283355994313964  0.01469690189677842  0.18851703084638727  1.0000
  C   C37       1.0  0.9227835251646341  0.8828274644347521  0.23382838114735072  1.0000
  C   C38       1.0  0.9667595571078769  0.8288031048400087  0.331016644100941  1.0000
  F   F1        1.0  0.9606580424265606  0.701837911217151  0.37472849833170563  1.0000
  C   C39       1.0  0.01699886625776581  0.9055048039430172  0.3830721889035036  1.0000
  C   C40       1.0  0.023541313868068018  0.03615038817743677  0.3376874874609208  1.0000
  C   C41       1.0  0.9797017057406555  0.09058403180330332  0.24056909256805192  1.0000
  H   H22       1.0  0.7842044350401955  0.6520220040404705  0.3703843611912181  1.0000
  H   H23       1.0  0.8551435057587385  0.2232596103797555  0.28279143424183206  1.0000
  H   H24       1.0  0.856477022323705  0.22436918228602748  0.8656829866632471  1.0000
  H   H25       1.0  0.7988360744248603  0.5713774803415608  0.048504759665275676  1.0000
  H   H26       1.0  0.8172215136576576  0.45576849416973153  0.61058641875838  1.0000
  H   H27       1.0  0.8840325227937169  0.8220221339711528  0.19477341652143942  1.0000
  H   H28       1.0  0.05106325025722458  0.8636633388402832  0.4582036554573515  1.0000
  H   H29       1.0  0.0628318539027164  0.09519786166316879  0.3773767931592016  1.0000
  H   H30       1.0  0.9864725981434729  0.19142637539908017  0.20525819803725587  1.0000
  Zn  Zn1       1.0  0.7508460031311174  0.40715015750079947  0.5613707556221563  1.0000
  Zn  Zn2       1.0  0.9015674708168812  0.4043610174975447  0.5601153113911892  1.0000
  C   C42       1.0  0.8261720418827742  0.4006453226831135  0.797937671245877  1.0000
  C   C43       1.0  0.8262430780608169  0.41086746065156216  0.3235485096209789  1.0000
  C   C44       1.0  0.8262277141310864  0.64296689341157  0.5555821738425271  1.0000
  C   C45       1.0  0.8261873542368389  0.16854433045760375  0.565904076599113  1.0000
  O   O3        1.0  0.883432751188689  0.4115531427536241  0.3714579709218617  1.0000
  O   O4        1.0  0.8833764752433558  0.3978417679485342  0.7490749829195718  1.0000
  O   O5        1.0  0.8834206600263959  0.5935195155168385  0.5533712105633823  1.0000
  O   O6        1.0  0.8833885149902039  0.21587540540198052  0.5671616463325238  1.0000
  O   O7        1.0  0.769024907523956  0.5956357705495723  0.5543244211024119  1.0000
  O   O8        1.0  0.7689807228827429  0.3999595833999784  0.7500281243054074  1.0000
  O   O9        1.0  0.7690369991069437  0.41367091252588845  0.37240955090707417  1.0000
  O   O10       1.0  0.7689927628900648  0.21799316591079304  0.5681133236848548  1.0000
