data_image0
_chemical_formula_structural       NC6NC2H4C7NH3C6BrH3Zn2C4O8
_chemical_formula_sum              "N3 C25 H10 Br1 Zn2 O8"
_cell_length_a       14.927258858638513
_cell_length_b       9.275154477615127
_cell_length_c       9.275428193871797
_cell_angle_alpha    86.39200360318996
_cell_angle_beta     89.94092403990386
_cell_angle_gamma    89.43371000992973

_space_group_name_H-M_alt    "P 1"
_space_group_IT_number       1

loop_
  _space_group_symop_operation_xyz
  'x, y, z'

loop_
  _atom_site_type_symbol
  _atom_site_label
  _atom_site_symmetry_multiplicity
  _atom_site_fract_x
  _atom_site_fract_y
  _atom_site_fract_z
  _atom_site_occupancy
  N   N1        1.0  0.8349959199998503  0.5611038943639293  0.4167257531430275  1.0000
  C   C1        1.0  0.7574694289998348  0.5611038659716191  0.41672576361494484  1.0000
  C   C2        1.0  0.6610369207837257  0.5611039805206492  0.4167257142289156  1.0000
  C   C3        1.0  0.6142194484076954  0.5360749915617329  0.2899911314417638  1.0000
  C   C4        1.0  0.5205081370008432  0.5360750157787103  0.28999099813290496  1.0000
  C   C5        1.0  0.47322085786949925  0.5611038032001446  0.4167257321476834  1.0000
  C   C6        1.0  0.37678828266184045  0.5611039177520758  0.4167256827557435  1.0000
  N   N2        1.0  0.29926179166182454  0.5611038893597655  0.41672569322766106  1.0000
  C   C7        1.0  0.5200382632539797  0.5861327921619626  0.5434603149289245  1.0000
  C   C8        1.0  0.6137495746608316  0.5861327679449853  0.5434604482377838  1.0000
  H   H1        1.0  0.6500984124922066  0.5166010256371705  0.19138435248107633  1.0000
  H   H2        1.0  0.4849947557711998  0.5166012230867375  0.19138434833069984  1.0000
  H   H3        1.0  0.4841593661444245  0.6056067489162262  0.6420672018952502  1.0000
  H   H4        1.0  0.649262955212787  0.6056066591141633  0.6420672084154715  1.0000
  C   C9        1.0  0.06972666966574309  0.13769690934860268  0.41505819715414805  1.0000
  C   C10       1.0  0.04522651904836652  0.2195291079191413  0.28800277247864225  1.0000
  C   C11       1.0  0.013434955910189622  0.15221514374316913  0.1676776637282087  1.0000
  C   C12       1.0  0.0056196835227972945  0.002150943653525413  0.17299089060193729  1.0000
  C   C13       1.0  0.03095216230614328  0.9190803687908606  0.2971501879474219  1.0000
  C   C14       1.0  0.06453969441395026  0.984499914160287  0.41840573264974085  1.0000
  C   C15       1.0  0.987744051944723  0.2376129211762941  0.03909088993396481  1.0000
  N   N3        1.0  0.9670956932901096  0.306257177352201  0.9357400610092595  1.0000
  H   H5        1.0  0.08684750353565933  0.2181176798103546  0.7687785529227985  1.0000
  H   H6        1.0  0.9807085311883302  0.9490440359464714  0.08051348754650478  1.0000
  H   H7        1.0  0.07986999118756027  0.6882420829304231  0.6554084321796376  1.0000
  C   C16       1.0  0.06743124597255701  0.5566124589816882  0.9935605180633241  1.0000
  C   C17       1.0  0.14993740799187982  0.5592967309878127  0.06661644424101132  1.0000
  C   C18       1.0  0.2302224258453186  0.575138861273673  0.9901423242856217  1.0000
  C   C19       1.0  0.22926543649571904  0.5887168689765686  0.8396387564372515  1.0000
  C   C20       1.0  0.14833755972312224  0.5839524793293647  0.7650674605262262  1.0000
  C   C21       1.0  0.0668351371501148  0.5655843530493567  0.83990337394042  1.0000
  Br  Br1       1.0  0.3412620567591007  0.5806510049213169  0.09172803342122848  1.0000
  H   H8        1.0  0.8514786753169312  0.6280574312588796  0.09240832320829596  1.0000
  H   H9        1.0  0.2913850993460314  0.6016017296419118  0.7801098160685593  1.0000
  H   H10       1.0  0.9211784127766477  0.6075874921473003  0.5563333275817072  1.0000
  Zn  Zn1       1.0  0.968973047646919  0.561100117675289  0.41673404723647267  1.0000
  Zn  Zn2       1.0  0.16528473891233808  0.5610959812247478  0.41672917344614213  1.0000
  C   C22       1.0  0.06698097925828297  0.5581444918599943  0.679903740121063  1.0000
  C   C23       1.0  0.06727893977537569  0.5640534277380795  0.15355962913824217  1.0000
  C   C24       1.0  0.06551957294598812  0.8243752270808147  0.4120305103440107  1.0000
  C   C25       1.0  0.06874028965703505  0.2978209610391036  0.42143292889703354  1.0000
  O   O1        1.0  0.141727126702757  0.5665428247919466  0.20725491798084253  1.0000
  O   O2        1.0  0.14152883061287375  0.5556508632215709  0.6262043330605778  1.0000
  O   O3        1.0  0.140347721192564  0.7706355647648964  0.4098948107194955  1.0000
  O   O4        1.0  0.14290816914811044  0.3515581324189201  0.42356433231628654  1.0000
  O   O5        1.0  0.991349550419596  0.7706379664840174  0.40989888836041777  1.0000
  O   O6        1.0  0.9925306492789909  0.5556549964217492  0.6262083407138507  1.0000
  O   O7        1.0  0.9927289469565648  0.5665468893812758  0.2072571928869611  1.0000
  O   O8        1.0  0.9939099893853239  0.3515621878408513  0.4235667152221334  1.0000
