data_image0
_chemical_formula_structural       NC5NC4H6C6NH7C10H6Zn2C4O8
_chemical_formula_sum              "N3 C29 H19 Zn2 O8"
_cell_length_a       13.854160002989762
_cell_length_b       9.274771166103582
_cell_length_c       9.275153671780863
_cell_angle_alpha    85.60840141486051
_cell_angle_beta     89.40940609581031
_cell_angle_gamma    90.59704847255895

_space_group_name_H-M_alt    "P 1"
_space_group_IT_number       1

loop_
  _space_group_symop_operation_xyz
  'x, y, z'

loop_
  _atom_site_type_symbol
  _atom_site_label
  _atom_site_symmetry_multiplicity
  _atom_site_fract_x
  _atom_site_fract_y
  _atom_site_fract_z
  _atom_site_occupancy
  N   N1        1.0  0.9308885710075576  0.5745806174180983  0.4066199395593013  1.0000
  C   C1        1.0  0.8591386283402053  0.5996461598863627  0.34751317098893475  1.0000
  C   C2        1.0  0.7698807017755978  0.6308283728852159  0.2739820882225479  1.0000
  C   C3        1.0  0.6816096177203214  0.6015231305560598  0.34577656853691074  1.0000
  C   C4        1.0  0.5947382896640422  0.6308283871580393  0.27398206501816813  1.0000
  C   C5        1.0  0.5040304853153024  0.5996460127738812  0.3475132629020343  1.0000
  N   N2        1.0  0.43111499996649605  0.5745805539090711  0.4066199395885226  1.0000
  C   C6        1.0  0.5961747878146214  0.6900454377191043  0.13041097371861277  1.0000
  C   C7        1.0  0.6844288802748658  0.7215009419061424  0.05850910418903599  1.0000
  C   C8        1.0  0.6859135138877811  0.7809297819276981  0.9034457801574622  1.0000
  C   C9        1.0  0.7712518774625592  0.6900454361625692  0.13041088342084994  1.0000
  H   H1        1.0  0.6805223217333982  0.555578969370608  0.4568981600002279  1.0000
  H   H2        1.0  0.528837230258066  0.7116936082700103  0.0747080943778693  1.0000
  H   H3        1.0  0.7514079757523308  0.8490422982264785  0.8795289448446765  1.0000
  H   H4        1.0  0.62169949765869  0.8490423002701947  0.8795290099419134  1.0000
  H   H5        1.0  0.685773430543436  0.6902054384652738  0.832039448153369  1.0000
  H   H6        1.0  0.8396601907144338  0.7116937205560654  0.07470800872543015  1.0000
  C   C10       1.0  0.17803764274594774  0.15098604274065064  0.40740589563207164  1.0000
  C   C11       1.0  0.15671390158071885  0.2339646605488208  0.2784613672106142  1.0000
  C   C12       1.0  0.1444077645746293  0.1685830453904016  0.14869874228785607  1.0000
  C   C13       1.0  0.15348243918715498  0.018842933031364417  0.14694076298145609  1.0000
  C   C14       1.0  0.17303349817459712  0.9345403522691825  0.2741139704817974  1.0000
  C   C15       1.0  0.18397502165640667  0.9981640882708961  0.4058465395088646  1.0000
  N   N3        1.0  0.12368680652508773  0.25465753270117797  0.01833703884105619  1.0000
  H   H7        1.0  0.2844943581755017  0.2314542893922096  0.7229728304399343  1.0000
  H   H8        1.0  0.15185091077247942  0.3505559512060864  0.2779074870534868  1.0000
  H   H9        1.0  0.14447094676316677  0.967100093232046  0.04710151491941117  1.0000
  H   H10       1.0  0.17731568329129338  0.8183657634058749  0.26998439805655683  1.0000
  H   H11       1.0  0.2517509488324745  0.7016474556438825  0.6205437868960924  1.0000
  H   H12       1.0  0.11703682215582978  0.3667313149439685  0.018290205293064462  1.0000
  H   H13       1.0  0.1147498638659083  0.20693797186187649  0.9208690917014386  1.0000
  C   C16       1.0  0.18392013211417813  0.5734909509932906  0.9831985742744568  1.0000
  C   C17       1.0  0.2101919469903992  0.7009720676101655  0.046707628643957166  1.0000
  C   C18       1.0  0.22745489789515327  0.8298109277283755  0.9614780853583852  1.0000
  C   C19       1.0  0.21855773025161596  0.8327733904002153  0.8115321119894938  1.0000
  C   C20       1.0  0.1941623660867255  0.7069011921968553  0.7464016934095281  1.0000
  C   C21       1.0  0.17809254442116224  0.5756591206318367  0.8300538598575504  1.0000
  C   C22       1.0  0.2532328438839586  0.9596649436063626  0.028348133235114314  1.0000
  C   C23       1.0  0.2748165268022942  0.06838086959912504  0.0843597113197978  1.0000
  C   C24       1.0  0.3000899514432191  0.19568243088213677  0.14995485999914915  1.0000
  C   C25       1.0  0.3216694650539471  0.3043775709559693  0.20596382523497847  1.0000
  H   H14       1.0  0.186676268748726  0.33457583745131525  0.2821747980710809  1.0000
  H   H15       1.0  0.21506129788625705  0.701045099815027  0.16332288688976804  1.0000
  H   H16       1.0  0.2314237373394863  0.9322239543647819  0.7446423822596779  1.0000
  H   H17       1.0  0.19008960874250472  0.711417619447934  0.629561703007405  1.0000
  H   H18       1.0  0.18770547388106218  0.22090815033848138  0.7542080235995368  1.0000
  H   H19       1.0  0.34061804153389336  0.3998208158950862  0.2551445979954081  1.0000
  Zn  Zn1       1.0  0.07524303404474875  0.5745767584864858  0.40662828237696647  1.0000
  Zn  Zn2       1.0  0.28676037388638237  0.5745726391547352  0.4066234605244001  1.0000
  C   C26       1.0  0.17915163318692973  0.5695027928693457  0.6699906307436334  1.0000
  C   C27       1.0  0.1828540962887217  0.5796484251387832  0.14326125027884573  1.0000
  C   C28       1.0  0.182887291117235  0.8380146623353264  0.40039535825413086  1.0000
  C   C29       1.0  0.1791183535073319  0.3111348228098379  0.41285660283452197  1.0000
  O   O1        1.0  0.2627660089610664  0.5817070733870586  0.19697792825213267  1.0000
  O   O2        1.0  0.2597764825060884  0.5674399288822988  0.6162698800237497  1.0000
  O   O3        1.0  0.26279198113688707  0.7842666631318657  0.3985697873210796  1.0000
  O   O4        1.0  0.2597504389700262  0.36488034918094314  0.41467791282396327  1.0000
  O   O5        1.0  0.10225289678068061  0.7842690484632352  0.3985738300714612  1.0000
  O   O6        1.0  0.0992374108205425  0.567444047079589  0.6162738427020158  1.0000
  O   O7        1.0  0.10222694891713631  0.5817111368790819  0.19698015742544395  1.0000
  O   O8        1.0  0.09921137810591339  0.36488440263247224  0.4146802501221729  1.0000
