data_image0
_chemical_formula_structural       NC9NC5H8C12NCOCH13C12SCH12Zn2C4O8
_chemical_formula_sum              "N3 C45 H33 O9 S1 Zn2"
_cell_length_a       17.807436237873137
_cell_length_b       10.299155265289647
_cell_length_c       10.299780138516091
_cell_angle_alpha    85.56043235920357
_cell_angle_beta     89.38476460054898
_cell_angle_gamma    88.36808077728017

_space_group_name_H-M_alt    "P 1"
_space_group_IT_number       1

loop_
  _space_group_symop_operation_xyz
  'x, y, z'

loop_
  _atom_site_type_symbol
  _atom_site_label
  _atom_site_symmetry_multiplicity
  _atom_site_fract_x
  _atom_site_fract_y
  _atom_site_fract_z
  _atom_site_occupancy
  N   N1        1.0  0.7072209047730248  0.3874540984762438  0.5567832443678964  1.0000
  C   C1        1.0  0.6466420038638215  0.35225824091125646  0.5457700898433839  1.0000
  C   C2        1.0  0.571288509316489  0.30847847006606915  0.5320709213945469  1.0000
  C   C3        1.0  0.5532212060644057  0.23702706678045324  0.42709335759262745  1.0000
  C   C4        1.0  0.4800568819560848  0.19440875342101324  0.4137097554709124  1.0000
  C   C5        1.0  0.42391122831861067  0.2228642727371053  0.5052713774027355  1.0000
  C   C6        1.0  0.3461563803775761  0.17768693179112446  0.491130111634903  1.0000
  C   C7        1.0  0.2839599541518246  0.2594574380653285  0.5170440045706592  1.0000
  C   C8        1.0  0.2106533687977322  0.21663607359450965  0.5036741424547371  1.0000
  C   C9        1.0  0.1474062311696664  0.30109826220307756  0.5299511350560642  1.0000
  N   N2        1.0  0.0965685221540623  0.36900001872917976  0.5510771123610863  1.0000
  C   C10       1.0  0.1989597236464306  0.09178619399151612  0.4643651142486655  1.0000
  C   C11       1.0  0.260298783770217  0.010001831835435796  0.43844283602018236  1.0000
  C   C12       1.0  0.3334860401820519  0.05242856369429649  0.4516102837022853  1.0000
  C   C13       1.0  0.4426698096869722  0.2948101471518347  0.6104680169651331  1.0000
  C   C14       1.0  0.5158870594896376  0.3372380051773274  0.6236960305448127  1.0000
  H   H1        1.0  0.5956268059523139  0.21451921851598874  0.35539016596627304  1.0000
  H   H2        1.0  0.4671627737129728  0.1406980077210962  0.3308084653194556  1.0000
  H   H3        1.0  0.2924336508514468  0.35693880895662905  0.5458912883729679  1.0000
  H   H4        1.0  0.1425030398653848  0.05774424073181717  0.45378064345549757  1.0000
  H   H5        1.0  0.2511266576929926  0.9133402815485149  0.40839495055208364  1.0000
  H   H6        1.0  0.3801428724049806  0.986672535842728  0.43258193687098795  1.0000
  H   H7        1.0  0.4009811054283504  0.31677927565079234  0.6834658111111693  1.0000
  H   H8        1.0  0.5293093316872184  0.392169137000445  0.7055553796163021  1.0000
  C   C15       1.0  0.9019822019304795  0.9968254730878852  0.5540476178059468  1.0000
  C   C16       1.0  0.8891595977337451  0.007106644329149865  0.4193169820200619  1.0000
  C   C17       1.0  0.8825855164303061  0.895185156450873  0.35088905956233996  1.0000
  C   C18       1.0  0.888979989894083  0.771855326839305  0.4190118445722179  1.0000
  C   C19       1.0  0.9018144270457144  0.7596183770669437  0.5538238934973276  1.0000
  C   C20       1.0  0.9082398618261113  0.8726241098000427  0.6205117717978188  1.0000
  C   C21       1.0  0.8690216769112726  0.9070350195521593  0.20836030194677832  1.0000
  C   C22       1.0  0.9071284235509001  0.9993236675935842  0.12638823119984788  1.0000
  C   C23       1.0  0.894370138604735  0.010343999194549982  0.9922590821339305  1.0000
  C   C24       1.0  0.8437171520687592  0.9283914671012979  0.937253605695092  1.0000
  C   C25       1.0  0.8046927371020535  0.83796258620908  0.019170969239143076  1.0000
  C   C26       1.0  0.817478387491817  0.826684930753564  0.15326238361913558  1.0000
  N   N3        1.0  0.8285414597430768  0.9393245435919786  0.7999217159250268  1.0000
  C   C27       1.0  0.8834047872173256  0.9736412514788725  0.700904763252161  1.0000
  O   O1        1.0  0.9523233238231967  0.9729145190855127  0.727751773832451  1.0000
  C   C28       1.0  0.8594487347386487  0.001196042957643195  0.562722769591129  1.0000
  H   H9        1.0  0.9069376438046913  0.3203459753183271  0.6058647475824197  1.0000
  H   H10       1.0  0.8832197970880765  0.10242301828331747  0.36759694072790494  1.0000
  H   H11       1.0  0.8849428455038433  0.6852371793291528  0.3664451480231905  1.0000
  H   H12       1.0  0.9181327335414251  0.8639790425041766  0.7244318442275346  1.0000
  H   H13       1.0  0.9264886241835671  0.5292171088887464  0.8081371789554442  1.0000
  H   H14       1.0  0.9472418685260593  0.06247869589881751  0.1658906975792982  1.0000
  H   H15       1.0  0.9231959867889853  0.08442157305648124  0.9322591178950592  1.0000
  H   H16       1.0  0.7645072629647601  0.7755148505970165  0.9788025651548304  1.0000
  H   H17       1.0  0.7862384326750647  0.7563382922021792  0.2141306343304221  1.0000
  H   H18       1.0  0.7756295625966253  0.9129577001051825  0.7696252506787054  1.0000
  H   H19       1.0  0.8052184174549251  0.05721120467622919  0.5590641218176238  1.0000
  H   H20       1.0  0.8525004213235845  0.9079067907405419  0.5176027544479411  1.0000
  H   H21       1.0  0.9022213795160555  0.05924903986322527  0.5067033474040166  1.0000
  C   C29       1.0  0.9019285228963692  0.3781091637775383  0.1725832348829901  1.0000
  C   C30       1.0  0.8305092956774296  0.32347837484403835  0.17714153989674863  1.0000
  C   C31       1.0  0.7942908587752443  0.2959122040594966  0.06230475471899032  1.0000
  C   C32       1.0  0.8304477402433043  0.3237067481917572  0.9418384786825461  1.0000
  C   C33       1.0  0.9018680882456898  0.3783346603097448  0.9352883197832842  1.0000
  C   C34       1.0  0.9372085122025178  0.40523074855389063  0.05118965505611639  1.0000
  C   C35       1.0  0.7187342721201716  0.23813248610334264  0.06818987910078156  1.0000
  C   C36       1.0  0.6630854339908889  0.2824341813017119  0.9780366133632903  1.0000
  C   C37       1.0  0.5919880493606482  0.22802102887852488  0.9838119681849231  1.0000
  C   C38       1.0  0.5755024375363373  0.12898515366894925  0.0796458983017343  1.0000
  C   C39       1.0  0.6304828312630051  0.08391614852283258  0.16940354687997528  1.0000
  C   C40       1.0  0.7016267324148456  0.13815365340250074  0.16398996968029222  1.0000
  S   S1        1.0  0.4843055643410486  0.05903092492913496  0.08660584246545722  1.0000
  C   C41       1.0  0.4457539106293635  0.17508194012354014  0.19586592824997773  1.0000
  H   H22       1.0  0.9291534838378387  0.39887795001580634  0.49830317482103914  1.0000
  H   H23       1.0  0.8024373862488531  0.3038850319306188  0.27010849871893083  1.0000
  H   H24       1.0  0.803209859922418  0.30099456034648076  0.8531725715690168  1.0000
  H   H25       1.0  0.992305580727098  0.44737528481822747  0.04690474237550491  1.0000
  H   H26       1.0  0.9290658555976422  0.39920959163478886  0.6053347932139874  1.0000
  H   H27       1.0  0.6742395706733764  0.36027916169150376  0.9041716508670375  1.0000
  H   H28       1.0  0.5496508509977287  0.26336346209713984  0.9140912537356423  1.0000
  H   H29       1.0  0.6181802946241503  0.006821625914428694  0.24340999796338703  1.0000
  H   H30       1.0  0.7435601771886103  0.1007792157443008  0.23361639438764503  1.0000
  H   H31       1.0  0.47752340440531776  0.1675455951688809  0.28841622828133273  1.0000
  H   H32       1.0  0.3861402520087754  0.15277684502196845  0.21751939560370756  1.0000
  H   H33       1.0  0.4486357356446395  0.27567486824128484  0.14920253430583874  1.0000
  Zn  Zn1       1.0  0.8195782157519884  0.38212518633021986  0.5551440894159756  1.0000
  Zn  Zn2       1.0  0.9842111944608191  0.37431834695501953  0.5527269465711511  1.0000
  C   C42       1.0  0.9018789664499964  0.3731179908000346  0.7911222469114743  1.0000
  C   C43       1.0  0.9019122411792215  0.38332709603172394  0.316748889660895  1.0000
  C   C44       1.0  0.9018426623897398  0.6154329076491423  0.5486913025642233  1.0000
  C   C45       1.0  0.90194848939953  0.14101062143141552  0.5591799045262396  1.0000
  O   O2        1.0  0.9643841355606991  0.38210996068099157  0.3642149089230773  1.0000
  O   O3        1.0  0.9643596938058647  0.36840893578640965  0.7418212986163291  1.0000
  O   O4        1.0  0.964329535486408  0.5640813359696646  0.5460566077864408  1.0000
  O   O5        1.0  0.9644142377077447  0.1864375724239098  0.5599795032045634  1.0000
  O   O6        1.0  0.8393751163239075  0.5700059635268324  0.5478915336005843  1.0000
  O   O7        1.0  0.8394052743021564  0.37433512376028233  0.7436561547303995  1.0000
  O   O8        1.0  0.8394297162406454  0.3880361029310707  0.36604820371608926  1.0000
  O   O9        1.0  0.8394598183789466  0.19236370541331982  0.5618128953639987  1.0000
