data_image0
_chemical_formula_structural       NC8NH4C6NCH9C6BrH4Zn2C4O8
_chemical_formula_sum              "N3 C25 H17 Br1 Zn2 O8"
_cell_length_a       13.859017124695912
_cell_length_b       9.273386996610926
_cell_length_c       9.276567756262418
_cell_angle_alpha    86.02760264675325
_cell_angle_beta     90.18619718657982
_cell_angle_gamma    89.39861590222965

_space_group_name_H-M_alt    "P 1"
_space_group_IT_number       1

loop_
  _space_group_symop_operation_xyz
  'x, y, z'

loop_
  _atom_site_type_symbol
  _atom_site_label
  _atom_site_symmetry_multiplicity
  _atom_site_fract_x
  _atom_site_fract_y
  _atom_site_fract_z
  _atom_site_occupancy
  N   N1        1.0  0.8941475819374439  0.5632765960522201  0.40806575875078926  1.0000
  C   C1        1.0  0.8218354922879584  0.5398591967363704  0.35195985912094496  1.0000
  C   C2        1.0  0.7318835403659815  0.5107313690033372  0.28217133008049133  1.0000
  C   C3        1.0  0.6442169086053446  0.5391280377351007  0.3502063642900901  1.0000
  C   C4        1.0  0.5566532106696356  0.51073258959137  0.28217074896619154  1.0000
  C   C5        1.0  0.5569385621335022  0.45393276547794054  0.14607921391806178  1.0000
  C   C6        1.0  0.6444224367694432  0.4256452417199781  0.07830606503091997  1.0000
  C   C7        1.0  0.7318039400046275  0.4539304267212292  0.14608039572302034  1.0000
  C   C8        1.0  0.4665956460080202  0.5398601187433327  0.3519593597534014  1.0000
  N   N2        1.0  0.3941987048031398  0.5632769166618878  0.4080655422860413  1.0000
  H   H1        1.0  0.6441372368941284  0.5830933005239181  0.4555444715121953  1.0000
  H   H2        1.0  0.4896836151533669  0.4315834932897013  0.09252819093857823  1.0000
  H   H3        1.0  0.6445020078830637  0.38176976718740296  0.9731812840308774  1.0000
  H   H4        1.0  0.7991398676410202  0.4315790628406382  0.0925303750797466  1.0000
  C   C9        1.0  0.1471463857316213  0.1396297217303979  0.408773700275896  1.0000
  C   C10       1.0  0.16381387989035057  0.22182881037035604  0.2784940290573521  1.0000
  C   C11       1.0  0.17139637543332054  0.1560493251957631  0.14820630805887183  1.0000
  C   C12       1.0  0.1624232115225224  0.005715935753706657  0.1448671039479299  1.0000
  C   C13       1.0  0.14745515465454775  0.9225494995603781  0.2746942121370317  1.0000
  C   C14       1.0  0.14120921600518216  0.9869128214050592  0.4073701279434603  1.0000
  N   N3        1.0  0.16918436024938854  0.9348736686577408  0.011889464458598068  1.0000
  C   C15       1.0  0.18496185143459676  0.01139246721624287  0.8712828150476107  1.0000
  H   H5        1.0  0.16735798311849973  0.4040923145603904  0.6453303828755759  1.0000
  H   H6        1.0  0.16873156539995726  0.3384573862809066  0.27672629017807737  1.0000
  H   H7        1.0  0.18335825189859056  0.22369246514321528  0.05033375996907208  1.0000
  H   H8        1.0  0.14289602532240075  0.8061261548888694  0.27242117913666797  1.0000
  H   H9        1.0  0.1774756116494494  0.8589895284618209  0.7583110325564839  1.0000
  H   H10       1.0  0.16236902619845694  0.8225358173611964  0.01487732816848819  1.0000
  H   H11       1.0  0.1250928966411673  0.08972068958797251  0.8462481782619617  1.0000
  H   H12       1.0  0.25480115364939415  0.06894654230377784  0.8715152950580897  1.0000
  H   H13       1.0  0.18721442071481834  0.9331200713991099  0.7859821633460573  1.0000
  C   C16       1.0  0.1432858501018117  0.5591253979936861  0.9849520161411807  1.0000
  C   C17       1.0  0.05729881508138179  0.5938555110257737  0.055505351947043875  1.0000
  C   C18       1.0  0.9755162157444186  0.6404690447718004  0.9767271725422115  1.0000
  C   C19       1.0  0.9781840449929502  0.6532965890207715  0.8262100777898418  1.0000
  C   C20       1.0  0.062290370721108886  0.6170080554591338  0.7539322620033491  1.0000
  C   C21       1.0  0.14506980328158314  0.5674172100718744  0.8311918021203311  1.0000
  Br  Br1       1.0  0.8662415707438659  0.7182547299306208  0.7188522833183986  1.0000
  H   H14       1.0  0.2769427866600864  0.4280902515060823  0.2760032269286985  1.0000
  H   H15       1.0  0.9102724357200974  0.6679747885309277  0.03299901835352359  1.0000
  H   H16       1.0  0.06208687308224946  0.624377318671375  0.6368695910453521  1.0000
  H   H17       1.0  0.3039359724102779  0.5525203939978445  0.5518216885389117  1.0000
  Zn  Zn1       1.0  0.03845158184649722  0.5632729184291032  0.40807402779552837  1.0000
  Zn  Zn2       1.0  0.2498948046352616  0.5632689417179548  0.4080691105235421  1.0000
  C   C22       1.0  0.1447706906129025  0.5601026137951677  0.6712438677615202  1.0000
  C   C23       1.0  0.14357799236521898  0.566441067969522  0.14489940890944686  1.0000
  C   C24       1.0  0.1423144131872096  0.8267020344084985  0.4018936779318907  1.0000
  C   C25       1.0  0.14603420994760788  0.29983991483403316  0.4142496784307219  1.0000
  O   O1        1.0  0.2239176831829879  0.5688884706617054  0.19857735940717602  1.0000
  O   O2        1.0  0.22491152018055757  0.5576511004735474  0.6175617721976299  1.0000
  O   O3        1.0  0.2229269665586029  0.7729335189290654  0.40005958575310363  1.0000
  O   O4        1.0  0.22590216435363433  0.35360606146910634  0.4160794378013693  1.0000
  O   O5        1.0  0.06244414997290316  0.7729357986808048  0.40006370051179735  1.0000
  O   O6        1.0  0.06442869128293992  0.5576551127502982  0.6175658072587746  1.0000
  O   O7        1.0  0.06343485104995517  0.5688924156913848  0.19857966221409007  1.0000
  O   O8        1.0  0.06541933251668831  0.35360999723872055  0.41608184865271314  1.0000
