data_image0
_chemical_formula_structural       NC6NC3H6C9H6C6H4Zn2C4O8
_chemical_formula_sum              "N2 C28 H16 Zn2 O8"
_cell_length_a       14.934028789175542
_cell_length_b       9.275152443626249
_cell_length_c       10.681121600428286
_cell_angle_alpha    85.36323627709002
_cell_angle_beta     89.97499362812657
_cell_angle_gamma    90.53595971611534

_space_group_name_H-M_alt    "P 1"
_space_group_IT_number       1

loop_
  _space_group_symop_operation_xyz
  'x, y, z'

loop_
  _atom_site_type_symbol
  _atom_site_label
  _atom_site_symmetry_multiplicity
  _atom_site_fract_x
  _atom_site_fract_y
  _atom_site_fract_z
  _atom_site_occupancy
  N   N1        1.0  0.8529987509907492  0.577934934892419  0.6134771932861796  1.0000
  C   C1        1.0  0.7755058503585868  0.5768364267924802  0.6128907489354927  1.0000
  C   C2        1.0  0.6791007451548157  0.5754648319544116  0.6121586831841928  1.0000
  C   C3        1.0  0.6320054733732005  0.6822855544892428  0.6690794923336717  1.0000
  C   C4        1.0  0.5384868685987428  0.6811842597470386  0.6684925404021871  1.0000
  C   C5        1.0  0.4911513270972834  0.5733167560388723  0.6110140017960907  1.0000
  C   C6        1.0  0.3945200173418752  0.5756311622497651  0.6122483865093468  1.0000
  N   N2        1.0  0.31705137208849915  0.5774679353690693  0.613228311656305  1.0000
  C   C7        1.0  0.5382317963280475  0.4650181921743761  0.553305223623496  1.0000
  C   C8        1.0  0.48918295643586446  0.34774379358635454  0.4908151735666149  1.0000
  C   C9        1.0  0.6323884892082757  0.4672432535676958  0.5544909219975005  1.0000
  H   H1        1.0  0.6675755126896921  0.7664503751829084  0.7139283220196992  1.0000
  H   H2        1.0  0.5029729135790262  0.7647008892439957  0.7129958477102749  1.0000
  H   H3        1.0  0.44673856193226064  0.3968299311417077  0.41369079200625364  1.0000
  H   H4        1.0  0.44604733693738263  0.2848776083155211  0.5606024711531381  1.0000
  H   H5        1.0  0.5361672830512941  0.27178347645703144  0.4503331220759721  1.0000
  H   H6        1.0  0.6694024445128659  0.38483764420010247  0.51057988920526  1.0000
  C   C10       1.0  0.08238789440241517  0.15407178565890867  0.61463267847947  1.0000
  C   C11       1.0  0.05008604402707492  0.23684368548113266  0.5082595209637327  1.0000
  C   C12       1.0  0.026107594094831214  0.1714264627225539  0.3998900038984819  1.0000
  C   C13       1.0  0.034054487924554094  0.02207652551788052  0.39574790719261094  1.0000
  C   C14       1.0  0.06460534322164313  0.9376182409853286  0.5012228664506396  1.0000
  C   C15       1.0  0.08767077007644186  0.0013199874671905273  0.6120836380468246  1.0000
  C   C16       1.0  0.009794756746906105  0.9549514224126106  0.2835241502354964  1.0000
  C   C17       1.0  0.9894829008188432  0.8987165023222847  0.18955434822085684  1.0000
  C   C18       1.0  0.9648384785889483  0.8304733733726329  0.0755384736785587  1.0000
  H   H7        1.0  0.21105313949847795  0.23559376553032546  0.864665994857637  1.0000
  H   H8        1.0  0.00216704480359553  0.23769031436688445  0.31879644168728083  1.0000
  H   H9        1.0  0.1714267663948893  0.7059363100484127  0.783100309538559  1.0000
  H   H10       1.0  0.981207848660783  0.7137350711573353  0.08722903039582186  1.0000
  H   H11       1.0  0.8919585815837728  0.843129283092208  0.058433436637232106  1.0000
  H   H12       1.0  0.002653051237613717  0.8827838440277282  0.9944575170615867  1.0000
  C   C19       1.0  0.08502934828478281  0.5776958499606688  0.24561294617742727  1.0000
  C   C20       1.0  0.02043823805843424  0.4975285619065228  0.18446621268813712  1.0000
  C   C21       1.0  0.020438182729364027  0.4975286544631885  0.05358407248693364  1.0000
  C   C22       1.0  0.0850292783335049  0.5776959207473145  0.9811033816787722  1.0000
  C   C23       1.0  0.14956707525874668  0.6577967739130488  0.04224976322488194  1.0000
  C   C24       1.0  0.14956706366301564  0.6577967515551422  0.1731420619613715  1.0000
  H   H13       1.0  0.9698086765798793  0.4346896526505919  0.23771919690682775  1.0000
  H   H14       1.0  0.9698086583024051  0.4346897205747693  0.009215167487027115  1.0000
  H   H15       1.0  0.20020324878360574  0.7206439637794023  0.9890410859229491  1.0000
  H   H16       1.0  0.20020320335325925  0.7206439132537994  0.21746545358369776  1.0000
  Zn  Zn1       1.0  0.986914302760114  0.5777963031861846  0.6134126092031956  1.0000
  Zn  Zn2       1.0  0.18313577670130587  0.5775947500995007  0.6133031697083545  1.0000
  C   C25       1.0  0.08499148315916871  0.5719488926498721  0.8420972479887735  1.0000
  C   C26       1.0  0.08506075038418157  0.5834439786351431  0.38461864716444505  1.0000
  C   C27       1.0  0.08666757960204569  0.8411720186881142  0.6075751904949767  1.0000
  C   C28       1.0  0.0833845761775302  0.31421911946096537  0.619140776675271  1.0000
  O   O1        1.0  0.15953627671695236  0.5852903212017013  0.4312287174652086  1.0000
  O   O2        1.0  0.15944350850609942  0.5699484876654262  0.7954037584267922  1.0000
  O   O3        1.0  0.16079597375660726  0.7873495677636051  0.6060255337651208  1.0000
  O   O4        1.0  0.15818374457369924  0.367889251491996  0.6206068482370353  1.0000
  O   O5        1.0  0.011866267926972316  0.7875018018640396  0.6061089307052694  1.0000
  O   O6        1.0  0.010513813479489535  0.5701024549721474  0.795487083380666  1.0000
  O   O7        1.0  0.010606581436521038  0.5854442382373584  0.43131053694770866  1.0000
  O   O8        1.0  0.009254049225264405  0.3680431582095305  0.6206887616401345  1.0000
