data_image0
_chemical_formula_structural       NC6NC3H6C7NH5C6NCH8Zn2C4O8
_chemical_formula_sum              "N4 C27 H19 Zn2 O8"
_cell_length_a       14.934028789175542
_cell_length_b       9.275154477615127
_cell_length_c       9.274690524155615
_cell_angle_alpha    86.28222006600178
_cell_angle_beta     89.66279847823098
_cell_angle_gamma    89.3962875590186

_space_group_name_H-M_alt    "P 1"
_space_group_IT_number       1

loop_
  _space_group_symop_operation_xyz
  'x, y, z'

loop_
  _atom_site_type_symbol
  _atom_site_label
  _atom_site_symmetry_multiplicity
  _atom_site_fract_x
  _atom_site_fract_y
  _atom_site_fract_z
  _atom_site_occupancy
  N   N1        1.0  0.8389589923328176  0.5632279124638664  0.4158631838156661  1.0000
  C   C1        1.0  0.7614820109884155  0.5621240605722675  0.4151800561962051  1.0000
  C   C2        1.0  0.6650967819099682  0.5607457951685095  0.41432729719606187  1.0000
  C   C3        1.0  0.6164539123627258  0.6680850922924508  0.4806337431657622  1.0000
  C   C4        1.0  0.5229512633778445  0.6669784500448376  0.47995001066470744  1.0000
  C   C5        1.0  0.47717848495971027  0.5585872906345641  0.41299387071916827  1.0000
  C   C6        1.0  0.3805136400904394  0.5609129437009774  0.4144317767215038  1.0000
  N   N2        1.0  0.3030183793665506  0.5627586454826208  0.41557326473407663  1.0000
  C   C7        1.0  0.5258279645418603  0.44976297297384454  0.3457695347156515  1.0000
  C   C8        1.0  0.4784781687328731  0.33191926252492093  0.27297552335194375  1.0000
  C   C9        1.0  0.6199524209869225  0.45199883666372487  0.3471507415234556  1.0000
  H   H1        1.0  0.6508045861668493  0.7526585068014233  0.5328776613576227  1.0000
  H   H2        1.0  0.48622733420938097  0.7509005253735824  0.5317914352527755  1.0000
  H   H3        1.0  0.4357316503572627  0.3802065376323269  0.18457201158887962  1.0000
  H   H4        1.0  0.4358442928025734  0.26978510091091845  0.3528320632727968  1.0000
  H   H5        1.0  0.5265630158055081  0.25559013017589627  0.22581848967109555  1.0000
  H   H6        1.0  0.6581602531955951  0.3691931775916304  0.2959992477053892  1.0000
  C   C10       1.0  0.07358991912067431  0.13958679614145672  0.41404869704280345  1.0000
  C   C11       1.0  0.04944849379960958  0.22168193632688826  0.28698119180386117  1.0000
  C   C12       1.0  0.0180004734882111  0.15462566702840053  0.16665000572941846  1.0000
  C   C13       1.0  0.010174131053346521  0.004559406171130039  0.17196925758608206  1.0000
  C   C14       1.0  0.03515544289473049  0.9212304774789632  0.2961394916861713  1.0000
  C   C15       1.0  0.068396086301443  0.9863887684780949  0.4174001927655555  1.0000
  C   C16       1.0  0.9926730166187722  0.24029046030948462  0.03805156491756234  1.0000
  N   N3        1.0  0.9723167760897626  0.309149328278296  0.9346913583573243  1.0000
  H   H7        1.0  0.08973478645150165  0.21932717826927003  0.7678345849799337  1.0000
  H   H8        1.0  0.05312011657773952  0.3386003248399885  0.28270227000937087  1.0000
  H   H9        1.0  0.9855272252368034  0.9516510356391739  0.0794874817875022  1.0000
  H   H10       1.0  0.030453851738248206  0.8047665296548989  0.2960155835935736  1.0000
  H   H11       1.0  0.08307074164908611  0.689671157325318  0.6544443911542251  1.0000
  C   C17       1.0  0.07244941760024659  0.5592948043093229  0.9924616231827025  1.0000
  C   C18       1.0  0.1448174469860155  0.6215919159764653  0.06140039149814026  1.0000
  C   C19       1.0  0.21251369977170775  0.6948134044233135  0.981150085137426  1.0000
  C   C20       1.0  0.20714321633625865  0.7054691193091511  0.8302990904723356  1.0000
  C   C21       1.0  0.13669127042809803  0.6423110605954647  0.7601450433593606  1.0000
  C   C22       1.0  0.06953654979756013  0.5666807273531662  0.8389871816658911  1.0000
  N   N4        1.0  0.2866303827326242  0.7601699867247385  0.050084283549770355  1.0000
  C   C23       1.0  0.29881387972178874  0.7550821377000794  0.20633815092684826  1.0000
  H   H12       1.0  0.9713074630280772  0.3855984109830777  0.28483639645890824  1.0000
  H   H13       1.0  0.2583746643628342  0.7618581919898186  0.7664316886593099  1.0000
  H   H14       1.0  0.1359668544433883  0.6497509222416511  0.6431021950816672  1.0000
  H   H15       1.0  0.9284456604252382  0.4991817294711504  0.5633696964990031  1.0000
  H   H16       1.0  0.33501851675274286  0.8140544957854977  0.9856331559996883  1.0000
  H   H17       1.0  0.36112952206061233  0.8121489594552167  0.23220342266469252  1.0000
  H   H18       1.0  0.3045244720898835  0.6410912980662511  0.25010854137519245  1.0000
  H   H19       1.0  0.24137177272149735  0.8091932549761892  0.2577897787387584  1.0000
  Zn  Zn1       1.0  0.9728765157890957  0.5630887010201742  0.4157878212021176  1.0000
  Zn  Zn2       1.0  0.1691009178684323  0.562886148989687  0.4156603646881667  1.0000
  C   C24       1.0  0.07012040274533193  0.5595406751615736  0.6789530257680547  1.0000
  C   C25       1.0  0.07185916203151116  0.5664359931123759  0.15249530739936867  1.0000
  C   C26       1.0  0.06939298201747013  0.8262750419474603  0.4110229848105741  1.0000
  C   C27       1.0  0.07258652616224953  0.299699894774184  0.42042541838890546  1.0000
  O   O1        1.0  0.146127243408814  0.5687494836045097  0.20615567976998328  1.0000
  O   O2        1.0  0.1447821103218081  0.5570723610293873  0.6251954976340395  1.0000
  O   O3        1.0  0.14419369988841513  0.7724637496380162  0.4088401004969384  1.0000
  O   O4        1.0  0.14671558719271438  0.35335810443634225  0.42251096891999307  1.0000
  O   O5        1.0  0.9952617795030724  0.7726167456441435  0.40893721700621044  1.0000
  O   O6        1.0  0.9958501795718471  0.5572270886584447  0.6252925441471755  1.0000
  O   O7        1.0  0.9971953189894442  0.5689041458693158  0.20625099316158613  1.0000
  O   O8        1.0  0.9977836624610953  0.3535127573313117  0.4226063903346065  1.0000
