data_image0
_chemical_formula_structural       NC9NC5H8C7F3H5C6SCNH5Zn2C4O8
_chemical_formula_sum              "N3 C32 H18 F3 S1 Zn2 O8"
_cell_length_a       17.807436237873137
_cell_length_b       9.272718291674593
_cell_length_c       10.302218930750287
_cell_angle_alpha    85.98261342229135
_cell_angle_beta     89.41007646359061
_cell_angle_gamma    87.96869977406762

_space_group_name_H-M_alt    "P 1"
_space_group_IT_number       1

loop_
  _space_group_symop_operation_xyz
  'x, y, z'

loop_
  _atom_site_type_symbol
  _atom_site_label
  _atom_site_symmetry_multiplicity
  _atom_site_fract_x
  _atom_site_fract_y
  _atom_site_fract_z
  _atom_site_occupancy
  N   N1        1.0  0.7011930263896538  0.5412274254100056  0.5680350128868483  1.0000
  C   C1        1.0  0.640754422935115  0.5021552932446636  0.5567463934563688  1.0000
  C   C2        1.0  0.5655754429665247  0.45355386368256334  0.5427045770038188  1.0000
  C   C3        1.0  0.5477710769569674  0.37427575489514386  0.43718507080688696  1.0000
  C   C4        1.0  0.47477662495728085  0.32696372389281536  0.42346792098977  1.0000
  C   C5        1.0  0.41853943398066057  0.35851060336289486  0.5152349645685725  1.0000
  C   C6        1.0  0.3409646703347199  0.30835768562103527  0.5007401135353058  1.0000
  C   C7        1.0  0.2784423777670613  0.3991337689771546  0.5272939254497555  1.0000
  C   C8        1.0  0.205306494389111  0.3515962841513587  0.5135889102691269  1.0000
  C   C9        1.0  0.1417226339515691  0.44536074343748994  0.5405269888701605  1.0000
  N   N2        1.0  0.0906142233812216  0.5207408814919741  0.5621844333562125  1.0000
  C   C10       1.0  0.1941104607174701  0.21299626289712958  0.4733027790797011  1.0000
  C   C11       1.0  0.2557754413428265  0.12220479973561571  0.44674047427472874  1.0000
  C   C12       1.0  0.328793547955469  0.16930422997551275  0.4602400028880393  1.0000
  C   C13       1.0  0.4370331240927283  0.4383376084171573  0.620977403107944  1.0000
  C   C14       1.0  0.5100812355546095  0.4854382578414555  0.6345374938383181  1.0000
  H   H1        1.0  0.5902492722128112  0.34932232043373296  0.3653192433190459  1.0000
  H   H2        1.0  0.4620791129341773  0.2673716184114965  0.34016008151068816  1.0000
  H   H3        1.0  0.28652705647955556  0.5073520447310185  0.5569045060470944  1.0000
  H   H4        1.0  0.1377894926144757  0.17520508476970775  0.4624518604182974  1.0000
  H   H5        1.0  0.24698867936928856  0.014897385505691094  0.4159360132251071  1.0000
  H   H6        1.0  0.3757129061771394  0.09630540458811286  0.44069668438304016  1.0000
  H   H7        1.0  0.39527435942770056  0.46269223795375214  0.6941333107101664  1.0000
  H   H8        1.0  0.5233016697422079  0.5463858892474004  0.7168132415592123  1.0000
  C   C15       1.0  0.8975430928654902  0.10751560693006999  0.5622170866413343  1.0000
  C   C16       1.0  0.8517232183458792  0.1912501902623933  0.4731801075555259  1.0000
  C   C17       1.0  0.8005884387141318  0.1264187545327049  0.39446723718990695  1.0000
  C   C18       1.0  0.7972644682421769  0.9753039760795353  0.4021076873624623  1.0000
  C   C19       1.0  0.8431399952901242  0.8906077591594603  0.48833437506978367  1.0000
  C   C20       1.0  0.8942713651710763  0.9544412519381517  0.568013488592295  1.0000
  C   C21       1.0  0.7534002734068662  0.21782370617998548  0.2971910044179313  1.0000
  F   F1        1.0  0.7341010016270747  0.35025218772418665  0.34466645150752656  1.0000
  F   F2        1.0  0.687803375207166  0.1498776414157512  0.2710509825665959  1.0000
  F   F3        1.0  0.7939144141489662  0.2404890665698829  0.18285402614170132  1.0000
  H   H9        1.0  0.9868144875528982  0.18147655013562386  0.8410726046032497  1.0000
  H   H10       1.0  0.8547214281710481  0.3080620651631736  0.4670922566561086  1.0000
  H   H11       1.0  0.7596944351665876  0.9221958292082794  0.34023822948220106  1.0000
  H   H12       1.0  0.8400734902017236  0.773999767554228  0.49012727886551133  1.0000
  H   H13       1.0  0.0556085023601025  0.8300199649229185  0.7218551223446523  1.0000
  C   C22       1.0  0.8958369144467871  0.5310496614325908  0.18384161391460863  1.0000
  C   C23       1.0  0.9668676041242967  0.4601354740218462  0.18609720672300534  1.0000
  C   C24       1.0  0.0021807414485044397  0.4243970208419108  0.07023974145266364  1.0000
  C   C25       1.0  0.9670515116418272  0.45994723702073825  0.9509389849548153  1.0000
  C   C26       1.0  0.8959775433068897  0.5309071908586466  0.9463889152080083  1.0000
  C   C27       1.0  0.8607479695366913  0.5660167073302812  0.06340035930659305  1.0000
  S   S1        1.0  0.09297876715769293  0.33442846001230486  0.07455942566971574  1.0000
  C   C28       1.0  0.05435457182148773  0.16127772872612067  0.086213486713276  1.0000
  N   N3        1.0  0.02901039518515369  0.04777066698012211  0.09385408860307431  1.0000
  H   H14       1.0  0.8688145461178337  0.5581047418887946  0.5103136089054315  1.0000
  H   H15       1.0  0.9950131455622938  0.43212343519516794  0.2775661217964642  1.0000
  H   H16       1.0  0.9953231086301183  0.431806105672057  0.8621379544968181  1.0000
  H   H17       1.0  0.8059646250746823  0.6206888078577008  0.060813913866373026  1.0000
  H   H18       1.0  0.7620459587997516  0.6647963823313119  0.7305855389195979  1.0000
  Zn  Zn1       1.0  0.81357158693687  0.5353116021458815  0.5663541445955258  1.0000
  Zn  Zn2       1.0  0.9782356920147983  0.5266449479763708  0.5638758951428124  1.0000
  C   C29       1.0  0.8959714872378628  0.5251894165346387  0.8022118580520239  1.0000
  C   C30       1.0  0.8958375828353718  0.5367688584316072  0.3280182945112291  1.0000
  C   C31       1.0  0.8948849799267277  0.7943554520611953  0.5617439903608028  1.0000
  C   C32       1.0  0.8969240406638289  0.26760109330449317  0.568486220411899  1.0000
  O   O1        1.0  0.9583270011787146  0.5353930319146325  0.375464779781024  1.0000
  O   O2        1.0  0.9584583187142086  0.5199863652650798  0.7528840575923432  1.0000
  O   O3        1.0  0.9575801081848075  0.7373413871063044  0.5587045760220088  1.0000
  O   O4        1.0  0.9592051554616056  0.31803802336471043  0.5696441649172734  1.0000
  O   O5        1.0  0.832602067298278  0.7439185297166166  0.5605858756599513  1.0000
  O   O6        1.0  0.8334802711185724  0.5265652404350243  0.754765299859723  1.0000
  O   O7        1.0  0.8333489535392704  0.5419718571217844  0.3773444606930645  1.0000
  O   O8        1.0  0.8342271078768868  0.32461683823963505  0.5715239431022848  1.0000
