data_image0
_chemical_formula_structural       NC9NC5H8C7H8C7H7Zn2C4O8
_chemical_formula_sum              "N2 C32 H23 Zn2 O8"
_cell_length_a       17.807436237873137
_cell_length_b       9.274341958901593
_cell_length_c       9.274345330872308
_cell_angle_alpha    85.08672685616447
_cell_angle_beta     88.93938532988027
_cell_angle_gamma    87.76967926577302

_space_group_name_H-M_alt    "P 1"
_space_group_IT_number       1

loop_
  _space_group_symop_operation_xyz
  'x, y, z'

loop_
  _atom_site_type_symbol
  _atom_site_label
  _atom_site_symmetry_multiplicity
  _atom_site_fract_x
  _atom_site_fract_y
  _atom_site_fract_z
  _atom_site_occupancy
  N   N1        1.0  0.7050840452383436  0.5537480089043496  0.3957390673153083  1.0000
  C   C1        1.0  0.6447655221436662  0.5147433672513826  0.3835063303040645  1.0000
  C   C2        1.0  0.5697359089971515  0.4662258885921218  0.368290133649708  1.0000
  C   C3        1.0  0.5525548774972912  0.3877528882272967  0.2516336143696949  1.0000
  C   C4        1.0  0.4797060495859263  0.3405229680151134  0.23676789823621183  1.0000
  C   C5        1.0  0.4229920421771812  0.3713468800088254  0.33852283632614144  1.0000
  C   C6        1.0  0.3455714355214806  0.32128063178452204  0.32281558194861515  1.0000
  C   C7        1.0  0.2827686579173266  0.4118972699125924  0.35159935913018137  1.0000
  C   C8        1.0  0.2097787363793011  0.3644416603504832  0.33674895494477775  1.0000
  C   C9        1.0  0.145907408753841  0.4580453875659105  0.36593572852406053  1.0000
  N   N2        1.0  0.0945678894296981  0.533296299315773  0.389401090197544  1.0000
  C   C10       1.0  0.1990097750642199  0.22608300586211216  0.29308673787250905  1.0000
  C   C11       1.0  0.2609553066034581  0.13545104724527193  0.2642936441809954  1.0000
  C   C12       1.0  0.33382916038065347  0.18246999721415103  0.27891916735033573  1.0000
  C   C13       1.0  0.4408604151259503  0.4503673080936659  0.4554227334956225  1.0000
  C   C14       1.0  0.5137639932866611  0.49738698817715266  0.4701155688166075  1.0000
  H   H1        1.0  0.5954069164925364  0.36336548253301726  0.17194793944214903  1.0000
  H   H2        1.0  0.4674954281987292  0.2815683240253432  0.14464312648365674  1.0000
  H   H3        1.0  0.29052835828216245  0.5199420066908831  0.3836400741776603  1.0000
  H   H4        1.0  0.1428046398328918  0.18835655879400814  0.281330200565858  1.0000
  H   H5        1.0  0.2524974200628758  0.02832738287590054  0.2309184242040119  1.0000
  H   H6        1.0  0.3809657545435199  0.10958475065273277  0.2577846550596006  1.0000
  H   H7        1.0  0.3987229228286622  0.4741451100941954  0.5365473276791288  1.0000
  H   H8        1.0  0.5264999142132224  0.5577063314301971  0.5610820878209456  1.0000
  C   C15       1.0  0.9022178781269197  0.11981895456054968  0.3927784238380798  1.0000
  C   C16       1.0  0.9116260255238499  0.20368105402752998  0.26048273428712476  1.0000
  C   C17       1.0  0.9135517401342916  0.13962625323087854  0.12970974678765382  1.0000
  C   C18       1.0  0.9052907738372526  0.9904431005832285  0.12810122253244294  1.0000
  C   C19       1.0  0.8982279664675855  0.9048581427403084  0.25929085515764716  1.0000
  C   C20       1.0  0.8974412291272819  0.9672137993728949  0.3923741851170266  1.0000
  C   C21       1.0  0.9090235583861397  0.9213308355598808  0.9875420699218435  1.0000
  H   H9        1.0  0.8383568729570962  0.19877120188155906  0.7281853049762801  1.0000
  H   H10       1.0  0.9158951458897725  0.32008360148929804  0.25793263008587264  1.0000
  H   H11       1.0  0.9206946972412304  0.2068942175102817  0.02939808891383788  1.0000
  H   H12       1.0  0.8950579119762819  0.7885347626753116  0.2574999582447064  1.0000
  H   H13       1.0  0.8574279405207856  0.6699839201434381  0.6200303112840078  1.0000
  H   H14       1.0  0.9682186207771464  0.8888564564365556  0.9629382182860384  1.0000
  H   H15       1.0  0.8874656012887069  0.9979693419140241  0.8978285155781669  1.0000
  H   H16       1.0  0.874327815174415  0.8239365066427957  0.9938793935317475  1.0000
  C   C22       1.0  0.9015114142213493  0.5466713123690566  0.9687446177445694  1.0000
  C   C23       1.0  0.8561901837478998  0.6506522518511986  0.03468388081063378  1.0000
  C   C24       1.0  0.8064412629838597  0.7432657796819285  0.9534085989566016  1.0000
  C   C25       1.0  0.8002689549161225  0.7329788241603272  0.8045708679124766  1.0000
  C   C26       1.0  0.8467326337520295  0.6329934736859977  0.736606420683068  1.0000
  C   C27       1.0  0.8981476878740061  0.5403614720592982  0.8164079219345335  1.0000
  C   C28       1.0  0.7479133113230871  0.8348166423841199  0.7168376499156719  1.0000
  H   H17       1.0  0.9895610955587569  0.22787025201537972  0.09582702082876571  1.0000
  H   H18       1.0  0.8580601372587245  0.6582943424363772  0.15046604039221093  1.0000
  H   H19       1.0  0.7720832467651311  0.8221210882577996  0.007086065708490351  1.0000
  H   H20       1.0  0.9601474521541471  0.3285721196721243  0.5516222551404574  1.0000
  H   H21       1.0  0.7780401038160232  0.933383450462668  0.6771664158192396  1.0000
  H   H22       1.0  0.6984287314905588  0.8667969085163053  0.7832011030470465  1.0000
  H   H23       1.0  0.7271002462164068  0.7826046600642005  0.6226050526526836  1.0000
  Zn  Zn1       1.0  0.8174806567436114  0.5478421752122202  0.3939184129301061  1.0000
  Zn  Zn2       1.0  0.982171278939555  0.539190283386177  0.39123361557163205  1.0000
  C   C29       1.0  0.8988142455083981  0.5358062575502054  0.6561842043591859  1.0000
  C   C30       1.0  0.900839477767151  0.5512279260307469  0.12896793561506792  1.0000
  C   C31       1.0  0.8983630861945324  0.8070811639473656  0.38669923916825244  1.0000
  C   C32       1.0  0.9012905903497667  0.2799512885082822  0.3984529794970171  1.0000
  O   O1        1.0  0.9631132380679395  0.5494675246724374  0.18172148114793485  1.0000
  O   O2        1.0  0.9615368645569797  0.5309989878192674  0.6013925448013373  1.0000
  O   O3        1.0  0.96117169923056  0.7500569385642955  0.383781541778092  1.0000
  O   O4        1.0  0.9634783475678511  0.33040958800674747  0.3993323768657413  1.0000
  O   O5        1.0  0.8361735319145097  0.7566228735457432  0.3858196525445938  1.0000
  O   O6        1.0  0.836538687771374  0.5375666568801123  0.6034305777854203  1.0000
  O   O7        1.0  0.8381150685015736  0.5560351563679335  0.1837577789034859  1.0000
  O   O8        1.0  0.8384801776271879  0.3369772085769987  0.40136878283532856  1.0000
