data_image0
_chemical_formula_structural       NC5NC4H6C6NH7C6ClH3Zn2C4O8
_chemical_formula_sum              "N3 C25 H16 Cl1 Zn2 O8"
_cell_length_a       13.854160002989762
_cell_length_b       9.274771166103582
_cell_length_c       9.276548810779733
_cell_angle_alpha    85.98017888068892
_cell_angle_beta     89.72476968690219
_cell_angle_gamma    90.59704847255895

_space_group_name_H-M_alt    "P 1"
_space_group_IT_number       1

loop_
  _space_group_symop_operation_xyz
  'x, y, z'

loop_
  _atom_site_type_symbol
  _atom_site_label
  _atom_site_symmetry_multiplicity
  _atom_site_fract_x
  _atom_site_fract_y
  _atom_site_fract_z
  _atom_site_occupancy
  N   N1        1.0  0.9249415738373151  0.5641179593644772  0.40769385114602963  1.0000
  C   C1        1.0  0.8529710260587551  0.588795387331024  0.3486269195519116  1.0000
  C   C2        1.0  0.7634386582908248  0.619494771032336  0.2751453955089753  1.0000
  C   C3        1.0  0.6754355338905415  0.5906609548972914  0.34689148754097765  1.0000
  C   C4        1.0  0.5882962460926633  0.6194947851527921  0.27514537232023484  1.0000
  C   C5        1.0  0.4978628833769004  0.5887952408220734  0.3486270114030632  1.0000
  N   N2        1.0  0.4251680027963624  0.5641178958556423  0.4076938511752315  1.0000
  C   C6        1.0  0.5891968916272314  0.6777691006615327  0.13167104554177156  1.0000
  C   C7        1.0  0.6771826236220452  0.7087524735015167  0.059817636673095365  1.0000
  C   C8        1.0  0.6780885119800657  0.7671631166871267  0.90485882273581  1.0000
  C   C9        1.0  0.7642739809381495  0.6777690985120726  0.1316709553048678  1.0000
  H   H1        1.0  0.6747629787469315  0.5454464546651296  0.45793818490490734  1.0000
  H   H2        1.0  0.5216514333481567  0.6990515077680391  0.07600570901270487  1.0000
  H   H3        1.0  0.7434937086683665  0.83511858717128  0.8809581069711457  1.0000
  H   H4        1.0  0.6137852308176897  0.8351185896424463  0.880958172024509  1.0000
  H   H5        1.0  0.6776819176727003  0.6759698957401832  0.8335006174085906  1.0000
  H   H6        1.0  0.8324743934848426  0.6990516194916719  0.07600562341799355  1.0000
  C   C10       1.0  0.1720935790117739  0.14052854553335825  0.408479277497515  1.0000
  C   C11       1.0  0.15028857617854796  0.22266047111645706  0.279621655537708  1.0000
  C   C12       1.0  0.1374981241101716  0.1564267918420028  0.14994648845999814  1.0000
  C   C13       1.0  0.1465662373892027  0.006675136012073154  0.14818969400233126  1.0000
  C   C14       1.0  0.16659194691603063  0.9232076163986357  0.275277188881782  1.0000
  C   C15       1.0  0.17802513791313224  0.9876963518179229  0.40692097235432856  1.0000
  N   N3        1.0  0.116290615048255  0.24164528128992505  0.019672646627180154  1.0000
  H   H7        1.0  0.27972808981790953  0.22306890857064035  0.7238335254542668  1.0000
  H   H8        1.0  0.14542351811478751  0.3392481248142607  0.27906814868656893  1.0000
  H   H9        1.0  0.13718211338757302  0.9542767188406398  0.0484177359283855  1.0000
  H   H10       1.0  0.1708587191653659  0.8070059114032354  0.2711503997194835  1.0000
  H   H11       1.0  0.24660238296330328  0.6925894920004457  0.6214735173774864  1.0000
  H   H12       1.0  0.10964045588141769  0.35371875600822067  0.019625844644219237  1.0000
  H   H13       1.0  0.10698989125473085  0.1932857138210513  0.9222703912583884  1.0000
  C   C16       1.0  0.17639279279978148  0.5602479688553158  0.9845578647996674  1.0000
  C   C17       1.0  0.2577441058932912  0.6150806278947096  0.05356347939420213  1.0000
  C   C18       1.0  0.3337570700390664  0.6806642600718781  0.9732103736113585  1.0000
  C   C19       1.0  0.32955964937412685  0.692519138153801  0.8227490406618023  1.0000
  C   C20       1.0  0.2503044006298145  0.6366746627290256  0.7520961810880311  1.0000
  C   C21       1.0  0.1737258846841112  0.567976832555708  0.8308423849015467  1.0000
  Cl  Cl1       1.0  0.4338916659802563  0.7501196043318346  0.061587085777396355  1.0000
  H   H14       1.0  0.05815004214774255  0.39879476959441057  0.2778569856518216  1.0000
  H   H15       1.0  0.3881961893466941  0.743833189484143  0.7601653987590482  1.0000
  H   H16       1.0  0.018306658899226225  0.5150927844692577  0.5543435548022737  1.0000
  Zn  Zn1       1.0  0.06929606801253407  0.5641141552145523  0.40770218834077493  1.0000
  Zn  Zn2       1.0  0.28081338985749243  0.5641100042209302  0.4076973697380568  1.0000
  C   C22       1.0  0.17418761854175116  0.5607695134816313  0.6708870348769367  1.0000
  C   C23       1.0  0.17592416138830758  0.5674564672277078  0.14451266122991657  1.0000
  C   C24       1.0  0.1769170618454198  0.8275111316315831  0.4014734651048472  1.0000
  C   C25       1.0  0.17319463353238634  0.30071311674053264  0.4139263110142161  1.0000
  O   O1        1.0  0.256036561652931  0.5698678368683009  0.19819313505812342  1.0000
  O   O2        1.0  0.25461196506785555  0.5583539013592715  0.6172024910470959  1.0000
  O   O3        1.0  0.2568149382582985  0.7737511451283563  0.3996491245761581  1.0000
  O   O4        1.0  0.2538335166986685  0.35447060243264494  0.41574639347110054  1.0000
  O   O5        1.0  0.09627586899091177  0.7737535570057554  0.399653164601794  1.0000
  O   O6        1.0  0.0940729081722753  0.5583580455768116  0.6172064510545832  1.0000
  O   O7        1.0  0.09549750992897893  0.5698719149978109  0.19819536272900937  1.0000
  O   O8        1.0  0.09329446455808976  0.35447467123164356  0.4157487291940098  1.0000
