data_image0
_chemical_formula_structural       NC12NC2H8C6NCSNH8C7N4H6Zn2C4O8
_chemical_formula_sum              "N8 C32 H22 S1 Zn2 O8"
_cell_length_a       17.80743265337812
_cell_length_b       9.275078345756787
_cell_length_c       9.274190830515497
_cell_angle_alpha    84.98986150033677
_cell_angle_beta     91.08905223573421
_cell_angle_gamma    90.00966593732542

_space_group_name_H-M_alt    "P 1"
_space_group_IT_number       1

loop_
  _space_group_symop_operation_xyz
  'x, y, z'

loop_
  _atom_site_type_symbol
  _atom_site_label
  _atom_site_symmetry_multiplicity
  _atom_site_fract_x
  _atom_site_fract_y
  _atom_site_fract_z
  _atom_site_occupancy
  N   N1        1.0  0.7217999771200667  0.5729950203435762  0.4416731861305116  1.0000
  C   C1        1.0  0.6714584040764993  0.6063466611174111  0.3652568547459156  1.0000
  C   C2        1.0  0.6088284213079659  0.647833653554038  0.2702045530615913  1.0000
  C   C3        1.0  0.621433902908607  0.7087941095252301  0.12936182583408629  1.0000
  C   C4        1.0  0.5606918690647561  0.7485929103776707  0.036976157418368905  1.0000
  C   C5        1.0  0.4871945263541256  0.7277288870327203  0.08469924530072158  1.0000
  C   C6        1.0  0.4736094889857386  0.6666329275498273  0.22606244612341217  1.0000
  C   C7        1.0  0.5352089316642213  0.6268378659931466  0.3184297600457129  1.0000
  C   C8        1.0  0.3955247004422648  0.6445097635445987  0.27696678511606243  1.0000
  C   C9        1.0  0.3763265930400567  0.6737419445861337  0.4180258429815997  1.0000
  C   C10       1.0  0.30279936234524507  0.6529237886455701  0.46579386497464026  1.0000
  C   C11       1.0  0.24752205186809437  0.6025846807901567  0.3734346002385103  1.0000
  C   C12       1.0  0.1718487568266863  0.5811418849456429  0.42276077191422745  1.0000
  N   N2        1.0  0.11101278569513241  0.5639033197339188  0.46241562072233755  1.0000
  C   C13       1.0  0.2660252614706084  0.5731607734439101  0.23297930529650276  1.0000
  C   C14       1.0  0.3395008679404526  0.5939972917075231  0.1849269498109427  1.0000
  H   H1        1.0  0.6781391917681299  0.7255198112279568  0.0910561766660849  1.0000
  H   H2        1.0  0.5705703323622665  0.7960910315871882  0.9282125591776942  1.0000
  H   H3        1.0  0.4410196320893601  0.7611420504604864  0.011735558650864727  1.0000
  H   H4        1.0  0.5260214280445146  0.5778020421604889  0.42705945811835083  1.0000
  H   H5        1.0  0.4179236224832131  0.7145393341677011  0.4907597383582643  1.0000
  H   H6        1.0  0.2890430703026649  0.6764442589902737  0.5746116968549047  1.0000
  H   H7        1.0  0.2237168048523272  0.5337678082241872  0.16070021079643304  1.0000
  H   H8        1.0  0.3527185616251405  0.5687690067988986  0.07645094929014218  1.0000
  C   C15       1.0  0.9142107435547345  0.14486723650404112  0.4532606940742143  1.0000
  C   C16       1.0  0.8900527798745804  0.2290506867559805  0.3276330588385283  1.0000
  C   C17       1.0  0.873385805184072  0.16521944369543687  0.20017215275655298  1.0000
  C   C18       1.0  0.8813211502002396  0.015500958059216247  0.19475248244881693  1.0000
  C   C19       1.0  0.9027636879542716  0.9298896807750819  0.32063537776507833  1.0000
  C   C20       1.0  0.9186090907048031  0.9920197988497742  0.4508409266028004  1.0000
  N   N3        1.0  0.8634279158268698  0.9473813694058686  0.06503378521807335  1.0000
  C   C21       1.0  0.8737076259498784  0.014668841755608456  0.9214214602372612  1.0000
  S   S1        1.0  0.8251770386027479  0.956803456894362  0.7863690207800897  1.0000
  N   N4        1.0  0.93157064841837  0.11952723330266313  0.8921606992186448  1.0000
  H   H9        1.0  0.9180258057083137  0.4052544205572808  0.6919336568851879  1.0000
  H   H10       1.0  0.8853697098167966  0.34555162828869845  0.3270657969190305  1.0000
  H   H11       1.0  0.8540770176631759  0.2330054122836709  0.10584571832675736  1.0000
  H   H12       1.0  0.9058929347527676  0.8135584978760876  0.3171250423907006  1.0000
  H   H13       1.0  0.9835779477607298  0.6931317886130323  0.6568086362879109  1.0000
  H   H14       1.0  0.8421970257905463  0.8419699163900747  0.07581141638496836  1.0000
  H   H15       1.0  0.9699190335267507  0.14413570577762425  0.9728662585346853  1.0000
  H   H16       1.0  0.9385772219629894  0.16836231199355844  0.7875085240511845  1.0000
  C   C22       1.0  0.9181214455189988  0.5713476879343898  0.028348689147326796  1.0000
  C   C23       1.0  0.9661023001447201  0.47563917343582696  0.11170111192030995  1.0000
  C   C24       1.0  0.00806109594159987  0.3726279735057001  0.0473559038254463  1.0000
  C   C25       1.0  0.0031761336873845636  0.36218549513183534  0.8976191105601252  1.0000
  C   C26       1.0  0.9564544623846338  0.4593567305235653  0.8128546862035558  1.0000
  C   C27       1.0  0.9146983726799176  0.5655393762242862  0.8757529558295042  1.0000
  C   C28       1.0  0.04774262913925997  0.2508076974680902  0.8316105107861298  1.0000
  N   N5        1.0  0.09675623625131657  0.1601501409874122  0.9055971900119797  1.0000
  N   N6        1.0  0.12400978727554879  0.07877566472717068  0.8082282420094411  1.0000
  N   N7        1.0  0.09326108128949206  0.11699435743395693  0.6794633898496745  1.0000
  N   N8        1.0  0.04550920387205992  0.22405603848385724  0.6912687559144106  1.0000
  H   H17       1.0  0.8644032772869423  0.7863904504130215  0.28895623622641686  1.0000
  H   H18       1.0  0.9698729825030722  0.47801123291896763  0.22820045215362095  1.0000
  H   H19       1.0  0.043813428080495376  0.29976250229053414  0.11560210319760622  1.0000
  H   H20       1.0  0.9537642610214373  0.45576671583477557  0.6966684150174345  1.0000
  H   H21       1.0  0.8117253649424331  0.7010948288180586  0.5801356767431053  1.0000
  H   H22       1.0  0.013371577996173391  0.2738694889830673  0.6058430204522426  1.0000
  Zn  Zn1       1.0  0.8341183359594608  0.5703674438592535  0.4476673336991985  1.0000
  Zn  Zn2       1.0  0.9986943157334893  0.5665190495243448  0.45643327567620373  1.0000
  C   C29       1.0  0.9153139160664755  0.5608909285374393  0.7155917353131216  1.0000
  C   C30       1.0  0.9175005416682918  0.5759973418459754  0.1885091062032691  1.0000
  C   C31       1.0  0.9177970766156206  0.8319294148577618  0.44554850210892205  1.0000
  C   C32       1.0  0.9150173156524747  0.3049571233024835  0.4585524182906342  1.0000
  O   O1        1.0  0.9797478546211461  0.576091069709721  0.24558705252132104  1.0000
  O   O2        1.0  0.9779759597612347  0.5578752731003085  0.6651665238894775  1.0000
  O   O3        1.0  0.9799802953151554  0.77674228795762  0.4471046533472371  1.0000
  O   O4        1.0  0.9777434633991674  0.357224067225665  0.4636488118592852  1.0000
  O   O5        1.0  0.8550691321321167  0.7796624274728238  0.44045179451713795  1.0000
  O   O6        1.0  0.8530648058832022  0.5607971461535723  0.6585135831772335  1.0000
  O   O7        1.0  0.8548367075394104  0.5790129043868633  0.23893237723393468  1.0000
  O   O8        1.0  0.8528323158238237  0.3601458908444426  0.45699424477719597  1.0000
