data_image0
_chemical_formula_structural       NC6NC2H4C7NH3C6BrH4Zn2C4O8
_chemical_formula_sum              "N3 C25 H11 Br1 Zn2 O8"
_cell_length_a       14.927258858638513
_cell_length_b       9.275154477615127
_cell_length_c       9.27656775626242
_cell_angle_alpha    86.34818767424132
_cell_angle_beta     90.18620734994761
_cell_angle_gamma    89.43371000992973

_space_group_name_H-M_alt    "P 1"
_space_group_IT_number       1

loop_
  _space_group_symop_operation_xyz
  'x, y, z'

loop_
  _atom_site_type_symbol
  _atom_site_label
  _atom_site_symmetry_multiplicity
  _atom_site_fract_x
  _atom_site_fract_y
  _atom_site_fract_z
  _atom_site_occupancy
  N   N1        1.0  0.8307761985411384  0.5623850479281  0.41683161463897456  1.0000
  C   C1        1.0  0.7532497075690321  0.5623850195273163  0.416831625110192  1.0000
  C   C2        1.0  0.6568171992212998  0.5623851341163086  0.41683157572746454  1.0000
  C   C3        1.0  0.6096619555213125  0.5374586962238059  0.2901054667170757  1.0000
  C   C4        1.0  0.5159506437591671  0.5374587205486541  0.2901053334171297  1.0000
  C   C5        1.0  0.46900113635483004  0.5623849567813042  0.4168315936450342  1.0000
  C   C6        1.0  0.3725685610155326  0.5623850713732022  0.4168315442563968  1.0000
  N   N2        1.0  0.2950420700434263  0.5623850429724184  0.41683155472761424  1.0000
  C   C7        1.0  0.5161563130632518  0.5873113946767128  0.5435577026495133  1.0000
  C   C8        1.0  0.6098676248253971  0.5873113703518644  0.5435578359494593  1.0000
  H   H1        1.0  0.6452781141304101  0.518064520914526  0.19150528084103668  1.0000
  H   H2        1.0  0.48017445739834225  0.5180647183674516  0.19150527669093775  1.0000
  H   H3        1.0  0.48054022171696537  0.6067055607282983  0.6421579965239688  1.0000
  H   H4        1.0  0.6456438108027053  0.6067054709209599  0.6421580030437539  1.0000
  C   C9        1.0  0.06550250385899381  0.1389794122654222  0.41516417014686957  1.0000
  C   C10       1.0  0.040663726814128366  0.22091442152115515  0.28811724070038136  1.0000
  C   C11       1.0  0.00855147479692464  0.1536978219945735  0.16780017717397433  1.0000
  C   C12       1.0  0.0007503631511087675  0.0036293225489842976  0.1731130487926702  1.0000
  C   C13       1.0  0.02641374964191435  0.9204582804889061  0.29726404455112476  1.0000
  C   C14       1.0  0.060324450414268385  0.985779708318949  0.41851148181824777  1.0000
  C   C15       1.0  0.9825178630726707  0.23919964924969195  0.0392220009984059  1.0000
  N   N3        1.0  0.9615940551637954  0.307927534830359  0.9358780823568558  1.0000
  H   H5        1.0  0.08356606851518045  0.21911395935468359  0.7688608753280851  1.0000
  H   H6        1.0  0.9755927412723454  0.9505972456899435  0.0806418289971802  1.0000
  H   H7        1.0  0.07628640362956185  0.689330099288225  0.6554983347818495  1.0000
  C   C16       1.0  0.06208371015913475  0.5582360293130304  0.9936946733971252  1.0000
  C   C17       1.0  0.9822638774474882  0.5929464146347063  0.06444272038354404  1.0000
  C   C18       1.0  0.9063522851691563  0.6395334454062229  0.9859258859760981  1.0000
  C   C19       1.0  0.9088342559724419  0.65235367750286  0.8354807184326161  1.0000
  C   C20       1.0  0.9869073541537665  0.6160857611698771  0.7629994525300896  1.0000
  C   C21       1.0  0.06374326873173519  0.5665231147216453  0.839980953633185  1.0000
  Br  Br1       1.0  0.804928360436872  0.717274883763253  0.7284871210798802  1.0000
  H   H8        1.0  0.18612404865429666  0.42727545719156296  0.28401118806052406  1.0000
  H   H9        1.0  0.8457884051485297  0.6670235629704993  0.04235194110001994  1.0000
  H   H10       1.0  0.9867213262487167  0.6234508249401796  0.6459781023082772  1.0000
  H   H11       1.0  0.21123459842176456  0.5516346692832905  0.5605273605612484  1.0000
  Zn  Zn1       1.0  0.9647533482935139  0.5623812645280466  0.41683990817785704  1.0000
  Zn  Zn2       1.0  0.1610650265693716  0.5623771320212785  0.4168350347133998  1.0000
  C   C22       1.0  0.06346267626912239  0.5592126871090168  0.6799920049085075  1.0000
  C   C23       1.0  0.06235783146414909  0.5655475300181201  0.15368308654950535  1.0000
  C   C24       1.0  0.06128733778863363  0.8256601799406906  0.41213668577510054  1.0000
  C   C25       1.0  0.06453311370051719  0.2990983056516621  0.4215384756599725  1.0000
  O   O1        1.0  0.13694912636098744  0.5679934779280269  0.20737478519690544  1.0000
  O   O2        1.0  0.13786740867843683  0.5567625109469324  0.6262961883185769  1.0000
  O   O3        1.0  0.13610979399698353  0.7719222457898021  0.410001128948561  1.0000
  O   O4        1.0  0.13870667377962964  0.35283375234285197  0.42366973656850426  1.0000
  O   O5        1.0  0.9871116340916901  0.7719246442093786  0.41000520631684223  1.0000
  O   O6        1.0  0.9888692380256987  0.5567666409041983  0.626300195703888  1.0000
  O   O7        1.0  0.9879509526778448  0.5679975406765478  0.20737705995091815  1.0000
  O   O8        1.0  0.9897085003677325  0.3528378058365838  0.42367211931502435  1.0000
