data_image0
_chemical_formula_structural       NC9NC5H8C6NO2H5C8H6Zn2C4O8
_chemical_formula_sum              "N3 C32 H19 O10 Zn2"
_cell_length_a       17.807436237873137
_cell_length_b       9.273392599741051
_cell_length_c       9.275144076552241
_cell_angle_alpha    86.08729211106984
_cell_angle_beta     89.86257050345318
_cell_angle_gamma    87.79638846343423

_space_group_name_H-M_alt    "P 1"
_space_group_IT_number       1

loop_
  _space_group_symop_operation_xyz
  'x, y, z'

loop_
  _atom_site_type_symbol
  _atom_site_label
  _atom_site_symmetry_multiplicity
  _atom_site_fract_x
  _atom_site_fract_y
  _atom_site_fract_z
  _atom_site_occupancy
  N   N1        1.0  0.6924539201403348  0.5308232400743099  0.40208322906837646  1.0000
  C   C1        1.0  0.6320267151674408  0.4916491303434334  0.3897606041292754  1.0000
  C   C2        1.0  0.5568619135794616  0.4429208517891452  0.3744325968170643  1.0000
  C   C3        1.0  0.538715869192949  0.36280093137970093  0.2577168490918007  1.0000
  C   C4        1.0  0.46573500806714857  0.31536504886275335  0.24274235999468494  1.0000
  C   C5        1.0  0.4098535875094043  0.34762945372349147  0.3444466612681554  1.0000
  C   C6        1.0  0.3322934337395705  0.2973456008783904  0.3286240340650177  1.0000
  C   C7        1.0  0.2697461031805913  0.388361121353366  0.3576161599080647  1.0000
  C   C8        1.0  0.19662421766290525  0.34069979042229637  0.34265634889647867  1.0000
  C   C9        1.0  0.13301233172978258  0.4347078043232242  0.3720590603338998  1.0000
  N   N2        1.0  0.0818813954265433  0.5102837518373962  0.39569801947597805  1.0000
  C   C10       1.0  0.1854675482948767  0.2017361644972855  0.29867563466151714  1.0000
  C   C11       1.0  0.2471575535171508  0.11070519295611891  0.2696741629628443  1.0000
  C   C12       1.0  0.3201614415495825  0.15792671944506576  0.2844082028414412  1.0000
  C   C13       1.0  0.4286890800083565  0.42830019751584714  0.4614069537304398  1.0000
  C   C14       1.0  0.5017232384063538  0.4755234090865719  0.4762082188090402  1.0000
  H   H1        1.0  0.5809158375672332  0.33728548225312127  0.17807015212672406  1.0000
  H   H2        1.0  0.4527630407724966  0.2551094997764878  0.15057901588047296  1.0000
  H   H3        1.0  0.2777919008994698  0.49684912179376384  0.38990830598239223  1.0000
  H   H4        1.0  0.1291579035346825  0.16384687166349088  0.2868320555540642  1.0000
  H   H5        1.0  0.23840297286331494  0.0031192339278891578  0.2360517795083441  1.0000
  H   H6        1.0  0.3671089282155135  0.08474925959685932  0.26310344548377307  1.0000
  H   H7        1.0  0.3872151775386884  0.4532265227174342  0.5424890113026282  1.0000
  H   H8        1.0  0.5152114455914681  0.537127080597431  0.5672185510359966  1.0000
  C   C15       1.0  0.889458146936494  0.09689771911872815  0.3979466785625647  1.0000
  C   C16       1.0  0.8793434027327158  0.17984761319640907  0.266441157670005  1.0000
  C   C17       1.0  0.8626171247352743  0.11473780925056333  0.13982181622473178  1.0000
  C   C18       1.0  0.8554546173896898  0.964708285658861  0.14117749608812602  1.0000
  C   C19       1.0  0.8667373220093711  0.8805213226050406  0.2716587219375719  1.0000
  C   C20       1.0  0.8848844587137039  0.9441978778924444  0.3998469086516865  1.0000
  N   N3        1.0  0.8375415513947675  0.8982137991420192  0.010351029447095652  1.0000
  O   O1        1.0  0.8271515794124162  0.980956086233683  0.8825532384547733  1.0000
  O   O2        1.0  0.8309253936490558  0.7646311276558482  0.010689626331497497  1.0000
  H   H9        1.0  0.8756215265162778  0.1766066586251063  0.7519467516868119  1.0000
  H   H10       1.0  0.8826107000966483  0.2964875816298936  0.26212891339447086  1.0000
  H   H11       1.0  0.854528590463888  0.18238189300480157  0.04088670154118069  1.0000
  H   H12       1.0  0.863112086422123  0.7641176257084331  0.2727442026311231  1.0000
  H   H13       1.0  0.8781321508851496  0.648157927302834  0.6390519554245861  1.0000
  C   C21       1.0  0.8854172584242068  0.5176889685271082  0.9756337086498852  1.0000
  C   C22       1.0  0.8359155011484226  0.6143601325231881  0.042621763501286214  1.0000
  C   C23       1.0  0.792404733444647  0.7178613271409078  0.9606180963627438  1.0000
  C   C24       1.0  0.7976074225155093  0.726803486202694  0.8101221726028024  1.0000
  C   C25       1.0  0.8455497434978786  0.6301088034076874  0.7414036260664645  1.0000
  C   C26       1.0  0.8889253457586639  0.5234067009053458  0.8221599539595882  1.0000
  C   C27       1.0  0.7529838521655564  0.8343280902641846  0.7257753801177773  1.0000
  C   C28       1.0  0.7156250840451343  0.9243513675201206  0.6551411616199676  1.0000
  H   H14       1.0  0.04265334792742047  0.32006548103212906  0.09125168116336546  1.0000
  H   H15       1.0  0.8321698868918709  0.6121331726024792  0.15934807683578778  1.0000
  H   H16       1.0  0.7551996564109155  0.7919378564021501  0.014821905133115985  1.0000
  H   H17       1.0  0.8476716848823089  0.6359899913337939  0.6242971372547376  1.0000
  H   H18       1.0  0.9931881995245344  0.38585229835320956  0.5503517150089929  1.0000
  H   H19       1.0  0.6828318434254115  0.003372611164573775  0.5931375037167651  1.0000
  Zn  Zn1       1.0  0.8048343315427315  0.5248921942275506  0.40024892274355883  1.0000
  Zn  Zn2       1.0  0.9695010784121677  0.5162031177349585  0.3975441488868492  1.0000
  C   C29       1.0  0.8882915882236196  0.5165786407339326  0.6621354685054088  1.0000
  C   C30       1.0  0.8860456106473297  0.5245183976117025  0.13565771914032254  1.0000
  C   C31       1.0  0.8857213114647285  0.7840015487672769  0.3937441377000632  1.0000
  C   C32       1.0  0.8886158408917607  0.2570937597512209  0.4040491238259204  1.0000
  O   O3        1.0  0.9487466976370289  0.5235066631877978  0.18833677720009523  1.0000
  O   O4        1.0  0.9505687561341127  0.5109944759935274  0.6074031323179027  1.0000
  O   O5        1.0  0.9484923889591631  0.7269419108288759  0.3906752509808744  1.0000
  O   O6        1.0  0.9508230081188049  0.3075592409078305  0.4050645514117437  1.0000
  O   O7        1.0  0.8235123456433756  0.7335360740213526  0.3927285211340934  1.0000
  O   O8        1.0  0.8255887031400664  0.5175903719798163  0.6094563295062987  1.0000
  O   O9        1.0  0.8237666377829315  0.5301024971927466  0.19038824135105115  1.0000
  O   O10       1.0  0.8258429487651621  0.31415506532407367  0.4071161236035079  1.0000
