data_image0
_chemical_formula_structural       NC8NH4C6NCH9C6NH7Zn2C4O8
_chemical_formula_sum              "N4 C25 H20 Zn2 O8"
_cell_length_a       13.859017124695912
_cell_length_b       9.273386996610926
_cell_length_c       9.274774538082514
_cell_angle_alpha    84.97283399596293
_cell_angle_beta     90.34965622944028
_cell_angle_gamma    89.39861590222965

_space_group_name_H-M_alt    "P 1"
_space_group_IT_number       1

loop_
  _space_group_symop_operation_xyz
  'x, y, z'

loop_
  _atom_site_type_symbol
  _atom_site_label
  _atom_site_symmetry_multiplicity
  _atom_site_fract_x
  _atom_site_fract_y
  _atom_site_fract_z
  _atom_site_occupancy
  N   N1        1.0  0.8908910798022949  0.592757850701347  0.4054224938314561  1.0000
  C   C1        1.0  0.8184642184636247  0.5703794844507126  0.349223435355966  1.0000
  C   C2        1.0  0.7283695053094689  0.5425440803259658  0.27931902868325587  1.0000
  C   C3        1.0  0.640842047786327  0.5696807986674277  0.3474670290032326  1.0000
  C   C4        1.0  0.5531391744243801  0.5425453116757362  0.2793184466040668  1.0000
  C   C5        1.0  0.5531461335005613  0.4882657858864359  0.14300094369175673  1.0000
  C   C6        1.0  0.6404913696184414  0.4612333626275664  0.07511526353147313  1.0000
  C   C7        1.0  0.7280115137892174  0.4882634252437119  0.14300212745899743  1.0000
  C   C8        1.0  0.4632243711621674  0.5703804157055332  0.34922293515926706  1.0000
  N   N2        1.0  0.39094220222518483  0.5927581753197566  0.40542227700728745  1.0000
  H   H1        1.0  0.6409778584500688  0.6116952901977323  0.45298004076364945  1.0000
  H   H2        1.0  0.4857816411534418  0.4669082326425298  0.08936100401159018  1.0000
  H   H3        1.0  0.6403558947427787  0.41930470873512277  0.9698159322022963  1.0000
  H   H4        1.0  0.7952378981090312  0.4669037617450482  0.08936319177933026  1.0000
  C   C9        1.0  0.1438913317800894  0.16909786591061413  0.40613161083036675  1.0000
  C   C10       1.0  0.16029232245111416  0.2537096221490686  0.27563562182952284  1.0000
  C   C11       1.0  0.16760829803953992  0.19034295364798118  0.14513156968280058  1.0000
  C   C12       1.0  0.1586283033658653  0.040071403397625494  0.14178682112105445  1.0000
  C   C13       1.0  0.14392582421087852  0.9545006806843467  0.271829495651882  1.0000
  C   C14       1.0  0.1379512908695406  0.0164069585391795  0.4047257079911728  1.0000
  N   N3        1.0  0.16511742957088127  0.97169176795493  0.008588384113577202  1.0000
  C   C15       1.0  0.1806072921328974  0.050814480877000814  0.8677482698934398  1.0000
  H   H5        1.0  0.1645868356764264  0.4291796321851069  0.643081074717331  1.0000
  H   H6        1.0  0.1652063918280402  0.3703709350651449  0.2738649477773971  1.0000
  H   H7        1.0  0.1793699638720032  0.2597986091118596  0.047096512950226536  1.0000
  H   H8        1.0  0.13936204510324002  0.8381194306314307  0.26955268848281494  1.0000
  H   H9        1.0  0.17493558036618606  0.8819845415067619  0.7562493186971281  1.0000
  H   H10       1.0  0.15830820757175323  0.8592985839891045  0.01158120890485081  1.0000
  H   H11       1.0  0.12068712583459984  0.1296063232168183  0.8426720653247322  1.0000
  H   H12       1.0  0.25044706991485755  0.10836425063444598  0.8679811359162554  1.0000
  H   H13       1.0  0.1826853681789149  0.9741217798546582  0.7823059840625382  1.0000
  C   C16       1.0  0.13916381547762113  0.5964423556939837  0.9816062085641492  1.0000
  C   C17       1.0  0.20693725086916895  0.6815792395311775  0.04820142196156029  1.0000
  C   C18       1.0  0.27912279009283747  0.7548319571638216  0.9673149265927634  1.0000
  C   C19       1.0  0.28412136252957776  0.7432800186485627  0.8183566773957622  1.0000
  C   C20       1.0  0.216635212795941  0.6613212724303579  0.7500536278475772  1.0000
  C   C21       1.0  0.1426788186364008  0.5890624481961971  0.8292510789238308  1.0000
  N   N4        1.0  0.34800533363670616  0.8397681298883959  0.03691571771133507  1.0000
  H   H14       1.0  0.9969134029222496  0.3144185077552476  0.10799454354906855  1.0000
  H   H15       1.0  0.2051524328775074  0.6884216003163135  0.16421019855807417  1.0000
  H   H16       1.0  0.33985974336682623  0.799020451564099  0.7547333933217808  1.0000
  H   H17       1.0  0.22096598085046848  0.6573082182788414  0.6338872353406417  1.0000
  H   H18       1.0  0.0438740151131094  0.40350148291419063  0.5634772395099782  1.0000
  H   H19       1.0  0.3451399712434764  0.8488152881148534  0.14827062988181325  1.0000
  H   H20       1.0  0.4023589805503993  0.8943740438906302  0.977583001364961  1.0000
  Zn  Zn1       1.0  0.0351950966267216  0.5927540199426249  0.405430776606207  1.0000
  Zn  Zn2       1.0  0.24663830935658626  0.5927501342951297  0.40542585116952873  1.0000
  C   C22       1.0  0.14205255247025467  0.5847100359399247  0.6690375866352728  1.0000
  C   C23       1.0  0.13978315029243227  0.600795937353304  0.14181917972208025  1.0000
  C   C24       1.0  0.13904528528282745  0.8562975906924688  0.39924016482247193  1.0000
  C   C25       1.0  0.14279035779957527  0.3292066486027809  0.41161668135884777  1.0000
  O   O1        1.0  0.22023264612342183  0.6022492705125493  0.19558625767232368  1.0000
  O   O2        1.0  0.2220835685454341  0.5832526689143069  0.6152663567363557  1.0000
  O   O3        1.0  0.21965408678750253  0.8025630410246699  0.3974030272970938  1.0000
  O   O4        1.0  0.22266205520901375  0.38293890966610444  0.4134494788818446  1.0000
  O   O5        1.0  0.05917127861906035  0.8025652445746134  0.39740714888797757  1.0000
  O   O6        1.0  0.06160074790204262  0.5832566064651913  0.61527039849736  1.0000
  O   O7        1.0  0.059749818701070545  0.602253172896223  0.19558856430284322  1.0000
  O   O8        1.0  0.0621792283037681  0.3829428007888226  0.4134518937361922  1.0000
