data_image0
_chemical_formula_structural       NC9NC5H8C12H10C7F3H5Zn2C4O8
_chemical_formula_sum              "N2 C37 H23 F3 Zn2 O8"
_cell_length_a       17.807436237873137
_cell_length_b       10.299137764757564
_cell_length_c       9.272721663655245
_cell_angle_alpha    85.85599579155343
_cell_angle_beta     89.9168972107098
_cell_angle_gamma    88.40860916225229

_space_group_name_H-M_alt    "P 1"
_space_group_IT_number       1

loop_
  _space_group_symop_operation_xyz
  'x, y, z'

loop_
  _atom_site_type_symbol
  _atom_site_label
  _atom_site_symmetry_multiplicity
  _atom_site_fract_x
  _atom_site_fract_y
  _atom_site_fract_z
  _atom_site_occupancy
  N   N1        1.0  0.7001510805615039  0.3802471054400225  0.39751623448414275  1.0000
  C   C1        1.0  0.6394994933842955  0.34499686676104213  0.3852910700086536  1.0000
  C   C2        1.0  0.5640555850339503  0.3011494517138762  0.3700842927736979  1.0000
  C   C3        1.0  0.5454034901881207  0.2291761383876718  0.25353449386396704  1.0000
  C   C4        1.0  0.4721508976007621  0.18649173698419075  0.23867800017978946  1.0000
  C   C5        1.0  0.4165014414148348  0.2154029222938152  0.34033542671433037  1.0000
  C   C6        1.0  0.3386532681060245  0.1701557539378593  0.3246378977374127  1.0000
  C   C7        1.0  0.2766274445517836  0.25205423272461536  0.35340372006541254  1.0000
  C   C8        1.0  0.2032325803346169  0.20916685137453594  0.3385624965765346  1.0000
  C   C9        1.0  0.14015906848737195  0.2937587848419588  0.36773126594791417  1.0000
  N   N2        1.0  0.0894609483728682  0.3617648527033033  0.39118215227520503  1.0000
  C   C10       1.0  0.1912798143124897  0.08412285996707602  0.2949274092468608  1.0000
  C   C11       1.0  0.2524482217186231  0.0022104837193455086  0.26615227786749457  1.0000
  C   C12       1.0  0.3257225242975568  0.044702229578945214  0.2807687925147411  1.0000
  C   C13       1.0  0.4358461761044066  0.2878717912723405  0.4571284259777116  1.0000
  C   C14       1.0  0.5091507930551417  0.33036496494892487  0.47181218596006436  1.0000
  H   H1        1.0  0.5874204192427296  0.20631145469572054  0.1739251523117442  1.0000
  H   H2        1.0  0.4587960876096204  0.13236879991552564  0.1466378611424744  1.0000
  H   H3        1.0  0.2852936972577066  0.34967797556730895  0.3854252921508421  1.0000
  H   H4        1.0  0.1347531851236449  0.05002864526587558  0.28317812145112287  1.0000
  H   H5        1.0  0.2430775214510658  0.9054005705291487  0.2327976355229393  1.0000
  H   H6        1.0  0.3722517465913289  0.9788523093940622  0.25964671703887077  1.0000
  H   H7        1.0  0.394552773362675  0.3102042105706244  0.5381751849558598  1.0000
  H   H8        1.0  0.5230287523914607  0.38570308205935055  0.5626953838970414  1.0000
  C   C15       1.0  0.8947380382829788  0.9896101041785811  0.3945075170688197  1.0000
  C   C16       1.0  0.8939919185622978  0.9987428745453288  0.24268743101525114  1.0000
  C   C17       1.0  0.8936871299151976  0.8862375563454282  0.16555190571188638  1.0000
  C   C18       1.0  0.8941385007147794  0.7634787520847549  0.24228852552975488  1.0000
  C   C19       1.0  0.8948812155363994  0.7523916082066592  0.39420329051162617  1.0000
  C   C20       1.0  0.8951776712400141  0.8659702994564574  0.4693775148052808  1.0000
  C   C21       1.0  0.8928969193279248  0.8969440808761636  0.004941268764238063  1.0000
  C   C22       1.0  0.9378384576193672  0.8121097580794566  0.9266387537192192  1.0000
  C   C23       1.0  0.9370012762821941  0.8224425527406003  0.775458689860101  1.0000
  C   C24       1.0  0.891402981470877  0.9172197213767023  0.7008689847557634  1.0000
  C   C25       1.0  0.8465467712034239  0.0019263906060247307  0.7773079779902692  1.0000
  C   C26       1.0  0.8471950740276695  0.9920974645065943  0.9284920892488424  1.0000
  H   H9        1.0  0.8949867081827305  0.313574793830965  0.4529081853934609  1.0000
  H   H10       1.0  0.8946855956462467  0.09354480112459632  0.18405097983310448  1.0000
  H   H11       1.0  0.8928715433496613  0.676476836583915  0.18341030807344394  1.0000
  H   H12       1.0  0.8957511139937497  0.858210552232434  0.5864798644161268  1.0000
  H   H13       1.0  0.8958053884694569  0.5241963162955937  0.6809422123278858  1.0000
  H   H14       1.0  0.9743093744031786  0.7389938084254043  0.9822506539026103  1.0000
  H   H15       1.0  0.971895858286922  0.7570845202146086  0.7160965677972598  1.0000
  H   H16       1.0  0.8908281103562956  0.9250230873782483  0.583844075798297  1.0000
  H   H17       1.0  0.8110760416919057  0.07510519441221364  0.7193829604492872  1.0000
  H   H18       1.0  0.8112780952288157  0.05770008768472468  0.9855753688398017  1.0000
  C   C27       1.0  0.8928216538514431  0.3689886801274067  0.9709453479663624  1.0000
  C   C28       1.0  0.9247731936176881  0.26123830130206804  0.05318988498937705  1.0000
  C   C29       1.0  0.9633102939397563  0.16090075626273756  0.9866968745370208  1.0000
  C   C30       1.0  0.9675939313466088  0.16667818242135168  0.8354749941369164  1.0000
  C   C31       1.0  0.935196678051117  0.2717456188515672  0.7522704771446183  1.0000
  C   C32       1.0  0.8967976239729772  0.37301305271348306  0.817765419771  1.0000
  C   C33       1.0  0.9954379487523242  0.04455248224573571  0.07656696278407661  1.0000
  F   F1        1.0  0.0207433683748679  0.08109884334425965  0.20837325520990269  1.0000
  F   F2        1.0  0.05530759406386054  0.9879886032160173  0.00649423686395578  1.0000
  F   F3        1.0  0.9402695627499336  0.9536845293936738  0.10053725721008488  1.0000
  H   H19       1.0  0.845262527096761  0.6805250175749507  0.04781610957215277  1.0000
  H   H20       1.0  0.9210214090175297  0.25680220927648595  0.17009838598256777  1.0000
  H   H21       1.0  0.9953452454166337  0.08906530870026086  0.7811458207792145  1.0000
  H   H22       1.0  0.938415754174553  0.27200818596035026  0.6355633212286996  1.0000
  H   H23       1.0  0.7620317751862251  0.5984719414995598  0.6985804941370044  1.0000
  Zn  Zn1       1.0  0.8124975361641864  0.37491010063736696  0.3956966953274759  1.0000
  Zn  Zn2       1.0  0.9771145282400854  0.36709132691906105  0.393013549228888  1.0000
  C   C34       1.0  0.8960434180353232  0.36707838173629215  0.6577004025007172  1.0000
  C   C35       1.0  0.8935704449534434  0.3749245998467697  0.13100995362017276  1.0000
  C   C36       1.0  0.8948233137699946  0.6081825465983981  0.38851517523220624  1.0000
  C   C37       1.0  0.8947904931145122  0.13381887760563238  0.4001952592979614  1.0000
  O   O1        1.0  0.9562930356080992  0.3739438987116613  0.18371085978474416  1.0000
  O   O2        1.0  0.9582613132556782  0.3621238327694039  0.6029626358640295  1.0000
  O   O3        1.0  0.9572752285274037  0.5568185421978162  0.38559367350248164  1.0000
  O   O4        1.0  0.9572790636579005  0.17924920072837458  0.4010797149491603  1.0000
  O   O5        1.0  0.8323329445706352  0.5627522294975948  0.38763053051524476  1.0000
  O   O6        1.0  0.8333190292274337  0.36805908011775523  0.6049994153755568  1.0000
  O   O7        1.0  0.8313507434821478  0.3798790925602351  0.1857459057880111  1.0000
  O   O8        1.0  0.8323367720346865  0.18518438580136487  0.4031148690576005  1.0000
