data_image0
_chemical_formula_structural       NC9NC4H8C6SCNH4C8H6Zn2C4O8
_chemical_formula_sum              "N3 C32 H18 S1 Zn2 O8"
_cell_length_a       16.32274767691083
_cell_length_b       10.302215558581764
_cell_length_c       9.275144076552241
_cell_angle_alpha    85.96516146856106
_cell_angle_beta     89.93057160658579
_cell_angle_gamma    89.54366289277024

_space_group_name_H-M_alt    "P 1"
_space_group_IT_number       1

loop_
  _space_group_symop_operation_xyz
  'x, y, z'

loop_
  _atom_site_type_symbol
  _atom_site_label
  _atom_site_symmetry_multiplicity
  _atom_site_fract_x
  _atom_site_fract_y
  _atom_site_fract_z
  _atom_site_occupancy
  N   N1        1.0  0.7644778161641248  0.4016674181724365  0.39853345824205255  1.0000
  C   C1        1.0  0.7118660601537287  0.3538644168777585  0.3382717055023978  1.0000
  C   C2        1.0  0.6464693686665703  0.29449271702439894  0.26342612672970955  1.0000
  C   C3        1.0  0.6575528613860008  0.21328279680817944  0.16104593032754222  1.0000
  C   C4        1.0  0.5779582648013527  0.17365194961632735  0.11108779747136287  1.0000
  C   C5        1.0  0.5193603940826208  0.23165083269204503  0.18420869221954916  1.0000
  C   C6        1.0  0.4293343473623228  0.21632227361929868  0.1648874129148492  1.0000
  C   C7        1.0  0.3741290351431357  0.28392366642543876  0.2501063326156201  1.0000
  C   C8        1.0  0.2893448305246621  0.27082314134984053  0.23359314293895858  1.0000
  C   C9        1.0  0.233739597041482  0.34050271998903625  0.32143099708207945  1.0000
  N   N2        1.0  0.1890518625754101  0.39651363253627503  0.39203775481131875  1.0000
  C   C10       1.0  0.25871227125050483  0.1900118955829679  0.13172390448163918  1.0000
  C   C11       1.0  0.31259618420024127  0.12250004812226178  0.046618242238030794  1.0000
  C   C12       1.0  0.39721955324506925  0.13524770452076562  0.06268646910316256  1.0000
  C   C13       1.0  0.557603082562453  0.31621956602443846  0.29082041341429443  1.0000
  H   H1        1.0  0.7162779175878772  0.18170407271985178  0.12123259397051943  1.0000
  H   H2        1.0  0.5692795207076163  0.10727918175996433  0.02741238553209291  1.0000
  H   H3        1.0  0.3966058998114376  0.34701046784174694  0.32963256500043703  1.0000
  H   H4        1.0  0.1932581776082186  0.17921977844939208  0.1181207106310722  1.0000
  H   H5        1.0  0.2887265770706292  0.059985016667821536  0.9678130573012362  1.0000
  H   H6        1.0  0.4366888404356072  0.08124257500330412  0.9946078552084424  1.0000
  H   H7        1.0  0.541333793638751  0.2821864797567464  0.4034664354852268  1.0000
  H   H8        1.0  0.5407333449049289  0.42010335043127167  0.26623423576405436  1.0000
  C   C14       1.0  0.97668721137531  0.01781898591937048  0.39524711301552906  1.0000
  C   C15       1.0  0.05900016924541962  0.013034796475263958  0.4393438246978325  1.0000
  C   C16       1.0  0.09996471469021762  0.893616124755128  0.46174403175617934  1.0000
  C   C17       1.0  0.0592136666047156  0.7778577674610304  0.43946260836968376  1.0000
  C   C18       1.0  0.9768503453926237  0.7803519881974407  0.39533641218755844  1.0000
  C   C19       1.0  0.936030475738372  0.9008472433280333  0.3735269285446543  1.0000
  S   S1        1.0  0.2051250870296959  0.8890232769948563  0.5174403658586348  1.0000
  C   C20       1.0  0.17893903952563298  0.877675486377242  0.70254983073799  1.0000
  N   N3        1.0  0.16174683692204286  0.8702367353387122  0.8239053014318278  1.0000
  H   H9        1.0  0.09160860629486911  0.10172530294505269  0.4567307106942892  1.0000
  H   H10       1.0  0.09196844751490274  0.6862652736809581  0.45693098837595764  1.0000
  H   H11       1.0  0.8725474565096796  0.9036874678152806  0.3395380013309488  1.0000
  H   H12       1.0  0.8216300069506661  0.5778448059324817  0.3120149514438746  1.0000
  C   C21       1.0  0.9748384999734472  0.3964520752741487  0.972035492927652  1.0000
  C   C22       1.0  0.9214409446035327  0.4817747391326874  0.03883636302951344  1.0000
  C   C23       1.0  0.8746185210989841  0.5734505340215532  0.9566285222668961  1.0000
  C   C24       1.0  0.8803467945613881  0.5816778858664724  0.8061114035862316  1.0000
  C   C25       1.0  0.932043528431851  0.4962806543409264  0.7375807107137837  1.0000
  C   C26       1.0  0.9786990845100992  0.40171896276553504  0.8185481139644626  1.0000
  C   C27       1.0  0.8323352389996742  0.676937212522088  0.7215522711040072  1.0000
  C   C28       1.0  0.7921400797211307  0.7566916350886805  0.6507402736564383  1.0000
  H   H13       1.0  0.14511443532614443  0.22394707085901788  0.08801389446708963  1.0000
  H   H14       1.0  0.9173425416168804  0.47964190576973786  0.15556892659836863  1.0000
  H   H15       1.0  0.8344940259724232  0.6388558975373431  0.01068860806072336  1.0000
  H   H16       1.0  0.9343934138696887  0.501647211161161  0.6204607977842715  1.0000
  H   H17       1.0  0.09156904536608779  0.28147072160456066  0.5469928039164409  1.0000
  H   H18       1.0  0.7568570736206351  0.826699006626556  0.5885805638217345  1.0000
  Zn  Zn1       1.0  0.8870007580768341  0.40017671406731337  0.39666726188317725  1.0000
  Zn  Zn2       1.0  0.066528978405477  0.3979937558578881  0.3939157576484611  1.0000
  C   C29       1.0  0.9779664151829565  0.39555104505848004  0.6585384880611576  1.0000
  C   C30       1.0  0.9755652827376372  0.402621040110114  0.1320446430827018  1.0000
  C   C31       1.0  0.9767891205893905  0.6361813584087954  0.3895760444367211  1.0000
  C   C32       1.0  0.9767425160874437  0.1619891680787482  0.40100716430668387  1.0000
  O   O1        1.0  0.04393922045607578  0.4038573155050815  0.18470099339527124  1.0000
  O   O2        1.0  0.045850240591911895  0.39265697283903234  0.6037933946780216  1.0000
  O   O3        1.0  0.0448986487283014  0.5869690145472279  0.38660433273181183  1.0000
  O   O4        1.0  0.044890750567992965  0.20954528315723978  0.4018899482117293  1.0000
  O   O5        1.0  0.9086389246501134  0.5886251875142645  0.38869307225128136  1.0000
  O   O6        1.0  0.9095905164932783  0.39431470523342194  0.6058820575293176  1.0000
  O   O7        1.0  0.9076794884992473  0.40551499187262824  0.18678792334445293  1.0000
  O   O8        1.0  0.9086310190986527  0.21120295091073515  0.4039769862220359  1.0000
