data_image0
_chemical_formula_structural       NC8NC6H8C12H9C8NH6Zn2C4O8
_chemical_formula_sum              "N3 C38 H23 Zn2 O8"
_cell_length_a       17.457602349358154
_cell_length_b       10.299137764757564
_cell_length_c       9.274266800404106
_cell_angle_alpha    85.96615715637442
_cell_angle_beta     92.41618932719734
_cell_angle_gamma    91.70779885892506

_space_group_name_H-M_alt    "P 1"
_space_group_IT_number       1

loop_
  _space_group_symop_operation_xyz
  'x, y, z'

loop_
  _atom_site_type_symbol
  _atom_site_label
  _atom_site_symmetry_multiplicity
  _atom_site_fract_x
  _atom_site_fract_y
  _atom_site_fract_z
  _atom_site_occupancy
  N   N1        1.0  0.7290591950836535  0.4430072926799071  0.47548192180261256  1.0000
  C   C1        1.0  0.6680213821098733  0.3970014957462966  0.4637205405881674  1.0000
  C   C2        1.0  0.5920877167335016  0.3397760682822586  0.4490999675375438  1.0000
  C   C3        1.0  0.5332206220241759  0.38048339149136345  0.53218796532102  1.0000
  C   C4        1.0  0.45872261187209323  0.32538084689431424  0.518248345037917  1.0000
  C   C5        1.0  0.3962446135345957  0.36836351185797245  0.6062417342896953  1.0000
  C   C6        1.0  0.3219593888473133  0.38642972555513744  0.5443620075570945  1.0000
  C   C7        1.0  0.2630917562488639  0.4269538898616996  0.6275698555409053  1.0000
  C   C8        1.0  0.1873787381420235  0.4456099674618472  0.5632317214399916  1.0000
  N   N2        1.0  0.12651838614778935  0.460603074730602  0.5115040316305528  1.0000
  C   C9        1.0  0.2780148818552359  0.4496586830027802  0.7732215671733336  1.0000
  C   C10       1.0  0.3515136863164214  0.4319842935171814  0.8355312087324933  1.0000
  C   C11       1.0  0.41036763276951005  0.39164351172765616  0.7528311601790951  1.0000
  C   C12       1.0  0.4443868354438303  0.228883131318528  0.41963107819450185  1.0000
  C   C13       1.0  0.5032404169024162  0.18845740647452702  0.33698680120408486  1.0000
  C   C14       1.0  0.5769511405222724  0.24367631704463588  0.35153657918769987  1.0000
  H   H1        1.0  0.5452712580703436  0.45616619266511305  0.6060900555607811  1.0000
  H   H2        1.0  0.3100831972795733  0.37071965080319735  0.4311657773664659  1.0000
  H   H3        1.0  0.2328878981263603  0.480969890469958  0.8384915564451394  1.0000
  H   H4        1.0  0.36287819674304883  0.4492494531254458  0.9483126965745301  1.0000
  H   H5        1.0  0.4666371380654276  0.376984260246191  0.8039945253516165  1.0000
  H   H6        1.0  0.3879425825845267  0.18346678898052637  0.40782940035456483  1.0000
  H   H7        1.0  0.4917093492595864  0.11388248261758149  0.26175468422959414  1.0000
  H   H8        1.0  0.6220756351132035  0.21149904112964227  0.28683404052072237  1.0000
  C   C15       1.0  0.9277179855020344  0.07040318907698073  0.49364370434092725  1.0000
  C   C16       1.0  0.9283162669345563  0.0792641349041916  0.3419133155033427  1.0000
  C   C17       1.0  0.9286960751338592  0.9666275968280224  0.2648314445016524  1.0000
  C   C18       1.0  0.9284694692422549  0.8440130671342952  0.3415308041150893  1.0000
  C   C19       1.0  0.9278668640574923  0.8331975585709289  0.493355394944372  1.0000
  C   C20       1.0  0.9274961178232632  0.9469040791533627  0.5684772657497255  1.0000
  C   C21       1.0  0.9293280895190466  0.9770464754076003  0.10431560155564568  1.0000
  C   C22       1.0  0.9759052140135366  0.8962734078470181  0.03098993672901185  1.0000
  C   C23       1.0  0.9764048080058255  0.9063267915275989  0.8798889441414913  1.0000
  C   C24       1.0  0.9305267892554889  0.9967777325722655  0.8004230135292021  1.0000
  C   C25       1.0  0.8840534587799003  0.07742856829441358  0.8718965357303667  1.0000
  C   C26       1.0  0.8833610237996536  0.06786155079920442  0.022981025011445284  1.0000
  H   H9        1.0  0.9295495926852566  0.1740520870883948  0.2834183123902896  1.0000
  H   H10       1.0  0.9277035703949058  0.7568151167601797  0.28258102955647946  1.0000
  H   H11       1.0  0.9270325500695165  0.9393538058542693  0.6855102060956277  1.0000
  H   H12       1.0  0.9262418172588386  0.6054706983275413  0.7798721490586782  1.0000
  H   H13       1.0  0.012636115250745933  0.826612305259082  0.09050654665418367  1.0000
  H   H14       1.0  0.012556473592790999  0.8441240118350234  0.8243894515343291  1.0000
  H   H15       1.0  0.9309882052913855  0.004371595624665938  0.683467271307475  1.0000
  H   H16       1.0  0.8483642552047402  0.14724214795402338  0.8101782117409648  1.0000
  H   H17       1.0  0.846186121304995  0.13021110975521677  0.07609302374734228  1.0000
  C   C27       1.0  0.9295557740029682  0.4490387169898351  0.07034975276418698  1.0000
  C   C28       1.0  0.8849703439313084  0.3540892226995336  0.14749520243374903  1.0000
  C   C29       1.0  0.8357460830932851  0.26903533957329184  0.07516973018976603  1.0000
  C   C30       1.0  0.8294667994120116  0.27758498645097784  0.923899277065594  1.0000
  C   C31       1.0  0.8751044714904488  0.3694759976157493  0.8455441705771323  1.0000
  C   C32       1.0  0.9260290600002233  0.45456202895290193  0.9166492909072472  1.0000
  C   C33       1.0  0.7772122612336541  0.1845581215613225  0.846117492991024  1.0000
  C   C34       1.0  0.8187190303932543  0.06765715010186257  0.818711186199848  1.0000
  N   N3        1.0  0.8514830836927773  0.9753955457148742  0.7970789808146437  1.0000
  H   H18       1.0  0.014095242244438042  0.7386272785302874  0.15733382592085365  1.0000
  H   H19       1.0  0.8869270674648468  0.34744935917224384  0.26468922677278495  1.0000
  H   H20       1.0  0.8018873043604089  0.19712596176800454  0.13737291104693194  1.0000
  H   H21       1.0  0.8721183685807538  0.37230722962217844  0.7283813687399081  1.0000
  H   H22       1.0  0.7553461562054083  0.23114638475689664  0.74134789273984  1.0000
  H   H23       1.0  0.7269075722918765  0.1556454225651078  0.9117304562518558  1.0000
  Zn  Zn1       1.0  0.843757296715267  0.44808162658334516  0.48588544585837484  1.0000
  Zn  Zn2       1.0  0.011820219025878936  0.4555181690733125  0.5011123089739451  1.0000
  C   C35       1.0  0.926692980556787  0.44834380209453606  0.756682388594963  1.0000
  C   C36       1.0  0.9288863701567356  0.45525771445447727  0.23031567332583733  1.0000
  C   C37       1.0  0.9278587093168769  0.688975536805444  0.4876673825914839  1.0000
  C   C38       1.0  0.9277205834238036  0.21462441726871595  0.4993307515473455  1.0000
  O   O1        1.0  0.9924407141544974  0.46016132969835005  0.2897802149117139  1.0000
  O   O2        1.0  0.9906945074187841  0.44908336801553345  0.7087742693557895  1.0000
  O   O3        1.0  0.991634982119948  0.64339650873327  0.4915426702734431  1.0000
  O   O4        1.0  0.9915001825568904  0.2658481950289251  0.5070117007521013  1.0000
  O   O5        1.0  0.8640772758326604  0.6377515980913704  0.4799860488764571  1.0000
  O   O6        1.0  0.8631368017527433  0.4434400173121242  0.6972175705370136  1.0000
  O   O7        1.0  0.8648830157501213  0.4545179224305047  0.2782217836547194  1.0000
  O   O8        1.0  0.8639424836973623  0.2602047791764055  0.49545337753330526  1.0000
