data_image0
_chemical_formula_structural       NC12NC2H8C9H10C6SCH7Zn2C4O8
_chemical_formula_sum              "N2 C34 H25 S1 Zn2 O8"
_cell_length_a       19.240039667572717
_cell_length_b       10.297183801781406
_cell_length_c       10.302812801239591
_cell_angle_alpha    85.53397989939683
_cell_angle_beta     89.99986115562673
_cell_angle_gamma    89.99762600624447

_space_group_name_H-M_alt    "P 1"
_space_group_IT_number       1

loop_
  _space_group_symop_operation_xyz
  'x, y, z'

loop_
  _atom_site_type_symbol
  _atom_site_label
  _atom_site_symmetry_multiplicity
  _atom_site_fract_x
  _atom_site_fract_y
  _atom_site_fract_z
  _atom_site_occupancy
  N   N1        1.0  0.6544474527219172  0.42168363670560804  0.5672938567537633  1.0000
  C   C1        1.0  0.5942990839028794  0.4216837207110434  0.5672937748067068  1.0000
  C   C2        1.0  0.5194810467592924  0.42168383803072956  0.5672936374951358  1.0000
  C   C3        1.0  0.48300862919033444  0.3571995757512352  0.6707005528697039  1.0000
  C   C4        1.0  0.4103378834375207  0.3570886627345962  0.670787115229164  1.0000
  C   C5        1.0  0.37314881182020193  0.42168393062389065  0.5672934098458144  1.0000
  C   C6        1.0  0.4103354185856987  0.48627938554980027  0.46379989886149925  1.0000
  C   C7        1.0  0.48300610940167266  0.48616823696684236  0.463886583783593  1.0000
  C   C8        1.0  0.2959437213824426  0.4216838519417121  0.5672933144940999  1.0000
  C   C9        1.0  0.2587583704006495  0.308391073883507  0.6091991047916254  1.0000
  C   C10       1.0  0.1860876797634522  0.3084980048159684  0.6091077626579176  1.0000
  C   C11       1.0  0.149611434462032  0.4216837227322137  0.567293375440205  1.0000
  C   C12       1.0  0.0747933973092811  0.4216836089551593  0.5672936240708208  1.0000
  N   N2        1.0  0.014645080457818099  0.4216835681181437  0.5672938324416181  1.0000
  C   C13       1.0  0.1860827000156111  0.5348695164977462  0.525478935316134  1.0000
  C   C14       1.0  0.2587533939766437  0.5349766276030052  0.5253874305624884  1.0000
  H   H1        1.0  0.5107244979011865  0.30727445046912655  0.7514375546910692  1.0000
  H   H2        1.0  0.3832455602795998  0.3079618336739003  0.7526389304806995  1.0000
  H   H3        1.0  0.38324121095495683  0.5354062416709828  0.3819480327660907  1.0000
  H   H4        1.0  0.5107200121557701  0.5360932619556926  0.38314985771312293  1.0000
  H   H5        1.0  0.2858535823347128  0.21921051078592993  0.6403948711003646  1.0000
  H   H6        1.0  0.15837475326080316  0.22021686193762857  0.641335785358216  1.0000
  H   H7        1.0  0.1583658030709957  0.6231506348322398  0.49325092717212743  1.0000
  H   H8        1.0  0.28584466085809207  0.6241572698997315  0.49419161946262324  1.0000
  C   C15       1.0  0.8345520367556493  0.04020805525958249  0.5674777839849188  1.0000
  C   C16       1.0  0.8325258915067139  0.05006804037961988  0.430860164979572  1.0000
  C   C17       1.0  0.8314876772807279  0.9385031117007707  0.3608669636412336  1.0000
  C   C18       1.0  0.8325177492261857  0.814896947555616  0.43033065531788556  1.0000
  C   C19       1.0  0.8345471821611257  0.803149181845169  0.5671210756471918  1.0000
  C   C20       1.0  0.8355504184124334  0.916280864061573  0.6348017033802231  1.0000
  C   C21       1.0  0.8292960658243139  0.958599576645392  0.21310536191050544  1.0000
  C   C22       1.0  0.7885987799793384  0.8598826676986037  0.14083385025861417  1.0000
  C   C23       1.0  0.8677810643151647  0.860190871157183  0.13670955128764373  1.0000
  H   H9        1.0  0.8353393750664374  0.36394714072002127  0.6201209346196848  1.0000
  H   H10       1.0  0.8317438336064558  0.14529690396892048  0.3781182266343741  1.0000
  H   H11       1.0  0.8317557227455413  0.7272972429345668  0.3790533503960305  1.0000
  H   H12       1.0  0.8371132836584816  0.9079462356233874  0.7402050653149983  1.0000
  H   H13       1.0  0.8383709768946916  0.573744510388124  0.8254796625867903  1.0000
  H   H14       1.0  0.8285922814684563  0.05931514168061658  0.16561218554765134  1.0000
  H   H15       1.0  0.765406106677814  0.7762451607851053  0.199916680665436  1.0000
  H   H16       1.0  0.764078487903261  0.9007556424023102  0.04897874128316593  1.0000
  H   H17       1.0  0.8926873766431972  0.776741381007915  0.19328776929187708  1.0000
  H   H18       1.0  0.8895393327744524  0.9012416098913125  0.042442773190428  1.0000
  C   C24       1.0  0.8345496242079896  0.42167862417782165  0.18605098290710553  1.0000
  C   C25       1.0  0.81110929541364  0.5512251800832666  0.17479314242719424  1.0000
  C   C26       1.0  0.799266944941925  0.6154918550127173  0.05221610080437444  1.0000
  C   C27       1.0  0.8111092327560374  0.5512250437179433  0.9396419728017102  1.0000
  C   C28       1.0  0.8345495791260603  0.42167861542344465  0.9485478865407448  1.0000
  C   C29       1.0  0.8461337863871392  0.35752705441505134  0.07229202622127895  1.0000
  S   S1        1.0  0.7694612017170396  0.7811029199748077  0.03932735445204516  1.0000
  C   C30       1.0  0.6780385984270456  0.735716004467666  0.042860725249024956  1.0000
  H   H19       1.0  0.843357324312309  0.37284215313774455  0.5176078905550214  1.0000
  H   H20       1.0  0.8017978477572524  0.6026814417254199  0.260888138735784  1.0000
  H   H21       1.0  0.801797708607235  0.602681254596328  0.8455378258411964  1.0000
  H   H22       1.0  0.8642017475936651  0.2575934419398511  0.08006928270349434  1.0000
  H   H23       1.0  0.6657144242033629  0.6779259964383992  0.9592414226447641  1.0000
  H   H24       1.0  0.6657147218713039  0.6779273092843273  0.13547611406443494  1.0000
  H   H25       1.0  0.6458705866745409  0.8253801735459403  0.035882307100136616  1.0000
  Zn  Zn1       1.0  0.7583927165827028  0.4216801487409252  0.5673013374198466  1.0000
  Zn  Zn2       1.0  0.9106998354351233  0.42167645964024897  0.5672969522816496  1.0000
  C   C31       1.0  0.8345480718877444  0.41650348652228697  0.8044220775323496  1.0000
  C   C32       1.0  0.8345461433086215  0.42685476089637797  0.3301763387811687  1.0000
  C   C33       1.0  0.8345445127409017  0.6589370655097031  0.5620149856068549  1.0000
  C   C34       1.0  0.834549650493642  0.1844196211713438  0.5725835006545801  1.0000
  O   O1        1.0  0.8923447329724189  0.4285848523435521  0.3785444633263211  1.0000
  O   O2        1.0  0.8923470612923676  0.4147696151366125  0.7560502514989711  1.0000
  O   O3        1.0  0.8923434080678243  0.6105377961788642  0.5603048090896957  1.0000
  O   O4        1.0  0.8923483342248056  0.23281668059538113  0.5742898083888364  1.0000
  O   O5        1.0  0.7767441658180757  0.6105399277884662  0.5603084813073267  1.0000
  O   O6        1.0  0.7767478190294965  0.414773307486505  0.7560538537633525  1.0000
  O   O7        1.0  0.7767454907561476  0.4285884994248553  0.3785465047043435  1.0000
  O   O8        1.0  0.7767490920057462  0.2328203183852764  0.5742919471082861  1.0000
