data_image0
_chemical_formula_structural       NC5NC4H6C6ClH5C6NCH8Zn2C4O8
_chemical_formula_sum              "N3 C26 H19 Cl1 Zn2 O8"
_cell_length_a       13.854160002989762
_cell_length_b       9.276545438789551
_cell_length_c       9.274690524155615
_cell_angle_alpha    86.08901854457557
_cell_angle_beta     89.68736373973688
_cell_angle_gamma    89.40960627284836

_space_group_name_H-M_alt    "P 1"
_space_group_IT_number       1

loop_
  _space_group_symop_operation_xyz
  'x, y, z'

loop_
  _atom_site_type_symbol
  _atom_site_label
  _atom_site_symmetry_multiplicity
  _atom_site_fract_x
  _atom_site_fract_y
  _atom_site_fract_z
  _atom_site_occupancy
  N   N1        1.0  0.9039206414985466  0.5641994743087155  0.4111038121018453  1.0000
  C   C1        1.0  0.8316331894878821  0.5888919289846464  0.35208283140359287  1.0000
  C   C2        1.0  0.7417065846296564  0.6196100065889542  0.27865847135451904  1.0000
  C   C3        1.0  0.6540725539160556  0.5907575274885231  0.35035150441335605  1.0000
  C   C4        1.0  0.5665641722455527  0.6196100207137141  0.27865844819452484  1.0000
  C   C5        1.0  0.4765250487999255  0.5888917824912546  0.35208292292208915  1.0000
  N   N2        1.0  0.40414707133919575  0.5641994108227304  0.411103811977648  1.0000
  C   C6        1.0  0.5667182008127116  0.6779214365349946  0.1352917089390761  1.0000
  C   C7        1.0  0.6543050460985745  0.7089227419987054  0.06349652649899751  1.0000
  C   C8        1.0  0.6544674145454622  0.7673750852707304  0.9086429739127339  1.0000
  C   C9        1.0  0.7417952901926717  0.6779214344228355  0.13529161867611594  1.0000
  H   H1        1.0  0.653979410855195  0.5455143522605959  0.461314662331598  1.0000
  H   H2        1.0  0.49890148934293704  0.6992187155231704  0.07966490913435109  1.0000
  H   H3        1.0  0.7189396530294758  0.8353157684650658  0.8849008786856389  1.0000
  H   H4        1.0  0.5892311751162316  0.8353157709090088  0.8849009437600136  1.0000
  H   H5        1.0  0.6553577454815466  0.6762435767936539  0.8370479910853306  1.0000
  H   H6        1.0  0.809724447965889  0.6992188272412342  0.07966482378971729  1.0000
  C   C10       1.0  0.15695247529568035  0.14076222338562583  0.4108662368206465  1.0000
  C   C11       1.0  0.1578025300820025  0.22325333878244247  0.2778343137412351  1.0000
  C   C12       1.0  0.14986050708531204  0.15703885069729218  0.14769785345187403  1.0000
  C   C13       1.0  0.14087643066837385  0.007455501487094284  0.14859119872756454  1.0000
  C   C14       1.0  0.1415244477916484  0.9234046722687428  0.2791813192998558  1.0000
  C   C15       1.0  0.15112453378436075  0.9876257053882942  0.4113538937069898  1.0000
  Cl  Cl1       1.0  0.14971215591283757  0.26222503315450846  0.9831523489832706  1.0000
  H   H7        1.0  0.2054925939888638  0.40569773375778434  0.6374672633973306  1.0000
  H   H8        1.0  0.16233571800816252  0.33994901374421876  0.2749807281329826  1.0000
  H   H9        1.0  0.13430988024490764  0.9558557240124161  0.047909862367397915  1.0000
  H   H10       1.0  0.13681520813504  0.8071210903290423  0.27653099751901733  1.0000
  H   H11       1.0  0.11791862602741543  0.6909229960747797  0.6444160963717475  1.0000
  C   C16       1.0  0.1556094175147538  0.5605021596790982  0.987860639181922  1.0000
  C   C17       1.0  0.23360064208861964  0.6228773595413886  0.056633934410702524  1.0000
  C   C18       1.0  0.30655303229838693  0.6961730731821427  0.9761783480930184  1.0000
  C   C19       1.0  0.30076110951771673  0.7068241973643938  0.8252880199166137  1.0000
  C   C20       1.0  0.22483553327619676  0.6435899201230206  0.7553035449933705  1.0000
  C   C21       1.0  0.15246753240703675  0.5678857194143454  0.8343594371040737  1.0000
  N   N3        1.0  0.3864283647290827  0.7616097530498591  0.0449378249160819  1.0000
  C   C22       1.0  0.39956277142550445  0.7565338228494236  0.20121645091300164  1.0000
  H   H12       1.0  0.04663191657090968  0.38668980171630185  0.28075932190757347  1.0000
  H   H13       1.0  0.35597005440689045  0.7632695194371579  0.7612619677476649  1.0000
  H   H14       1.0  0.22405264433181019  0.6510296356559211  0.6382351139455591  1.0000
  H   H15       1.0  0.00039887900274183024  0.5002387313527983  0.5588822900808998  1.0000
  H   H16       1.0  0.43857307770197673  0.8155474389580302  0.9803347407116618  1.0000
  H   H17       1.0  0.4667195836879101  0.8136681556598839  0.2269276710007473  1.0000
  H   H18       1.0  0.4057492962654805  0.6425397729584728  0.24537546246812367  1.0000
  H   H19       1.0  0.33762920733042856  0.8105911201944062  0.2524495889692004  1.0000
  Zn  Zn1       1.0  0.04827518485993142  0.5641956681533389  0.4111121420353868  1.0000
  Zn  Zn2       1.0  0.25979256642149884  0.5641915206045032  0.41110731229174435  1.0000
  C   C23       1.0  0.15309882221031731  0.5607456948308758  0.6743497638383731  1.0000
  C   C24       1.0  0.15497122578867722  0.5676433144893398  0.14786983294799483  1.0000
  C   C25       1.0  0.15224246916201586  0.8275003500616103  0.4055182158475328  1.0000
  C   C26       1.0  0.15582751829786723  0.3008869275125883  0.4167014567850731  1.0000
  O   O1        1.0  0.2350268300776106  0.5700320865831829  0.20156854359303805  1.0000
  O   O2        1.0  0.23358002537350184  0.5583526834299574  0.620646972002875  1.0000
  O   O3        1.0  0.23288742181994082  0.7737604541952074  0.4035635958605155  1.0000
  O   O4        1.0  0.23571936178473463  0.3546243251917429  0.41865181167499643  1.0000
  O   O5        1.0  0.07234831731621136  0.7737628635690179  0.40356764264620315  1.0000
  O   O6        1.0  0.07304090922839986  0.5583568245527042  0.620650942936392  1.0000
  O   O7        1.0  0.07448772077418297  0.570036162342928  0.20157078162976272  1.0000
  O   O8        1.0  0.07518025214726021  0.3546283915805972  0.4186541577661907  1.0000
