data_image0
_chemical_formula_structural       NC9NC4H8C9H10C6SCNH5Zn2C4O8
_chemical_formula_sum              "N3 C33 H23 S1 Zn2 O8"
_cell_length_a       16.32274767691083
_cell_length_b       9.27267660452572
_cell_length_c       10.302218930750287
_cell_angle_alpha    85.8010258303436
_cell_angle_beta     89.48597253194706
_cell_angle_gamma    90.07922574154927

_space_group_name_H-M_alt    "P 1"
_space_group_IT_number       1

loop_
  _space_group_symop_operation_xyz
  'x, y, z'

loop_
  _atom_site_type_symbol
  _atom_site_label
  _atom_site_symmetry_multiplicity
  _atom_site_fract_x
  _atom_site_fract_y
  _atom_site_fract_z
  _atom_site_occupancy
  N   N1        1.0  0.7797880499519069  0.5680819853948679  0.5632752858290154  1.0000
  C   C1        1.0  0.7271616293508184  0.5154159675550537  0.5087928291686596  1.0000
  C   C2        1.0  0.6617467243835202  0.4500043633731417  0.44112518238110376  1.0000
  C   C3        1.0  0.6728053253457013  0.36053296252319833  0.34856359222413547  1.0000
  C   C4        1.0  0.5931985641644318  0.3168704437791894  0.30339659989205403  1.0000
  C   C5        1.0  0.5346184596074061  0.3807695321291811  0.3695049457791799  1.0000
  C   C6        1.0  0.44458770029485967  0.363881576841962  0.3520366316884853  1.0000
  C   C7        1.0  0.38940313163202595  0.43836009231870343  0.42908278669599054  1.0000
  C   C8        1.0  0.3046149007018623  0.4239268341862898  0.4141532594852588  1.0000
  C   C9        1.0  0.24903105220211463  0.5006949563321024  0.4935671876146861  1.0000
  N   N2        1.0  0.2043605095966292  0.5624038941110661  0.5574025369698923  1.0000
  C   C10       1.0  0.2739575349614092  0.3348946058286213  0.32205359701349634  1.0000
  C   C11       1.0  0.3278207301717854  0.2605147425312837  0.2451098364691664  1.0000
  C   C12       1.0  0.4124480178395101  0.274559235427398  0.2596370746551413  1.0000
  C   C13       1.0  0.5728870820958832  0.47394145835706875  0.46589225277375007  1.0000
  H   H1        1.0  0.7315207132945613  0.3257417541847716  0.3125684973792926  1.0000
  H   H2        1.0  0.5844994769666907  0.24374557940595312  0.22774594293544423  1.0000
  H   H3        1.0  0.41189936141048944  0.5078647558047371  0.5009822063007252  1.0000
  H   H4        1.0  0.2085001233617647  0.323004591131582  0.30975498781207444  1.0000
  H   H5        1.0  0.30393193219133285  0.19164001354096283  0.17386231268386143  1.0000
  H   H6        1.0  0.4519007302547741  0.2150601325398931  0.19808741332818403  1.0000
  H   H7        1.0  0.555920208830358  0.4353460949065147  0.5672199924115353  1.0000
  H   H8        1.0  0.556736338549511  0.589493427141746  0.44417912118695746  1.0000
  C   C14       1.0  0.9897566075295314  0.14178557520111412  0.5587123909827383  1.0000
  C   C15       1.0  0.9569801212597503  0.20631845413233219  0.6666930557676201  1.0000
  C   C16       1.0  0.9316997762614201  0.12251493464028097  0.7777431737293764  1.0000
  C   C17       1.0  0.9383801469372879  0.971676021225442  0.7845489121946139  1.0000
  C   C18       1.0  0.9698141979066836  0.9057114714639363  0.6755865029793828  1.0000
  C   C19       1.0  0.9943997713771523  0.9886890426626372  0.5619765286815086  1.0000
  C   C20       1.0  0.9101728816133727  0.8884321654864767  0.9096594304324388  1.0000
  C   C21       1.0  0.8687653225264124  0.7428920204340272  0.8973051079202685  1.0000
  C   C22       1.0  0.9552812801018254  0.7491762284674628  0.9510444113391398  1.0000
  H   H9        1.0  0.007914886659708296  0.44037684143752864  0.3457056602295996  1.0000
  H   H10       1.0  0.9526573043265318  0.32289879829784485  0.6666280378643363  1.0000
  H   H11       1.0  0.9074431148191725  0.17628268482421103  0.8596562810426929  1.0000
  H   H12       1.0  0.9737227383470283  0.7892588137825638  0.676738080084927  1.0000
  H   H13       1.0  0.015606386895012482  0.911602086343952  0.243777024663274  1.0000
  H   H14       1.0  0.8869947982782763  0.9488619470670567  0.9917266747923087  1.0000
  H   H15       1.0  0.8649473125461544  0.703696608669265  0.7983795472221158  1.0000
  H   H16       1.0  0.8212975605604821  0.7147417227938352  0.9728641549818378  1.0000
  H   H17       1.0  0.0039921484021727665  0.7136699895867992  0.8848396137206316  1.0000
  H   H18       1.0  0.9583758280772918  0.724692719821574  0.05802867654608856  1.0000
  C   C23       1.0  0.99200216161912  0.5653058794920145  0.1790706017103043  1.0000
  C   C24       1.0  0.06879311363759122  0.4970846381131529  0.181523054481882  1.0000
  C   C25       1.0  0.10696529855354542  0.4626849334213304  0.06576490401312074  1.0000
  C   C26       1.0  0.06899189030555797  0.4969033729336838  0.9463653562597582  1.0000
  C   C27       1.0  0.9921541747393666  0.565168740249615  0.9416182989513618  1.0000
  C   C28       1.0  0.9540670406974201  0.5989426104613078  0.05853229132473192  1.0000
  S   S1        1.0  0.20513322523300337  0.3761588285359456  0.07033419759771142  1.0000
  C   C29       1.0  0.16132401699510268  0.20151819643466418  0.08251438785378107  1.0000
  N   N3        1.0  0.1325786372108404  0.08703351439986262  0.09049989322896912  1.0000
  H   H19       1.0  0.9627891503848295  0.5913364856091143  0.5054674744263323  1.0000
  H   H20       1.0  0.09922197592197946  0.47013967569479825  0.27306971308287187  1.0000
  H   H21       1.0  0.09955699921443495  0.4698340966738483  0.8576424283905735  1.0000
  H   H22       1.0  0.8948408114886255  0.6515377387080097  0.055794079046322054  1.0000
  H   H23       1.0  0.8473630734236265  0.6939802813403511  0.7254432040895771  1.0000
  Zn  Zn1       1.0  0.9023104770189254  0.5664395393050725  0.5615880205692736  1.0000
  Zn  Zn2       1.0  0.0818380259479361  0.5640345051998559  0.5591003931506866  1.0000
  C   C30       1.0  0.9920921290416167  0.5594500451861546  0.7974583434975882  1.0000
  C   C31       1.0  0.9920583443610645  0.5710257924927282  0.32323017750477057  1.0000
  C   C32       1.0  0.9935168435817139  0.8286072588293149  0.5561857017820089  1.0000
  C   C33       1.0  0.9906335590761598  0.3018668471581918  0.5645028826132001  1.0000
  O   O1        1.0  0.06020693451494675  0.5720264586188308  0.3706673821676505  1.0000
  O   O2        1.0  0.06020078850152388  0.5566229260441544  0.7481327092381751  1.0000
  O   O3        1.0  0.06135034535790562  0.7739707920793923  0.5533033625140913  1.0000
  O   O4        1.0  0.05905731643511912  0.3546786037372776  0.5654966324299554  1.0000
  O   O5        1.0  0.925091125267808  0.7757954415899417  0.5551917821320864  1.0000
  O   O6        1.0  0.923941577892299  0.5584493080683715  0.7500210663054026  1.0000
  O   O7        1.0  0.923947723373495  0.5738527906725563  0.37255417802897384  1.0000
  O   O8        1.0  0.9227981052531785  0.3565049254596093  0.5673835255951396  1.0000
