data_image0
_chemical_formula_structural       NC6NCNCH5C9H6C7NH4Zn2C4O8
_chemical_formula_sum              "N4 C28 H15 Zn2 O8"
_cell_length_a       14.933214217465613
_cell_length_b       9.275152443626249
_cell_length_c       9.275157849593905
_cell_angle_alpha    85.91609934181939
_cell_angle_beta     89.70661770832213
_cell_angle_gamma    90.60755784757023

_space_group_name_H-M_alt    "P 1"
_space_group_IT_number       1

loop_
  _space_group_symop_operation_xyz
  'x, y, z'

loop_
  _atom_site_type_symbol
  _atom_site_label
  _atom_site_symmetry_multiplicity
  _atom_site_fract_x
  _atom_site_fract_y
  _atom_site_fract_z
  _atom_site_occupancy
  N   N1        1.0  0.8574411439897579  0.5643074974955187  0.40409366782963535  1.0000
  C   C1        1.0  0.779959812522043  0.5652949961716645  0.4030999794878254  1.0000
  C   C2        1.0  0.6835725037640973  0.5665261535113455  0.4018609733890155  1.0000
  C   C3        1.0  0.6348901883098539  0.47164570547890167  0.49735559957168096  1.0000
  C   C4        1.0  0.5413664646874405  0.4727185991586031  0.49627579066294764  1.0000
  C   C5        1.0  0.4956222109915631  0.5686175791882215  0.3997560763306073  1.0000
  C   C6        1.0  0.3990277918984851  0.5665282910114195  0.4018588956459208  1.0000
  N   N2        1.0  0.3215263914482925  0.5647853594947874  0.4036127384313619  1.0000
  C   C7        1.0  0.5444141252426182  0.6646961097879591  0.30305574140872676  1.0000
  N   N3        1.0  0.5000037302649373  0.7643719925436876  0.20273491278497832  1.0000
  C   C8        1.0  0.638409551098219  0.6626659887298034  0.30509912118616095  1.0000
  H   H1        1.0  0.6692113609918912  0.39683885272512015  0.5726466471652198  1.0000
  H   H2        1.0  0.5046123219866301  0.39854103207321856  0.5709333501591893  1.0000
  H   H3        1.0  0.5369958801082554  0.8347726771962252  0.1318784707582299  1.0000
  H   H4        1.0  0.4303102101691651  0.7696756001464071  0.1973970460509376  1.0000
  H   H5        1.0  0.676281382076129  0.7360972058788682  0.23119257708276167  1.0000
  C   C9        1.0  0.08684235049572743  0.14092557290855323  0.4053272165226607  1.0000
  C   C10       1.0  0.05487462085244224  0.22245239073576983  0.2829312489191249  1.0000
  C   C11       1.0  0.031237174078412328  0.15578495333186937  0.15823447125432027  1.0000
  C   C12       1.0  0.03919770899505415  0.006405329659438184  0.15346459997181805  1.0000
  C   C13       1.0  0.06941716354165473  0.9231785952478684  0.2748276947242203  1.0000
  C   C14       1.0  0.09213364775831301  0.9881563069295758  0.40239168007306475  1.0000
  C   C15       1.0  0.015291148156650222  0.937986714197664  0.024332652121127788  1.0000
  C   C16       1.0  0.9952750171454849  0.8806686841149589  0.916204890316943  1.0000
  C   C17       1.0  0.9709894052697214  0.8111113920672407  0.7850108143699469  1.0000
  H   H6        1.0  0.2147258481138914  0.22548184900757673  0.6930005297242149  1.0000
  H   H7        1.0  0.0075513885982647615  0.22110101518118785  0.06492563497502268  1.0000
  H   H8        1.0  0.1753546568841134  0.6948393396507417  0.5991549687546218  1.0000
  H   H9        1.0  0.9873229333271558  0.694536103406379  0.7984569276832603  1.0000
  H   H10       1.0  0.8981585981422621  0.8234288745920588  0.7653576400234983  1.0000
  H   H11       1.0  0.009062933010198558  0.8626003176226096  0.6916906037283628  1.0000
  C   C18       1.0  0.09065076317302223  0.5604645353491488  0.9806745931851628  1.0000
  C   C19       1.0  0.16812842771890613  0.6075715294729644  0.05012770411071157  1.0000
  C   C20       1.0  0.24108331838784358  0.6660172062843861  0.9699720748146228  1.0000
  C   C21       1.0  0.23741258155206235  0.6782847375231451  0.8192744926743454  1.0000
  C   C22       1.0  0.16176870323923964  0.6300114925974996  0.7484819795438367  1.0000
  C   C23       1.0  0.08832525235486743  0.5686172729880112  0.8270443700303178  1.0000
  C   C24       1.0  0.31945121340352367  0.7151340693283383  0.04272490770881166  1.0000
  N   N4        1.0  0.38243893052608474  0.7546107843470418  0.10120593641005415  1.0000
  H   H12       1.0  0.8724642757391325  0.5116012004018626  0.08890650143063052  1.0000
  H   H13       1.0  0.2934597436384061  0.7239727354497973  0.756235812729591  1.0000
  H   H14       1.0  0.1616179662286414  0.6375955150136039  0.6313914671004475  1.0000
  H   H15       1.0  0.9423221250335692  0.5296623761689658  0.5499233596030082  1.0000
  Zn  Zn1       1.0  0.9913660751551852  0.5644416076289409  0.4039632260416434  1.0000
  Zn  Zn2       1.0  0.18760133919306587  0.5646395288786967  0.40375505548872126  1.0000
  C   C25       1.0  0.08872691324067694  0.5613293869924163  0.6670822481997223  1.0000
  C   C26       1.0  0.09024265496955347  0.5677535732017336  0.14063616619365904  1.0000
  C   C27       1.0  0.0911446434971912  0.8279563145529691  0.3972039793090041  1.0000
  C   C28       1.0  0.0878248467162313  0.3011249131447409  0.4105145179909644  1.0000
  O   O1        1.0  0.16457591083697476  0.5702686575233984  0.19424175352804257  1.0000
  O   O2        1.0  0.16333167654625802  0.5589634280574931  0.6133182531659218  1.0000
  O   O3        1.0  0.1652830162928218  0.7742680574418295  0.3953896374710124  1.0000
  O   O4        1.0  0.16262450448994598  0.35496403735019255  0.41217026120672323  1.0000
  O   O5        1.0  0.0163428428928707  0.7741170990914015  0.3955480203870947  1.0000
  O   O6        1.0  0.014391514177680474  0.5588142021374611  0.6134765532388691  1.0000
  O   O7        1.0  0.015635752974603404  0.5701193646439926  0.19439832117151168  1.0000
  O   O8        1.0  0.01368434626260529  0.35481473519361306  0.4123269369298744  1.0000
