data_image0
_chemical_formula_structural       NC12NC2H8C13OH12C12IH9Zn2C4O8
_chemical_formula_sum              "N2 C43 H29 O9 I1 Zn2"
_cell_length_a       17.80743265337812
_cell_length_b       10.29915010939255
_cell_length_c       10.299773350644651
_cell_angle_alpha    85.52407015278276
_cell_angle_beta     91.54321816322954
_cell_angle_gamma    89.41750150667457

_space_group_name_H-M_alt    "P 1"
_space_group_IT_number       1

loop_
  _space_group_symop_operation_xyz
  'x, y, z'

loop_
  _atom_site_type_symbol
  _atom_site_label
  _atom_site_symmetry_multiplicity
  _atom_site_fract_x
  _atom_site_fract_y
  _atom_site_fract_z
  _atom_site_occupancy
  N   N1        1.0  0.7070189961854674  0.4071564557428547  0.6008556376177148  1.0000
  C   C1        1.0  0.6561867345975892  0.43673510956059536  0.5321473032498857  1.0000
  C   C2        1.0  0.5929463876724771  0.47352880694039995  0.44668278395633143  1.0000
  C   C3        1.0  0.6046502090374558  0.5275860448954703  0.3200455044923045  1.0000
  C   C4        1.0  0.5433177380913566  0.5628754195587125  0.23697746686405452  1.0000
  C   C5        1.0  0.47012702692763336  0.5443712097199305  0.2798867215084356  1.0000
  C   C6        1.0  0.45744650176463403  0.4901950405877644  0.4069921801418513  1.0000
  C   C7        1.0  0.5196362865279458  0.454908924267414  0.4900437051151072  1.0000
  C   C8        1.0  0.3796880809305842  0.4705758873214052  0.45276208714748806  1.0000
  C   C9        1.0  0.3609102173313818  0.49773262612861885  0.5797957565827916  1.0000
  C   C10       1.0  0.287689556572422  0.47926998294902257  0.622745559313011  1.0000
  C   C11       1.0  0.23230392491526508  0.43339609710592725  0.5394997410490885  1.0000
  C   C12       1.0  0.1569469087846479  0.41438022949743814  0.5838506492100045  1.0000
  N   N2        1.0  0.09636520431352161  0.3990927508647981  0.6195057283353134  1.0000
  C   C13       1.0  0.2503903837679208  0.406070295145518  0.4130090944137115  1.0000
  C   C14       1.0  0.32355815993233666  0.42454778924514464  0.3698034020506238  1.0000
  H   H1        1.0  0.6611094884353157  0.5424197096606882  0.28560370324084605  1.0000
  H   H2        1.0  0.5524976497911556  0.6050005864863921  0.13918474837210607  1.0000
  H   H3        1.0  0.4234752273872949  0.574025699461119  0.21428627590111882  1.0000
  H   H4        1.0  0.5111550099941677  0.411398361907946  0.5877124607941141  1.0000
  H   H5        1.0  0.40258637555164484  0.5348986286434594  0.6453552988523682  1.0000
  H   H6        1.0  0.2742522694014886  0.5010928326632695  0.7207458902331364  1.0000
  H   H7        1.0  0.20799714722514787  0.37017157916404986  0.34786206206296266  1.0000
  H   H8        1.0  0.3364673783925156  0.4011891853862151  0.2721069374353142  1.0000
  C   C15       1.0  0.9017665172351674  0.02172338694139931  0.6103283534528989  1.0000
  C   C16       1.0  0.9003955293552178  0.009907917801061905  0.7470730158579997  1.0000
  C   C17       1.0  0.8996350159557998  0.8867840550109146  0.816138636163993  1.0000
  C   C18       1.0  0.9002506491102619  0.7746556790436726  0.7467026820212954  1.0000
  C   C19       1.0  0.9016248776943905  0.7845156498187263  0.6100445735706114  1.0000
  C   C20       1.0  0.9023768471171592  0.908509810626406  0.5426561276647428  1.0000
  C   C21       1.0  0.8981781074539791  0.8752665407258838  0.9607085479880126  1.0000
  C   C22       1.0  0.8519887713063575  0.7833231890285764  0.026517249881772845  1.0000
  C   C23       1.0  0.8505929320483234  0.772567144387241  0.16255620017851902  1.0000
  C   C24       1.0  0.8958539456081479  0.8525854170166431  0.2352693337357286  1.0000
  C   C25       1.0  0.9413245867335246  0.9454971016882856  0.17006877542286913  1.0000
  C   C26       1.0  0.942737864976238  0.9564285822691353  0.03403037175737556  1.0000
  C   C27       1.0  0.8927743516009898  0.8434143704929459  0.38120766748456614  1.0000
  O   O1        1.0  0.8366270629116405  0.9277409641411927  0.4187587002299557  1.0000
  H   H9        1.0  0.903866237396005  0.25132858321001783  0.35219301547574355  1.0000
  H   H10       1.0  0.8988744990309733  0.09669609321738926  0.8000085814552105  1.0000
  H   H11       1.0  0.900684245397594  0.679507448814738  0.79955681391358  1.0000
  H   H12       1.0  0.9034347049198744  0.9168313537143883  0.4372475376531708  1.0000
  H   H13       1.0  0.9021028885498166  0.4608337196455454  0.5574786500540905  1.0000
  H   H14       1.0  0.8160556407154882  0.7210753473267155  0.9726874760257449  1.0000
  H   H15       1.0  0.8140521637672411  0.701978271938205  0.2111812792776451  1.0000
  H   H16       1.0  0.9758739575214779  0.009326334781791122  0.22457846948584403  1.0000
  H   H17       1.0  0.979303880451986  0.02746210799453585  0.9862131429564647  1.0000
  H   H18       1.0  0.9480391986005777  0.8700861813672789  0.4240247953710268  1.0000
  H   H19       1.0  0.8805690109689395  0.7416338141811786  0.4184354930293681  1.0000
  H   H20       1.0  0.8369143932686239  0.9180269975414573  0.5153988653903734  1.0000
  C   C28       1.0  0.901659860881199  0.40322637046586074  0.22881550131537348  1.0000
  C   C29       1.0  0.969748901363838  0.47082527823205106  0.22571475435347282  1.0000
  C   C30       1.0  0.0042862946733168705  0.504969589137737  0.10701531590243164  1.0000
  C   C31       1.0  0.9698212066314543  0.4706096069012409  0.9904486822557121  1.0000
  C   C32       1.0  0.9017315366027188  0.40301271728181964  0.9915574401317442  1.0000
  C   C33       1.0  0.8680324289494222  0.3696985506620954  0.11122716431551097  1.0000
  C   C34       1.0  0.07631852462215805  0.5764812791085376  0.10478898885569433  1.0000
  C   C35       1.0  0.08811736537675952  0.6792643506557992  0.1851273702013976  1.0000
  C   C36       1.0  0.15595343921164528  0.7464571947153879  0.18283204286804677  1.0000
  C   C37       1.0  0.21274460835163977  0.7119186953494658  0.100575160783144  1.0000
  C   C38       1.0  0.2016702868117346  0.6100068875464137  0.020413903321440555  1.0000
  C   C39       1.0  0.13391046813599838  0.5425864739837243  0.02230702377486083  1.0000
  I   I1        1.0  0.3150168625558858  0.8134477410649424  0.09741821451080669  1.0000
  H   H21       1.0  0.8756929967366623  0.37753357974221613  0.5574444455882821  1.0000
  H   H22       1.0  0.9966087992134308  0.4955180155046379  0.3159690658203902  1.0000
  H   H23       1.0  0.9956889533856463  0.49826385535640944  0.8985647329441977  1.0000
  H   H24       1.0  0.8155044121144623  0.3175502156624237  0.11285086935732493  1.0000
  H   H25       1.0  0.8757979626862772  0.3772192390280438  0.6645297472702395  1.0000
  H   H26       1.0  0.044549141083614074  0.7087469091444732  0.2484207324008949  1.0000
  H   H27       1.0  0.1642531551813422  0.8255686605928418  0.24478667915277907  1.0000
  H   H28       1.0  0.2456070662078371  0.582753105294229  0.9568462423752423  1.0000
  H   H29       1.0  0.1269163975638583  0.46290703669773103  0.9605760355475003  1.0000
  Zn  Zn1       1.0  0.819375906196313  0.40482597503030104  0.6062451391971715  1.0000
  Zn  Zn2       1.0  0.9840082947713858  0.40141263425554086  0.6141268238051607  1.0000
  C   C40       1.0  0.9017172693348307  0.3978790187267187  0.8473846958463982  1.0000
  C   C41       1.0  0.901668729121115  0.4083611920079182  0.37298748008110444  1.0000
  C   C42       1.0  0.9016472967110748  0.6403332436896765  0.6049228111114178  1.0000
  C   C43       1.0  0.9017386458636013  0.16590540775584728  0.6154494319461877  1.0000
  O   O2        1.0  0.9641488399109199  0.40878347376908764  0.4243639735233205  1.0000
  O   O3        1.0  0.9641893322861468  0.3948651105962512  0.8019898451683912  1.0000
  O   O4        1.0  0.964131986412788  0.5906499805896162  0.6062001169629017  1.0000
  O   O5        1.0  0.9642061295955214  0.2129986142587479  0.6201536016606806  1.0000
  O   O6        1.0  0.8391780151912221  0.5932399961933159  0.6002183586451884  1.0000
  O   O7        1.0  0.8392353607648954  0.3974566866552853  0.7960080170241114  1.0000
  O   O8        1.0  0.8391948683013181  0.41137500500467117  0.41838058398924965  1.0000
  O   O9        1.0  0.8392521579937219  0.21559013617752742  0.6141703094982761  1.0000
