data_image0
_chemical_formula_structural       NC6NC2H4C6ClH3C6ClH4Zn2C4O8
_chemical_formula_sum              "N2 C24 H11 Cl2 Zn2 O8"
_cell_length_a       14.927258858638513
_cell_length_b       9.276545438789551
_cell_length_c       9.276548810779733
_cell_angle_alpha    86.11252841497436
_cell_angle_beta     89.72476428372391
_cell_angle_gamma    89.40960950127158

_space_group_name_H-M_alt    "P 1"
_space_group_IT_number       1

loop_
  _space_group_symop_operation_xyz
  'x, y, z'

loop_
  _atom_site_type_symbol
  _atom_site_label
  _atom_site_symmetry_multiplicity
  _atom_site_fract_x
  _atom_site_fract_y
  _atom_site_fract_z
  _atom_site_occupancy
  N   N1        1.0  0.8382985705185843  0.5635565328266368  0.41147098283853256  1.0000
  C   C1        1.0  0.7607720795012897  0.5635565044167054  0.4114709934062239  1.0000
  C   C2        1.0  0.6643395713715552  0.5635566190473396  0.41147094363387376  1.0000
  C   C3        1.0  0.6178243683490448  0.538712336623222  0.284822298368276  1.0000
  C   C4        1.0  0.5241130572473683  0.5387123610384017  0.2848221649791081  1.0000
  C   C5        1.0  0.476523508460299  0.5635564416867116  0.4114709621513105  1.0000
  C   C6        1.0  0.38009093333902755  0.563556556320256  0.4114709123730407  1.0000
  N   N2        1.0  0.30256444232173363  0.5635565279103243  0.41147092294073184  1.0000
  C   C7        1.0  0.5230386444912726  0.5884007241137397  0.5381196074109882  1.0000
  C   C8        1.0  0.6167499555929494  0.5884006996985596  0.5381197408001563  1.0000
  H   H1        1.0  0.6539385153323873  0.5193820829852669  0.1862823836505989  1.0000
  H   H2        1.0  0.4888348585711722  0.5193822804562396  0.18628237883341892  1.0000
  H   H3        1.0  0.4869245642329947  0.6077309684216234  0.6366596301640755  1.0000
  H   H4        1.0  0.6520281533088268  0.6077308786030028  0.6366596369875137  1.0000
  C   C9        1.0  0.07314021922379466  0.14011920957483157  0.4112334252268046  1.0000
  C   C10       1.0  0.07387553537582847  0.22255648700882988  0.27823225490118064  1.0000
  C   C11       1.0  0.0664519906415626  0.15628933192756178  0.14812587931822785  1.0000
  C   C12       1.0  0.05811412650517214  0.006706343408678483  0.14901901940264417  1.0000
  C   C13       1.0  0.05876820369015381  0.9227083640962521  0.2795789514700589  1.0000
  C   C14       1.0  0.06773143651395969  0.9869828883837405  0.4117209702398845  1.0000
  Cl  Cl1       1.0  0.06624797064668038  0.2614089227760085  0.9836184127187738  1.0000
  H   H5        1.0  0.11828220975546194  0.40514642999169576  0.6377820614868503  1.0000
  H   H6        1.0  0.07808168866471848  0.3392510075507167  0.27537932828657485  1.0000
  H   H7        1.0  0.051979047933298474  0.9550658195612276  0.048360958429911394  1.0000
  C   C15       1.0  0.07172318477991292  0.5596879553015885  0.9883256136377208  1.0000
  C   C16       1.0  0.14651986954224783  0.6145009372403536  0.057463634427747934  1.0000
  C   C17       1.0  0.2162234682565607  0.6800610322476448  0.9772688986970777  1.0000
  C   C18       1.0  0.21217506937572395  0.6919116540691885  0.8268361953123249  1.0000
  C   C19       1.0  0.1393368010377216  0.6360872191813587  0.756048485747733  1.0000
  C   C20       1.0  0.06914842697506712  0.5674140441123174  0.8346287989575081  1.0000
  Cl  Cl2       1.0  0.30826475115258534  0.7494914516754139  0.0658133273582211  1.0000
  H   H8        1.0  0.9640607109211595  0.39829270611923784  0.28123485037045226  1.0000
  H   H9        1.0  0.2659352426214723  0.7432072893302409  0.7643764656846936  1.0000
  H   H10       1.0  0.13896029691995468  0.6436110951299894  0.6390045260570649  1.0000
  H   H11       1.0  0.9255833600175032  0.5145489666090157  0.5580022793663111  1.0000
  Zn  Zn1       1.0  0.972275679752181  0.5635527436305678  0.4114792895949957  1.0000
  Zn  Zn2       1.0  0.1685873834439986  0.5635486140373962  0.4114744298288686  1.0000
  C   C21       1.0  0.06966981829834623  0.5602093124873906  0.6746560435442228  1.0000
  C   C22       1.0  0.07119537656515229  0.5668938658008169  0.14829781830560634  1.0000
  C   C23       1.0  0.06876665259959877  0.8268551714624254  0.40588664124464174  1.0000
  C   C24       1.0  0.07209848610743236  0.3002462751104544  0.41706729643390206  1.0000
  O   O1        1.0  0.1455175479487024  0.5693043773080534  0.20198410367885328  1.0000
  O   O2        1.0  0.14434369588283635  0.5577945751328495  0.620965654290206  1.0000
  O   O3        1.0  0.1436133693148235  0.7731144921521262  0.40393246123318494  1.0000
  O   O4        1.0  0.1462478077916508  0.35398446961884694  0.4190171887004644  1.0000
  O   O5        1.0  0.9946151884129916  0.7731168880520266  0.40393653071747937  1.0000
  O   O6        1.0  0.9953455041459347  0.5577987027509872  0.6209696479398668  1.0000
  O   O7        1.0  0.9965193618630505  0.5693084388618868  0.20198636483231303  1.0000
  O   O8        1.0  0.9972496214395263  0.353988521845519  0.4190195578834144  1.0000
