data_image0
_chemical_formula_structural       NC9NC5H8C12SCH12C11NCOCH12Zn2C4O8
_chemical_formula_sum              "N3 C44 H32 S1 O9 Zn2"
_cell_length_a       17.807436237873137
_cell_length_b       10.299776766347529
_cell_length_c       10.299158637457994
_cell_angle_alpha    85.5824420436923
_cell_angle_beta     89.37443015321587
_cell_angle_gamma    88.37162683502939

_space_group_name_H-M_alt    "P 1"
_space_group_IT_number       1

loop_
  _space_group_symop_operation_xyz
  'x, y, z'

loop_
  _atom_site_type_symbol
  _atom_site_label
  _atom_site_symmetry_multiplicity
  _atom_site_fract_x
  _atom_site_fract_y
  _atom_site_fract_z
  _atom_site_occupancy
  N   N1        1.0  0.7074206805631849  0.3872261947381658  0.5571385710716147  1.0000
  C   C1        1.0  0.6468417374667111  0.35203255047230514  0.5461137099360193  1.0000
  C   C2        1.0  0.5714881904448591  0.30825553272621264  0.5323999797512284  1.0000
  C   C3        1.0  0.5534295201515433  0.23680243276175483  0.42739397838355386  1.0000
  C   C4        1.0  0.4802651500120253  0.19418679587675847  0.4139961981354512  1.0000
  C   C5        1.0  0.4241108078771596  0.22264671851838821  0.5055719587736853  1.0000
  C   C6        1.0  0.3463559062911446  0.1774722181996624  0.49141566614900745  1.0000
  C   C7        1.0  0.2841595435674702  0.2592376068199256  0.5173567755375246  1.0000
  C   C8        1.0  0.2108529037840042  0.21641893738209056  0.5039726721274679  1.0000
  C   C9        1.0  0.14760588344827386  0.3008758031710243  0.5302777493762177  1.0000
  N   N2        1.0  0.0967682686122414  0.36877328060027126  0.5514263048566762  1.0000
  C   C10       1.0  0.199159134539409  0.09157689084610253  0.46462210349343197  1.0000
  C   C11       1.0  0.2604981315718565  0.009797646911892118  0.43867260397454233  1.0000
  C   C12       1.0  0.3336854502692572  0.05222170264086179  0.4518541572274937  1.0000
  C   C13       1.0  0.44286075008873077  0.29459426333821725  0.6107972040083383  1.0000
  C   C14       1.0  0.5160780558241626  0.3370194496742331  0.6240393269383251  1.0000
  H   H1        1.0  0.5958419164609949  0.21429115552295452  0.35567964401734486  1.0000
  H   H2        1.0  0.4673779521554479  0.1404744759385998  0.33107330563501347  1.0000
  H   H3        1.0  0.2926335318296576  0.35671272353075745  0.5462363893198966  1.0000
  H   H4        1.0  0.14270240281901414  0.05753708338775887  0.45402631371653146  1.0000
  H   H5        1.0  0.251325868681488  0.9131421900816128  0.4085925788134843  1.0000
  H   H6        1.0  0.3803420403810177  0.9864699258040114  0.4328040265662667  1.0000
  H   H7        1.0  0.401165094358549  0.31656696431087816  0.6838060444466342  1.0000
  H   H8        1.0  0.5294935693486675  0.39195197231842677  0.7059206037634331  1.0000
  C   C15       1.0  0.9021688994255527  0.9966310868424975  0.5542797733511282  1.0000
  C   C16       1.0  0.9066581404184412  0.9849051643877418  0.6907284943540282  1.0000
  C   C17       1.0  0.9088605420493917  0.8618283552034499  0.7598745671883808  1.0000
  C   C18       1.0  0.9065144837403382  0.7496242019299123  0.6907457923860307  1.0000
  C   C19       1.0  0.9020272493530954  0.759358081505342  0.5542962925577946  1.0000
  C   C20       1.0  0.8998791529698074  0.8832994739325126  0.4868270954125474  1.0000
  C   C21       1.0  0.9136013732501148  0.8504879508343053  0.9042220398437258  1.0000
  C   C22       1.0  0.8705909083614181  0.7590923413350008  0.978896121386513  1.0000
  C   C23       1.0  0.8750751489441807  0.7486530789843825  0.11474032364874609  1.0000
  C   C24       1.0  0.9223822077896833  0.8293403944926125  0.17771987881101614  1.0000
  C   C25       1.0  0.9655717017268334  0.9201542211518952  0.10441624244944471  1.0000
  C   C26       1.0  0.9611976245654177  0.9309381474311256  0.9685600088941905  1.0000
  S   S1        1.0  0.9282189513943498  0.8154809205521635  0.35202546446708805  1.0000
  C   C27       1.0  0.852722243119084  0.9351278155072676  0.37266191026318374  1.0000
  H   H9        1.0  0.9004878510834815  0.32855127674136314  0.5022861831019949  1.0000
  H   H10       1.0  0.9074162553584595  0.07171917090759705  0.7436759706443012  1.0000
  H   H11       1.0  0.9092315039825447  0.6545004898725832  0.7434683916874751  1.0000
  H   H12       1.0  0.8964164080804895  0.8915770118936035  0.38156270140113513  1.0000
  H   H13       1.0  0.9002799011254868  0.4356151411531325  0.5023083407996081  1.0000
  H   H14       1.0  0.8327808404094796  0.696903471006415  0.9323364769021404  1.0000
  H   H15       1.0  0.8414761802876152  0.6782030490500819  0.170955041339124  1.0000
  H   H16       1.0  0.0025819008901115663  0.9824374424048762  0.15257656456440094  1.0000
  H   H17       1.0  0.9957445262404307  0.0009748033277736654  0.9137444336675422  1.0000
  H   H18       1.0  0.8677707470411661  0.030726894046593012  0.323563225193071  1.0000
  H   H19       1.0  0.8439974799015652  0.9462582194978061  0.47806972217657884  1.0000
  H   H20       1.0  0.7998655100675127  0.9020854173312428  0.3313150847343823  1.0000
  C   C28       1.0  0.9021685223753911  0.37785328227633913  0.17291389340873886  1.0000
  C   C29       1.0  0.9038886686463967  0.5144736611177736  0.16157769675035527  1.0000
  C   C30       1.0  0.9047018166401632  0.583884735126224  0.038673323996729625  1.0000
  C   C31       1.0  0.9037447846596457  0.514840346594742  0.9262683359301  1.0000
  C   C32       1.0  0.9020276030977797  0.378135919186403  0.9356621813546249  1.0000
  C   C33       1.0  0.9012533301495314  0.3104827941754227  0.059372662987000176  1.0000
  C   C34       1.0  0.9065224206328224  0.7284122886649207  0.027654544332088804  1.0000
  C   C35       1.0  0.9526208565992039  0.7940607119748485  0.10954688628541101  1.0000
  C   C36       1.0  0.9104717562997735  0.003132256529119638  0.005542078903504551  1.0000
  C   C37       1.0  0.863478574340602  0.9378866236029988  0.925445950199852  1.0000
  C   C38       1.0  0.8617900058033943  0.8019053111100279  0.9356847113162489  1.0000
  N   N3        1.0  0.9101588433355845  0.14319167152133033  0.9943139386638189  1.0000
  C   C39       1.0  0.9745108246307105  0.21912885516368116  0.016602872374774424  1.0000
  O   O1        1.0  0.03929368756283114  0.1666463337217583  0.024167624811191064  1.0000
  C   C40       1.0  0.9656715926973293  0.3633615078781012  0.021337833317702566  1.0000
  H   H21       1.0  0.9035504456125729  0.5673064143159177  0.2485345122694027  1.0000
  H   H22       1.0  0.9053636691601142  0.5677766971516336  0.8312739784188597  1.0000
  H   H23       1.0  0.8999291129219201  0.20510418216753853  0.06740160145087737  1.0000
  H   H24       1.0  0.899242601448242  0.12007647052667211  0.7460936651773582  1.0000
  H   H25       1.0  0.987792320613865  0.7401672576575467  0.18122242902545338  1.0000
  H   H26       1.0  0.9889982636236117  0.9777649674053024  0.16557065866949583  1.0000
  H   H27       1.0  0.8283283387178602  0.9926540704556936  0.854339403122793  1.0000
  H   H28       1.0  0.8246707632221206  0.7542786853176016  0.8728810896056434  1.0000
  H   H29       1.0  0.8614503342312377  0.19295470795625036  0.9600827178285751  1.0000
  H   H30       1.0  0.9128412869855449  0.38757983288397346  0.07353113364757236  1.0000
  H   H31       1.0  0.9636430589814357  0.41012452713628494  0.9206496813004397  1.0000
  H   H32       1.0  0.013593699307741458  0.4018575054465265  0.07329028631161272  1.0000
  Zn  Zn1       1.0  0.8197779821663946  0.3818976198235222  0.5554976452538056  1.0000
  Zn  Zn2       1.0  0.9844109488056297  0.37409127330852265  0.553077907203427  1.0000
  C   C41       1.0  0.9020535225849085  0.3729088814998673  0.7914863100181361  1.0000
  C   C42       1.0  0.9021372058460727  0.3830815650521171  0.3170893435192686  1.0000
  C   C43       1.0  0.9020510933379086  0.6151847165517492  0.5491179666066219  1.0000
  C   C44       1.0  0.9021395791923781  0.1408041723887956  0.5594577569622978  1.0000
  O   O2        1.0  0.9646040496328236  0.38186809095814395  0.3645576635332688  1.0000
  O   O3        1.0  0.9645392913808463  0.36819653935558133  0.7421810909404882  1.0000
  O   O4        1.0  0.9645364872590799  0.5638373805919301  0.5464669512476635  1.0000
  O   O5        1.0  0.9646067975927758  0.1862272616397047  0.5602717066759885  1.0000
  O   O6        1.0  0.8395820771980981  0.5697616341576748  0.5483038466001509  1.0000
  O   O7        1.0  0.8395848810394082  0.37412235319809883  0.7440179170803666  1.0000
  O   O8        1.0  0.8396496396382369  0.38779385896384133  0.36639292824940206  1.0000
  O   O9        1.0  0.8396523875788529  0.1921530203928263  0.5621070687611334  1.0000
