data_image0
_chemical_formula_structural       NC8NH4C7NH5C6H6Zn2C4O8
_chemical_formula_sum              "N3 C25 H15 Zn2 O8"
_cell_length_a       11.048855714531884
_cell_length_b       9.275154477615127
_cell_length_c       10.681121600428286
_cell_angle_alpha    85.78691594316618
_cell_angle_beta     89.99986981468943
_cell_angle_gamma    89.43371274831733

_space_group_name_H-M_alt    "P 1"
_space_group_IT_number       1

loop_
  _space_group_symop_operation_xyz
  'x, y, z'

loop_
  _atom_site_type_symbol
  _atom_site_label
  _atom_site_symmetry_multiplicity
  _atom_site_fract_x
  _atom_site_fract_y
  _atom_site_fract_z
  _atom_site_occupancy
  N   N1        1.0  0.12659218229185076  0.5778877961684243  0.6241001304847716  1.0000
  C   C1        1.0  0.07256170578962974  0.5199519714937031  0.5500631172171464  1.0000
  C   C2        1.0  0.005148332854082673  0.44766457925266806  0.4576858225608653  1.0000
  C   C3        1.0  0.8774315790480108  0.44766438871815706  0.4576859102811748  1.0000
  C   C4        1.0  0.8152542818798144  0.37620507533438574  0.3663670866519959  1.0000
  C   C5        1.0  0.8792683224736794  0.30531100558039337  0.27577052508033173  1.0000
  C   C6        1.0  0.00567453580670696  0.30531089547903756  0.27577054439143267  1.0000
  C   C7        1.0  0.06851181987992573  0.37620517374963325  0.3663670629113229  1.0000
  C   C8        1.0  0.8088182840898581  0.5199520464111846  0.5500631060657949  1.0000
  N   N2        1.0  0.7538260680769105  0.5778878388308755  0.6241001556457255  1.0000
  H   H1        1.0  0.7171994678966975  0.37531023886638315  0.36522299780727674  1.0000
  H   H2        1.0  0.8308268507810329  0.2503239095840204  0.20550225770591268  1.0000
  H   H3        1.0  0.05502889110040998  0.25032401898383316  0.20550225755402643  1.0000
  H   H4        1.0  0.16658148006535578  0.3753101898301727  0.36522323666200146  1.0000
  C   C9        1.0  0.4437172511281962  0.1544985042248017  0.6226510147540572  1.0000
  C   C10       1.0  0.4104960834373812  0.2376775800256017  0.5122370677134047  1.0000
  C   C11       1.0  0.36743045350772396  0.17163914640064193  0.40767191164640804  1.0000
  C   C12       1.0  0.3568768960818945  0.02151862175961949  0.41228922116606803  1.0000
  C   C13       1.0  0.39121980251601496  0.9371318707551763  0.5201863702801728  1.0000
  C   C14       1.0  0.4367127132917552  0.0012660224040779182  0.6255600957547902  1.0000
  C   C15       1.0  0.3325990934342664  0.2584000343859574  0.295927188576528  1.0000
  N   N3        1.0  0.3046043415494102  0.3281398822882351  0.20611305438178176  1.0000
  H   H5        1.0  0.46718447412676106  0.23116958567791762  0.9300417458825001  1.0000
  H   H6        1.0  0.4154388477419273  0.354636980144329  0.508521379047006  1.0000
  H   H7        1.0  0.32313335821601963  0.9693920393582267  0.33192433149201506  1.0000
  H   H8        1.0  0.38486442845607294  0.8206642745821676  0.520076162060654  1.0000
  H   H9        1.0  0.4576498170163559  0.7024957931422747  0.8315206294257864  1.0000
  C   C16       1.0  0.4402150058190081  0.5778822322343751  0.2563603082754009  1.0000
  C   C17       1.0  0.35425032617857305  0.4976959607670543  0.1946623359020485  1.0000
  C   C18       1.0  0.3542502498490492  0.497696053214977  0.06378019626675391  1.0000
  C   C19       1.0  0.4402149100891687  0.5778823029100575  0.9918507441945446  1.0000
  C   C20       1.0  0.5261086391761238  0.6580021239721554  0.05354790792722386  1.0000
  C   C21       1.0  0.5261086238762908  0.6580021016154103  0.1844402065134627  1.0000
  H   H10       1.0  0.5271480782634234  0.6589725853983066  0.5498966414475803  1.0000
  H   H11       1.0  0.28686715203906754  0.43484217141813164  0.24748323303253542  1.0000
  H   H12       1.0  0.2868671262007281  0.43484223928496357  0.018979204040156187  1.0000
  H   H13       1.0  0.5935006120894898  0.7208641958323059  0.0007713746194646387  1.0000
  H   H14       1.0  0.5935005515281417  0.7208641452899887  0.22919574193023112  1.0000
  H   H15       1.0  0.5271484601562728  0.6589720830776817  0.687967614008457  1.0000
  Zn  Zn1       1.0  0.30759837909359966  0.5778839405625704  0.6241073535943413  1.0000
  Zn  Zn2       1.0  0.5728199962236851  0.5778798689740752  0.6241031406716184  1.0000
  C   C22       1.0  0.440259773128037  0.5721385333247289  0.8528075865480892  1.0000
  C   C23       1.0  0.44016148335271654  0.5836270953350775  0.3954030368345105  1.0000
  C   C24       1.0  0.4380304854587252  0.8412089173318433  0.6200198881827581  1.0000
  C   C25       1.0  0.44239069484953025  0.3145549791079463  0.6281907960154973  1.0000
  O   O1        1.0  0.5407937942424706  0.585547288715188  0.44206542631861195  1.0000
  O   O2        1.0  0.5409245418268864  0.5702141620318686  0.8061416353253728  1.0000
  O   O3        1.0  0.539123007027503  0.7874918999979552  0.6181639270555876  1.0000
  O   O4        1.0  0.5425952384543722  0.3682695610643325  0.6300430407291258  1.0000
  O   O5        1.0  0.33782304635577837  0.7874942484752718  0.6181674535316899  1.0000
  O   O6        1.0  0.3396245668205265  0.5702182427321612  0.8061451009806746  1.0000
  O   O7        1.0  0.3394938197323261  0.5855513191729966  0.44206738617872166  1.0000
  O   O8        1.0  0.3412952640245752  0.3682735812098692  0.6300450944433629  1.0000
