data_image0
_chemical_formula_structural       NC11NC3H8C12ClH9C12OCH12Zn2C4O8
_chemical_formula_sum              "N2 C43 H29 Cl1 O9 Zn2"
_cell_length_a       17.807433833752565
_cell_length_b       10.299768534541528
_cell_length_c       10.299794127170987
_cell_angle_alpha    85.578860457747
_cell_angle_beta     88.5176554422573
_cell_angle_gamma    90.7030232555817

_space_group_name_H-M_alt    "P 1"
_space_group_IT_number       1

loop_
  _space_group_symop_operation_xyz
  'x, y, z'

loop_
  _atom_site_type_symbol
  _atom_site_label
  _atom_site_symmetry_multiplicity
  _atom_site_fract_x
  _atom_site_fract_y
  _atom_site_fract_z
  _atom_site_occupancy
  N   N1        1.0  0.7077756772786197  0.43803582019210996  0.534763482502151  1.0000
  C   C1        1.0  0.6569454188095993  0.4033288901227608  0.6013216591728177  1.0000
  C   C2        1.0  0.593707452733718  0.3601563290737346  0.6841115371563911  1.0000
  C   C3        1.0  0.6054147802894583  0.29664260810634185  0.8068222749781907  1.0000
  C   C4        1.0  0.5440846681969328  0.25514913926563465  0.88732837949971  1.0000
  C   C5        1.0  0.47089278102679677  0.2768563132518127  0.8457645022135558  1.0000
  C   C6        1.0  0.45820871880191266  0.3405244494194166  0.7225935940136732  1.0000
  C   C7        1.0  0.3804490406368445  0.3635609166348653  0.6782492374350061  1.0000
  C   C8        1.0  0.36167075165894996  0.34665075766123454  0.5486748622234678  1.0000
  C   C9        1.0  0.2884489176288799  0.3683191910074306  0.5070669146121594  1.0000
  C   C10       1.0  0.233062411391327  0.40721606754823714  0.5942131168183242  1.0000
  C   C11       1.0  0.15770406700404252  0.42954256121503476  0.5512439590672622  1.0000
  N   N2        1.0  0.0971213310467555  0.4474914034286167  0.5166998835213356  1.0000
  C   C12       1.0  0.2511492106062581  0.4243366459105327  0.7232563896229209  1.0000
  C   C13       1.0  0.32431825980263  0.4026333578591166  0.765119753012902  1.0000
  C   C14       1.0  0.5203961408625282  0.3820133581851856  0.6421039043912344  1.0000
  H   H1        1.0  0.661875159944098  0.2792380677196758  0.8401857197970104  1.0000
  H   H2        1.0  0.5532674000176304  0.20572507730774658  0.9820585708401539  1.0000
  H   H3        1.0  0.4242429609003459  0.2423191918619177  0.9091995540108633  1.0000
  H   H4        1.0  0.4033476861491628  0.3149890132997817  0.47996094827283486  1.0000
  H   H5        1.0  0.2750113598028163  0.3544092020159091  0.4070369936263796  1.0000
  H   H6        1.0  0.20875529858696892  0.4547752231244633  0.7914555294778205  1.0000
  H   H7        1.0  0.3372276845918227  0.4180886887505173  0.8649669680011598  1.0000
  H   H8        1.0  0.5119121247173994  0.432799829513002  0.5476080521302475  1.0000
  C   C15       1.0  0.9023812373488544  0.061396581722594774  0.5257326582910642  1.0000
  C   C16       1.0  0.9073383436068884  0.07104326007232321  0.38904032431366065  1.0000
  C   C17       1.0  0.9099223726325099  0.958793697647235  0.31978126926078043  1.0000
  C   C18       1.0  0.907481828218158  0.8357590317351684  0.38904915656897887  1.0000
  C   C19       1.0  0.9025229546182922  0.8241207814086512  0.5257415104953125  1.0000
  C   C20       1.0  0.9000009824117833  0.937497137801642  0.5933177575676916  1.0000
  C   C21       1.0  0.9151675767037456  0.9700527712223583  0.1751721287989605  1.0000
  C   C22       1.0  0.8724328995509414  0.06253350045599904  0.10269458512662856  1.0000
  C   C23       1.0  0.8774367717935474  0.07293669438100814  0.9665892313503645  1.0000
  C   C24       1.0  0.9251028845515218  0.9913790461247847  0.9012730056481  1.0000
  C   C25       1.0  0.967825351150303  0.8992098283920933  0.9722399681390458  1.0000
  C   C26       1.0  0.9629548917599092  0.8884176274951594  0.10835377479729756  1.0000
  Cl  Cl1       1.0  0.931297277882909  0.004675408658595615  0.7305088358370018  1.0000
  H   H9        1.0  0.9004537887903568  0.3851735356164012  0.5778177018173963  1.0000
  H   H10       1.0  0.910238308251959  0.16611082931561794  0.3361757325150454  1.0000
  H   H11       1.0  0.9084212308845615  0.7489327699638618  0.3360619798559177  1.0000
  H   H12       1.0  0.8961760422725845  0.9292869623243646  0.6987696361965492  1.0000
  H   H13       1.0  0.9006633037696498  0.4922330452323411  0.5778312091597839  1.0000
  H   H14       1.0  0.8344447803166736  0.12560034581212598  0.15119825401507736  1.0000
  H   H15       1.0  0.8440847168247915  0.144224427881196  0.9120275413414237  1.0000
  H   H16       1.0  0.004975746409038751  0.8360755352740533  0.9220857688207981  1.0000
  H   H17       1.0  0.997260367902945  0.817445926173219  0.16137699778692946  1.0000
  C   C27       1.0  0.902477410813197  0.44264584270090135  0.14438449803097453  1.0000
  C   C28       1.0  0.8288515228267478  0.3917356651148594  0.15060601345414337  1.0000
  C   C29       1.0  0.791524062903414  0.36604116210339743  0.036612596351700985  1.0000
  C   C30       1.0  0.8288004899588737  0.39196088993190115  0.915303494074664  1.0000
  C   C31       1.0  0.9024267986881105  0.4428715851583084  0.9070896973065357  1.0000
  C   C32       1.0  0.9388537448390437  0.46792612123622757  0.022168973881378836  1.0000
  C   C33       1.0  0.7136341936529577  0.3121740353390954  0.04424920425173462  1.0000
  C   C34       1.0  0.6598611976885408  0.3595346452033297  0.9555966642585618  1.0000
  C   C35       1.0  0.5866568036665335  0.30882734628415937  0.9630432469265453  1.0000
  C   C36       1.0  0.5661613851425138  0.2103968106461045  0.05867884466981055  1.0000
  C   C37       1.0  0.6191929584946185  0.16161361397023535  0.14822833672758118  1.0000
  C   C38       1.0  0.692499594065344  0.2129629346491071  0.14032564781801482  1.0000
  O   O1        1.0  0.6014913693085839  0.06261196811440241  0.24586925821626493  1.0000
  C   C39       1.0  0.5294682049489389  0.0015899473419338595  0.2652467713249491  1.0000
  H   H18       1.0  0.9305420135231975  0.4619867358838412  0.46947092790422706  1.0000
  H   H19       1.0  0.7999860124882794  0.3736060096783298  0.24422189666850835  1.0000
  H   H20       1.0  0.8006346358853342  0.3706826482755521  0.8272783007756104  1.0000
  H   H21       1.0  0.9956533386546369  0.5072003505889247  0.016600930215691312  1.0000
  H   H22       1.0  0.9304664648360204  0.4623316662221677  0.5765032171183924  1.0000
  H   H23       1.0  0.6741630079481887  0.4369471980374928  0.8816159902276722  1.0000
  H   H24       1.0  0.5455887897624188  0.34622492783786685  0.8946114962907838  1.0000
  H   H25       1.0  0.509080646503457  0.17297676507840487  0.0621548238920242  1.0000
  H   H26       1.0  0.7332361199938825  0.17380730304842043  0.20859897606277464  1.0000
  H   H27       1.0  0.5139747236050862  0.9527584879338544  0.17710407563308772  1.0000
  H   H28       1.0  0.5313848169269145  0.9271615210892107  0.34882823079109326  1.0000
  H   H29       1.0  0.486693285470788  0.07480861064812916  0.28750987670882155  1.0000
  Zn  Zn1       1.0  0.820132421283409  0.4407610248548588  0.5295582021898151  1.0000
  Zn  Zn2       1.0  0.9847645696055431  0.44475558235693097  0.5219157492707327  1.0000
  C   C40       1.0  0.9024337066293935  0.43765520288604615  0.7629221161066546  1.0000
  C   C41       1.0  0.9024650823334811  0.4478630865957512  0.2885518793786628  1.0000
  C   C42       1.0  0.9024926373740447  0.6799480818614859  0.5205651035178251  1.0000
  C   C43       1.0  0.9024060951168937  0.20556864598253033  0.5309089637927934  1.0000
  O   O2        1.0  0.9649379860310087  0.45112428934655013  0.33403549842432745  1.0000
  O   O3        1.0  0.9649127940225518  0.43742479702304254  0.7116376782882488  1.0000
  O   O4        1.0  0.9649595390340746  0.6330793409717661  0.515932715020057  1.0000
  O   O5        1.0  0.9648911848498766  0.25546975329611654  0.5297403669299743  1.0000
  O   O6        1.0  0.8400057498582041  0.6300468525539394  0.5217335871317366  1.0000
  O   O7        1.0  0.8399590051377452  0.4343938688812614  0.7174384811757901  1.0000
  O   O8        1.0  0.8399841972914198  0.4480933154881559  0.3398347399750929  1.0000
  O   O9        1.0  0.8399373960990254  0.25243877017769734  0.535539705844448  1.0000
