data_image0
_chemical_formula_structural       NC8NH4C7NH5C9H8Zn2C4O8
_chemical_formula_sum              "N3 C28 H17 Zn2 O8"
_cell_length_a       13.859017124695912
_cell_length_b       9.275154477615127
_cell_length_c       9.273585224739813
_cell_angle_alpha    86.3668502262391
_cell_angle_beta     90.10205969128333
_cell_angle_gamma    89.43373790894346

_space_group_name_H-M_alt    "P 1"
_space_group_IT_number       1

loop_
  _space_group_symop_operation_xyz
  'x, y, z'

loop_
  _atom_site_type_symbol
  _atom_site_label
  _atom_site_symmetry_multiplicity
  _atom_site_fract_x
  _atom_site_fract_y
  _atom_site_fract_z
  _atom_site_occupancy
  N   N1        1.0  0.8963715028600898  0.5618454258110934  0.4163623572591899  1.0000
  C   C1        1.0  0.8241048698541075  0.5384221794105917  0.36010849302324077  1.0000
  C   C2        1.0  0.7342094603260219  0.5092870784241077  0.29013591731412514  1.0000
  C   C3        1.0  0.6464877071404878  0.5376908372641281  0.3583503778035906  1.0000
  C   C4        1.0  0.5589791317140249  0.5092882981205697  0.29013534287376985  1.0000
  C   C5        1.0  0.5593747444568389  0.4524742901488632  0.15368491252430716  1.0000
  C   C6        1.0  0.6469135282726156  0.4241797036661308  0.08573302711185948  1.0000
  C   C7        1.0  0.7342401201829264  0.4524719531238027  0.15368608156162944  1.0000
  C   C8        1.0  0.4688650244527767  0.5384231007234657  0.3601079986791631  1.0000
  N   N2        1.0  0.39642262607349066  0.5618457461647923  0.4163621425285686  1.0000
  H   H1        1.0  0.646322690910538  0.581667078222575  0.46396628328778444  1.0000
  H   H2        1.0  0.49216318492027  0.430119436123885  0.09999267271986945  1.0000
  H   H3        1.0  0.6470782713841116  0.3802932727695114  0.9803310146509756  1.0000
  H   H4        1.0  0.8016194333982639  0.4301150089365518  0.09999483265834752  1.0000
  C   C9        1.0  0.1491919617479791  0.13843941006114432  0.41469433975990305  1.0000
  C   C10       1.0  0.12256380040874837  0.22033104177002397  0.28760978392349923  1.0000
  C   C11       1.0  0.08809490027292544  0.1530733555554491  0.16725709002651845  1.0000
  C   C12       1.0  0.07968725104215513  0.0030066629635721043  0.17257153809002568  1.0000
  C   C13       1.0  0.10720643515632844  0.9198780108133194  0.2967593021062991  1.0000
  C   C14       1.0  0.14361149038397025  0.9852408442896244  0.4180426447402208  1.0000
  C   C15       1.0  0.060181315982354544  0.23853128173029695  0.03864083426656517  1.0000
  N   N3        1.0  0.037746533879167155  0.3072238820880282  0.9352663093929818  1.0000
  H   H5        1.0  0.16829938468023653  0.21869467844889634  0.7684958134423148  1.0000
  H   H6        1.0  0.12649951344991384  0.3372471196749074  0.2833330880108984  1.0000
  H   H7        1.0  0.052681604146596284  0.949943008020093  0.08007293427778128  1.0000
  H   H8        1.0  0.10213958297088332  0.8034091261485997  0.29663245653309867  1.0000
  H   H9        1.0  0.16057029540813827  0.6888721250692068  0.6550996942798339  1.0000
  C   C16       1.0  0.1459248872941974  0.5575521886486765  0.9930999934315583  1.0000
  C   C17       1.0  0.2322459586294741  0.5254394302740519  0.06892976159756281  1.0000
  C   C18       1.0  0.3197873484775516  0.5063037853577322  0.9965936939087952  1.0000
  C   C19       1.0  0.3202176639764107  0.5200915458893433  0.8445889848775218  1.0000
  C   C20       1.0  0.2349456324291619  0.5494934103581157  0.7677447780347597  1.0000
  C   C21       1.0  0.1468785639769874  0.5661280351894062  0.8396369426917764  1.0000
  C   C22       1.0  0.40943841008188137  0.473238807667066  0.08797812844092334  1.0000
  C   C23       1.0  0.48553973657529315  0.37431004707712573  0.02734899378455191  1.0000
  C   C24       1.0  0.50448215202306  0.5355241140924226  0.031890310901965924  1.0000
  H   H10       1.0  0.23183221365191486  0.5184811007242276  0.18607175716352886  1.0000
  H   H11       1.0  0.3857467660074608  0.5070638752390841  0.783603122824025  1.0000
  H   H12       1.0  0.0026721322421652243  0.6685752922958577  0.5513719535570019  1.0000
  H   H13       1.0  0.4031579038935651  0.4639398843997933  0.207703211715061  1.0000
  H   H14       1.0  0.47280625651700703  0.33720757898515324  0.9176244589555358  1.0000
  H   H15       1.0  0.5260297745376412  0.30680293086517074  0.1106033503040491  1.0000
  H   H16       1.0  0.5032120639066011  0.5961728814474343  0.924910967641095  1.0000
  H   H17       1.0  0.556034033847145  0.5622656501089809  0.11780351924578268  1.0000
  Zn  Zn1       1.0  0.04067549308024243  0.5618417530987334  0.41637060812623483  1.0000
  Zn  Zn2       1.0  0.25211871904601457  0.5618377769680949  0.41636566709287126  1.0000
  C   C25       1.0  0.1467339942053767  0.5587630615683801  0.679600624417406  1.0000
  C   C26       1.0  0.14606251504479384  0.5649182891286788  0.1531357994117477  1.0000
  C   C27       1.0  0.14465487685546655  0.8251191411475947  0.41166595998473454  1.0000
  C   C28       1.0  0.14814157174639075  0.29856047803851626  0.4210705338422267  1.0000
  O   O1        1.0  0.22635034793675216  0.5673826205572938  0.20684337787567242  1.0000
  O   O2        1.0  0.22692668405890748  0.5562946204304307  0.6258888766035637  1.0000
  O   O3        1.0  0.22524669049806523  0.7713805384263909  0.4095297453451152  1.0000
  O   O4        1.0  0.2280302691566225  0.35229671178211724  0.42320240110373475  1.0000
  O   O5        1.0  0.06476387081441959  0.7713828182875611  0.40953387410948205  1.0000
  O   O6        1.0  0.06644385286836063  0.5562986318053982  0.6258929353642328  1.0000
  O   O7        1.0  0.06586751518923051  0.5673865641322147  0.20684570349179232  1.0000
  O   O8        1.0  0.06754743659485785  0.3523006461391045  0.42320483474435133  1.0000
