data_image0
_chemical_formula_structural       NC5NC4H6C12H10C12H10Zn2C4O8
_chemical_formula_sum              "N2 C37 H26 Zn2 O8"
_cell_length_a       13.854160002989762
_cell_length_b       14.389296765108565
_cell_length_c       14.389300134226547
_cell_angle_alpha    85.54379651707656
_cell_angle_beta     90.22201772561286
_cell_angle_gamma    90.35206338593878

_space_group_name_H-M_alt    "P 1"
_space_group_IT_number       1

loop_
  _space_group_symop_operation_xyz
  'x, y, z'

loop_
  _atom_site_type_symbol
  _atom_site_label
  _atom_site_symmetry_multiplicity
  _atom_site_fract_x
  _atom_site_fract_y
  _atom_site_fract_z
  _atom_site_occupancy
  N   N1        1.0  0.9116887373238766  0.05667914329557733  0.015117049260445214  1.0000
  C   C1        1.0  0.8393188118813654  0.07447976424435629  0.977636047877374  1.0000
  C   C2        1.0  0.7492896037892539  0.09662423757475042  0.9310082393601231  1.0000
  C   C3        1.0  0.66176843065365  0.07573464791578056  0.9765672042429303  1.0000
  C   C4        1.0  0.5741471914220412  0.09662424740736848  0.9310082247715052  1.0000
  C   C5        1.0  0.48421067011969005  0.07447966717256765  0.9776361030919335  1.0000
  N   N2        1.0  0.41191516645877185  0.056679102540298204  0.015117047476440932  1.0000
  C   C6        1.0  0.5740823562625952  0.13879214791424166  0.8399190606055059  1.0000
  C   C7        1.0  0.6615795890872453  0.1610647012707578  0.7943517462296685  1.0000
  C   C8        1.0  0.6614552408422922  0.20370211357916596  0.6958427480931648  1.0000
  C   C9        1.0  0.7491594450736166  0.13879214953662003  0.8399190022143196  1.0000
  H   H1        1.0  0.6618434487275134  0.04302607009084694  0.04706551774102939  1.0000
  H   H2        1.0  0.5061659803436527  0.1543009939066318  0.8045405118130797  1.0000
  H   H3        1.0  0.7265384716953928  0.2481049271421916  0.6823221628593426  1.0000
  H   H4        1.0  0.5968299942025503  0.24810492656398023  0.6823222049807327  1.0000
  H   H5        1.0  0.6609009003872592  0.1475561501219701  0.6471272055302861  1.0000
  H   H6        1.0  0.8169889396914578  0.15430106844818633  0.8045404596552734  1.0000
  C   C10       1.0  0.160016920564241  0.7848310999445504  0.003599956060290066  1.0000
  C   C11       1.0  0.20922836345367846  0.7264354533506334  0.9460840299665754  1.0000
  C   C12       1.0  0.21270374894829847  0.6302896816409818  0.968821252047893  1.0000
  C   C13       1.0  0.16711290291617795  0.590433046897738  0.049579876555473135  1.0000
  C   C14       1.0  0.11797728769647975  0.6489243255422644  0.10707831551770736  1.0000
  C   C15       1.0  0.11443365565300923  0.7450655186870182  0.08430306447687304  1.0000
  C   C16       1.0  0.17083691214937727  0.4882603372812979  0.07378174031768132  1.0000
  C   C17       1.0  0.1600636629721194  0.42540062680958646  0.004174584508894293  1.0000
  C   C18       1.0  0.16359620677703415  0.3285196894784535  0.026641909152912077  1.0000
  C   C19       1.0  0.17809761839646043  0.29494875132154746  0.11990070383211043  1.0000
  C   C20       1.0  0.188791161954599  0.3568992977547759  0.1892800188930243  1.0000
  C   C21       1.0  0.1851852907739645  0.4529102849905736  0.16660091497558985  1.0000
  H   H7        1.0  0.10412197397164141  0.01371265012958678  0.02159959052316107  1.0000
  H   H8        1.0  0.24532961002782405  0.7550221664172614  0.8835422973906996  1.0000
  H   H9        1.0  0.25221768631764324  0.5872358232633683  0.9237947905714059  1.0000
  H   H10       1.0  0.08112817991816536  0.6201694840067081  0.16912814001280546  1.0000
  H   H11       1.0  0.07572925631840732  0.788157822751609  0.12989404493349865  1.0000
  H   H12       1.0  0.14760764142540808  0.45200462776679623  0.9326690972435624  1.0000
  H   H13       1.0  0.14743298074453826  0.12112881585396273  0.9266711405657917  1.0000
  H   H14       1.0  0.18120530753804243  0.22081234539602632  0.13936188625976162  1.0000
  H   H15       1.0  0.20019112895914595  0.33038060690619603  0.2609250573469497  1.0000
  H   H16       1.0  0.19490609791122465  0.4995456117306741  0.22148038280647106  1.0000
  C   C22       1.0  0.16077868121512795  0.06827125083695923  0.7414872410204298  1.0000
  C   C23       1.0  0.21368805643640404  0.12311032581302041  0.6742682233725481  1.0000
  C   C24       1.0  0.21566012802118406  0.10022829488863773  0.5816537949828409  1.0000
  C   C25       1.0  0.16483462865916057  0.021994896119474937  0.5542304780901011  1.0000
  C   C26       1.0  0.11200214849277489  0.9671693279612216  0.621542513078906  1.0000
  C   C27       1.0  0.10996432821211588  0.9900929232676555  0.714146339577111  1.0000
  C   C28       1.0  0.1669584936116557  0.9976375938493215  0.45581656960629835  1.0000
  C   C29       1.0  0.1607875094766597  0.0676951102352601  0.38214602883979476  1.0000
  C   C30       1.0  0.16283442589269098  0.045079506085456085  0.28875465286507773  1.0000
  C   C31       1.0  0.17116961994917013  0.9512137825382194  0.2696679963362161  1.0000
  C   C32       1.0  0.17727597391429306  0.8813879228976103  0.3423939586981519  1.0000
  C   C33       1.0  0.17516982887896443  0.9042188033876472  0.4348823513169995  1.0000
  H   H17       1.0  0.10379970452601017  0.05323391248092091  0.9730537164958284  1.0000
  H   H18       1.0  0.25384173291601386  0.18365473288698866  0.6932276876646841  1.0000
  H   H19       1.0  0.2580672159971882  0.14310732987665387  0.5316943284910302  1.0000
  H   H20       1.0  0.07113428694564682  0.9071552644450921  0.6023372766159703  1.0000
  H   H21       1.0  0.06832828657126422  0.9466077959285475  0.7642332514523393  1.0000
  H   H22       1.0  0.15306186109428618  0.13973610841194373  0.39764176298098663  1.0000
  H   H23       1.0  0.15328235330480688  0.1457333190646527  0.06583592348002763  1.0000
  H   H24       1.0  0.17299039630009316  0.9316217191026571  0.19855440966811863  1.0000
  H   H25       1.0  0.18393835485748666  0.8092630130928206  0.32700316088851844  1.0000
  H   H26       1.0  0.18125983246142954  0.8489199295648067  0.4900434772765525  1.0000
  Zn  Zn1       1.0  0.05604328875846852  0.056676424796465986  0.01512233052689004  1.0000
  Zn  Zn2       1.0  0.26756059507459495  0.056673921348607825  0.01511909788903576  1.0000
  C   C34       1.0  0.16241943135680348  0.04577534787610696  0.1851530821359109  1.0000
  C   C35       1.0  0.1611867702718497  0.06757616240866243  0.8450884872049955  1.0000
  C   C36       1.0  0.1629007312043067  0.2259083154542437  0.01857329197684276  1.0000
  C   C37       1.0  0.16070539111278292  0.8874420805093721  0.01166827990750751  1.0000
  O   O1        1.0  0.24159341751459482  0.06733789567644638  0.8798566139026728  1.0000
  O   O2        1.0  0.24254951982548323  0.04601102754948672  0.15038220410754055  1.0000
  O   O3        1.0  0.24293709710466227  0.1914706359144004  0.01586788578514364  1.0000
  O   O4        1.0  0.24120576784003522  0.921878296895418  0.014370862640122875  1.0000
  O   O5        1.0  0.0823980438125409  0.19147204925172523  0.015870565772047374  1.0000
  O   O6        1.0  0.08201047366443731  0.04601355521003472  0.1503848815472459  1.0000
  O   O7        1.0  0.0810543669970083  0.0673404385533723  0.8798581696640613  1.0000
  O   O8        1.0  0.08066671753734124  0.921880830190528  0.014372487982703628  1.0000
