data_image0
_chemical_formula_structural       NC8NC6H8C6NCOCH7C6NO2H3Zn2C4O8
_chemical_formula_sum              "N4 C32 H18 O11 Zn2"
_cell_length_a       17.457602349358154
_cell_length_b       10.300268703208214
_cell_length_c       9.273395971720356
_cell_angle_alpha    84.96326544088495
_cell_angle_beta     92.78021970675468
_cell_angle_gamma    91.66828978603887

_space_group_name_H-M_alt    "P 1"
_space_group_IT_number       1

loop_
  _space_group_symop_operation_xyz
  'x, y, z'

loop_
  _atom_site_type_symbol
  _atom_site_label
  _atom_site_symmetry_multiplicity
  _atom_site_fract_x
  _atom_site_fract_y
  _atom_site_fract_z
  _atom_site_occupancy
  N   N1        1.0  0.7236973422429152  0.46716797851711767  0.47330372622688355  1.0000
  C   C1        1.0  0.6626409235743158  0.42135758926623845  0.4615053077664633  1.0000
  C   C2        1.0  0.5866841436476196  0.3643750787121156  0.4468386811016462  1.0000
  C   C3        1.0  0.528061734038211  0.4037467912217448  0.5300876562876737  1.0000
  C   C4        1.0  0.4535419019465349  0.34887593523703786  0.5161039352742425  1.0000
  C   C5        1.0  0.3913230855220492  0.3904441572201541  0.6042677604840454  1.0000
  C   C6        1.0  0.3168363592980007  0.40949743464034244  0.5422852785027106  1.0000
  C   C7        1.0  0.2582138610926625  0.44868409984808766  0.6256542504413272  1.0000
  C   C8        1.0  0.18229138697527522  0.46836647620095456  0.561209233464308  1.0000
  N   N2        1.0  0.12126263542340161  0.48418472595339024  0.509395607863498  1.0000
  C   C9        1.0  0.27358529571946116  0.46905526652251506  0.7715709237925463  1.0000
  C   C10       1.0  0.34728679559358727  0.4503868740025898  0.8339842176935148  1.0000
  C   C11       1.0  0.40589712911997733  0.4113754389285085  0.751124005852843  1.0000
  C   C12       1.0  0.4389349009003616  0.25397105767644046  0.41727854267294284  1.0000
  C   C13       1.0  0.4975450783930592  0.21487380074716003  0.3344741706947294  1.0000
  C   C14       1.0  0.5712794935234295  0.2698512434282099  0.34906916689999123  1.0000
  H   H1        1.0  0.540314279159318  0.4782354154769488  0.6041469054015005  1.0000
  H   H2        1.0  0.3046109841924098  0.3956006805308323  0.42888381318968816  1.0000
  H   H3        1.0  0.22865079049896841  0.4993173867187217  0.8369671332529502  1.0000
  H   H4        1.0  0.3589985678079233  0.46584510247624045  0.946970759734811  1.0000
  H   H5        1.0  0.4623331289827908  0.3959000200183642  0.802372429597418  1.0000
  H   H6        1.0  0.382471681014336  0.2087506746874892  0.40543996523361137  1.0000
  H   H7        1.0  0.4858074840272089  0.141514156003004  0.25908294105243823  1.0000
  H   H8        1.0  0.6162136364097546  0.23871411366716738  0.2842411023196332  1.0000
  C   C15       1.0  0.9225615816428415  0.09433210444194828  0.4913656049245478  1.0000
  C   C16       1.0  0.9356487164432218  0.10569067936835964  0.342488394786008  1.0000
  C   C17       1.0  0.9432894778753161  0.994155764864702  0.26787242327885674  1.0000
  C   C18       1.0  0.9354751364627311  0.8705233919378529  0.34250865132309594  1.0000
  C   C19       1.0  0.9224057030689474  0.8570107960625551  0.4913468615874059  1.0000
  C   C20       1.0  0.9163066252866244  0.9695398268352273  0.5651034798206551  1.0000
  N   N3        1.0  0.9554943392588028  0.004146997592491928  0.11497720790570588  1.0000
  C   C21       1.0  0.0006094137043701762  0.10591574206818732  0.041502701684951175  1.0000
  O   O1        1.0  0.0438567255763347  0.18013485149006625  0.11209263046982997  1.0000
  C   C22       1.0  0.0008073626405049648  0.11833218800564094  0.8798031864007112  1.0000
  H   H9        1.0  0.9383807150174475  0.20120958044599482  0.2840074551815215  1.0000
  H   H10       1.0  0.9402979262703492  0.7849237361416891  0.28385328769207385  1.0000
  H   H11       1.0  0.906233809945643  0.9599708183389534  0.679936196516489  1.0000
  H   H12       1.0  0.934423777287792  0.9283670057686645  0.0550596393292968  1.0000
  H   H13       1.0  0.9421366532656125  0.09917108198477798  0.8335484453684061  1.0000
  H   H14       1.0  0.01986935421200476  0.21820419229675414  0.8394390987602947  1.0000
  H   H15       1.0  0.04044393578882466  0.04667722006479225  0.8436619415583673  1.0000
  C   C23       1.0  0.9229193850272259  0.4796795033321293  0.06745906131065249  1.0000
  C   C24       1.0  0.854540088961788  0.5063932670272224  0.1318379534737555  1.0000
  C   C25       1.0  0.7859485752857771  0.520818816562459  0.04918153116636925  1.0000
  C   C26       1.0  0.7837904599393696  0.5087960283791463  0.8996910463397175  1.0000
  C   C27       1.0  0.852128306790603  0.48430564398499976  0.833870699993521  1.0000
  C   C28       1.0  0.92204789237558  0.47166337013514725  0.9152534422861205  1.0000
  N   N4        1.0  0.7126712505029986  0.522680616532704  0.8150970721502122  1.0000
  O   O2        1.0  0.645999068830516  0.5477353732744459  0.879818844353426  1.0000
  O   O3        1.0  0.7102303526858672  0.511874121385588  0.6818800041505337  1.0000
  H   H16       1.0  0.09081089470346186  0.34138354841965524  0.19912346547223914  1.0000
  H   H17       1.0  0.7343163329765026  0.5401421222985017  0.1028770911279131  1.0000
  H   H18       1.0  0.036518948349191005  0.38241290840114583  0.6541966805374355  1.0000
  Zn  Zn1       1.0  0.8384260901483404  0.4720750829608294  0.48372739838365525  1.0000
  Zn  Zn2       1.0  0.006533863295683509  0.479266862631872  0.4989837541794316  1.0000
  C   C29       1.0  0.9222119843995306  0.46800517647534434  0.7550021053784219  1.0000
  C   C30       1.0  0.9227498042956548  0.48333848482566805  0.22770935542420603  1.0000
  C   C31       1.0  0.9224371423523016  0.7129024909611116  0.48559777963373985  1.0000
  C   C32       1.0  0.9225245892191933  0.2384396069561954  0.4971137529610293  1.0000
  O   O4        1.0  0.9864889164192038  0.48729004996888  0.2872805256876678  1.0000
  O   O5        1.0  0.9860627829730734  0.4695110299656666  0.7070097406445777  1.0000
  O   O6        1.0  0.9862437393236425  0.6672686575786138  0.4894637634431338  1.0000
  O   O7        1.0  0.9863079028141969  0.2895324302148654  0.5048263894495415  1.0000
  O   O8        1.0  0.8586519932629025  0.66180951292512  0.47788475789970697  1.0000
  O   O9        1.0  0.858471036669098  0.46405344624316225  0.6954306580951712  1.0000
  O   O10       1.0  0.8588971719594889  0.481832437405328  0.2756997076240846  1.0000
  O   O11       1.0  0.8587161582419947  0.2840748073396655  0.49324567961169036  1.0000
