data_image0
_chemical_formula_structural       NC9NC5H8C6OCH8C6OCH7Zn2C4O8
_chemical_formula_sum              "N2 C32 H23 O10 Zn2"
_cell_length_a       17.807436237873137
_cell_length_b       9.273888216677435
_cell_length_c       9.27389158865715
_cell_angle_alpha    86.27290680644057
_cell_angle_beta     89.08663702953788
_cell_angle_gamma    87.81887448081709

_space_group_name_H-M_alt    "P 1"
_space_group_IT_number       1

loop_
  _space_group_symop_operation_xyz
  'x, y, z'

loop_
  _atom_site_type_symbol
  _atom_site_label
  _atom_site_symmetry_multiplicity
  _atom_site_fract_x
  _atom_site_fract_y
  _atom_site_fract_z
  _atom_site_occupancy
  N   N1        1.0  0.7040998394213003  0.5267088031722225  0.4039651610319239  1.0000
  C   C1        1.0  0.6437524943011499  0.4875108849610932  0.3915890517708487  1.0000
  C   C2        1.0  0.5686870297097323  0.43875299123340183  0.37619451585003927  1.0000
  C   C3        1.0  0.5513541713002417  0.35836236356201256  0.2593602225658478  1.0000
  C   C4        1.0  0.47847038900368327  0.3108975227148383  0.24432096405974899  1.0000
  C   C5        1.0  0.4218730418392971  0.3434036520468353  0.3460784780703643  1.0000
  C   C6        1.0  0.34441543386098916  0.29308922575904284  0.3301871979064596  1.0000
  C   C7        1.0  0.2816799878211899  0.3841609406955362  0.3593036232813469  1.0000
  C   C8        1.0  0.2086550328992188  0.33647072207198847  0.34427874362236355  1.0000
  C   C9        1.0  0.1448526998827688  0.430535461577606  0.37380978712374024  1.0000
  N   N2        1.0  0.0935686486858143  0.5061570154957766  0.3975519164990582  1.0000
  C   C10       1.0  0.1977835579914712  0.19742198873490954  0.3001082758231217  1.0000
  C   C11       1.0  0.2596617420458371  0.1063348024595796  0.2709824830484189  1.0000
  C   C12       1.0  0.3325702168933212  0.1535847372471628  0.28578098236141614  1.0000
  C   C13       1.0  0.4398937193029798  0.42434561079105615  0.4631580752624402  1.0000
  C   C14       1.0  0.512831987464562  0.4715973934887982  0.4780238087504733  1.0000
  H   H1        1.0  0.5941147477832449  0.3326576537253271  0.17967152212112292  1.0000
  H   H2        1.0  0.4661411328601652  0.25042774481526897  0.15206802689237642  1.0000
  H   H3        1.0  0.2895176460666664  0.49271042680861726  0.39174370425048116  1.0000
  H   H4        1.0  0.14155062203933289  0.1595098499750922  0.2882129740460586  1.0000
  H   H5        1.0  0.2511249232158238  0.9986839904142788  0.23721323473768072  1.0000
  H   H6        1.0  0.3796547109118367  0.08036696117588993  0.26437648750905285  1.0000
  H   H7        1.0  0.3978489009448277  0.4494647704604661  0.5442814941709007  1.0000
  H   H8        1.0  0.5256859343960573  0.5334122871141482  0.5691254167958459  1.0000
  C   C15       1.0  0.9010487503892501  0.09284066658282762  0.3992494186203339  1.0000
  C   C16       1.0  0.883880409750115  0.17584773700732348  0.270784660444253  1.0000
  C   C17       1.0  0.8603020791896663  0.11125665776506488  0.14808050827670183  1.0000
  C   C18       1.0  0.8537544759519514  0.9606681294011127  0.15338048476522537  1.0000
  C   C19       1.0  0.8717174158059755  0.8763990077571475  0.27905948530742375  1.0000
  C   C20       1.0  0.8966269192591688  0.9400138224598865  0.40228001918887707  1.0000
  O   O1        1.0  0.8435766848427947  0.2004456919284172  0.02384618135734717  1.0000
  C   C21       1.0  0.8188870375845781  0.1496270495885039  0.891603099121614  1.0000
  H   H9        1.0  0.9061209988091001  0.17245811360102017  0.7538811726411209  1.0000
  H   H10       1.0  0.8870670160940899  0.2925166038443114  0.26645972260758244  1.0000
  H   H11       1.0  0.8354809389723528  0.9073543092304429  0.060457648906945716  1.0000
  H   H12       1.0  0.8678137484088312  0.7601322499621729  0.2786437954406702  1.0000
  H   H13       1.0  0.9031951118166808  0.6428832420359133  0.6400875322057324  1.0000
  H   H14       1.0  0.7649102294060744  0.09450120606220237  0.9091041742122673  1.0000
  H   H15       1.0  0.8621597446912497  0.07434532380771787  0.8476690977114667  1.0000
  H   H16       1.0  0.8099828184931678  0.24306328273526012  0.812057945874785  1.0000
  C   C22       1.0  0.9000889224055926  0.5125419939908513  0.9774554457188679  1.0000
  C   C23       1.0  0.9613148565644  0.5702210465709553  0.04523368595684674  1.0000
  C   C24       1.0  0.0182217849803199  0.638896275163576  0.9647372053577028  1.0000
  C   C25       1.0  0.014105723634524558  0.6502430903439171  0.8134032378295947  1.0000
  C   C26       1.0  0.9544632043365392  0.5916073085378593  0.7442536770020434  1.0000
  C   C27       1.0  0.8975867472948108  0.5203124434240033  0.8240739642333068  1.0000
  O   O2        1.0  0.07740463831013368  0.6949076165893223  0.039175795031119336  1.0000
  C   C28       1.0  0.13889364496812573  0.7675564278623306  0.9713519596802107  1.0000
  H   H17       1.0  0.721797885194064  0.4333789122416396  0.09109919452510606  1.0000
  H   H18       1.0  0.05710933534722739  0.703040659006112  0.7479652940001982  1.0000
  H   H19       1.0  0.9538180189080803  0.5990735993308891  0.6272090805566375  1.0000
  H   H20       1.0  0.7787230875156979  0.4612367410660987  0.5503603681691978  1.0000
  H   H21       1.0  0.11821126256933566  0.866234142992099  0.9076377503731252  1.0000
  H   H22       1.0  0.17060228639099773  0.6943133176915948  0.90016721694067  1.0000
  H   H23       1.0  0.17718297548960707  0.8000052366597442  0.055685391262751516  1.0000
  Zn  Zn1       1.0  0.8164921190431823  0.5207742287643589  0.40212276020274196  1.0000
  Zn  Zn2       1.0  0.9811763772141161  0.5120799404523106  0.3994061260185333  1.0000
  C   C29       1.0  0.898088041450871  0.5130973109633439  0.6640244250106413  1.0000
  C   C30       1.0  0.8995822432355708  0.5197585846496768  0.1375045795402492  1.0000
  C   C31       1.0  0.8974758618498018  0.7798275442510822  0.39596292909150804  1.0000
  C   C32       1.0  0.9001943754599256  0.25302662198280323  0.405566147039752  1.0000
  O   O3        1.0  0.9619090476405766  0.5188748082721861  0.19018755989049338  1.0000
  O   O4        1.0  0.9607527853694695  0.5073812316831725  0.6092791633213488  1.0000
  O   O5        1.0  0.9602575956826233  0.7227693265624084  0.39281762805042675  1.0000
  O   O6        1.0  0.9624041813974197  0.303486725686491  0.4066489880420605  1.0000
  O   O7        1.0  0.835264258661238  0.7293674464986128  0.3948798990986919  1.0000
  O   O8        1.0  0.8357594395261583  0.5139810839669468  0.6113413637087213  1.0000
  O   O9        1.0  0.8369157072317819  0.5254745943798542  0.19224802698432295  1.0000
  O   O10       1.0  0.8374108407199876  0.3100865024690529  0.4087095631747221  1.0000
