data_image0
_chemical_formula_structural       NC12NC2H8C6SCOC6H10C7OC3OC4H12Zn2C4O8
_chemical_formula_sum              "N2 C45 H30 S1 O11 Zn2"
_cell_length_a       19.240039667572717
_cell_length_b       10.302038109246572
_cell_length_c       10.299374482448636
_cell_angle_alpha    85.55445882342694
_cell_angle_beta     89.98179719486372
_cell_angle_gamma    90.01678309981642

_space_group_name_H-M_alt    "P 1"
_space_group_IT_number       1

loop_
  _space_group_symop_operation_xyz
  'x, y, z'

loop_
  _atom_site_type_symbol
  _atom_site_label
  _atom_site_symmetry_multiplicity
  _atom_site_fract_x
  _atom_site_fract_y
  _atom_site_fract_z
  _atom_site_occupancy
  N   N1        1.0  0.6549436379950061  0.42127749017120064  0.5676255275211506  1.0000
  C   C1        1.0  0.5947952692048298  0.42127757415201605  0.5676254455946452  1.0000
  C   C2        1.0  0.519977232105411  0.42127769144256355  0.5676253083037337  1.0000
  C   C3        1.0  0.4834758204647559  0.35680303650645345  0.671030691144973  1.0000
  C   C4        1.0  0.4108050402591131  0.3566921609589794  0.6711172187637917  1.0000
  C   C5        1.0  0.3736449972213219  0.42127778404009136  0.5676250806287739  1.0000
  C   C6        1.0  0.410860632566968  0.48586359401654833  0.46413313707106707  1.0000
  C   C7        1.0  0.48353128886728824  0.48575248299639506  0.46421978715718243  1.0000
  C   C8        1.0  0.2964399067855928  0.42127770542045573  0.5676249851972901  1.0000
  C   C9        1.0  0.2592272183302202  0.3080338711747903  0.60947893292867  1.0000
  C   C10       1.0  0.18655656224084258  0.3081407677928216  0.6093876215146556  1.0000
  C   C11       1.0  0.1501076198317829  0.42127757626375995  0.5676250460888943  1.0000
  C   C12       1.0  0.07528958261669928  0.4212774624884752  0.5676252947400777  1.0000
  N   N2        1.0  0.015141265722746404  0.4212774216247641  0.5676255031601496  1.0000
  C   C13       1.0  0.18660618830022116  0.5344144605569188  0.5258624177827443  1.0000
  C   C14       1.0  0.2592769168687561  0.5345215372919285  0.5257709437974896  1.0000
  H   H1        1.0  0.511169126991541  0.30688519410485654  0.7517667445494226  1.0000
  H   H2        1.0  0.3836901094293602  0.3075719464168123  0.7529689467548613  1.0000
  H   H3        1.0  0.38378903262148345  0.5349838356168795  0.3822813582341475  1.0000
  H   H4        1.0  0.5112677537409516  0.5356702250933121  0.38348400954165607  1.0000
  H   H5        1.0  0.2863012135194907  0.21889224604075255  0.6406332605132253  1.0000
  H   H6        1.0  0.1588224055314578  0.2198978611876434  0.6415750970436218  1.0000
  H   H7        1.0  0.15891052155549423  0.6226573426275968  0.49367495680076545  1.0000
  H   H8        1.0  0.28638940051672473  0.6236632415944556  0.4946165714526007  1.0000
  C   C15       1.0  0.834979968693402  0.03999903895967028  0.5675853379973402  1.0000
  C   C16       1.0  0.7755773385804849  0.044787202001675304  0.4880633065037203  1.0000
  C   C17       1.0  0.7463480638969677  0.9302111957527993  0.44801251118446456  1.0000
  C   C18       1.0  0.77580089639752  0.8096546162576338  0.48800929863652853  1.0000
  C   C19       1.0  0.8351116288468657  0.8025459150665109  0.567676915204806  1.0000
  C   C20       1.0  0.8644310786974815  0.9183714212480902  0.6069667964587717  1.0000
  S   S1        1.0  0.6709470849759573  0.9377701354862891  0.3454002511800429  1.0000
  C   C21       1.0  0.7220698240110369  0.9462988313378711  0.19897372008654046  1.0000
  O   O1        1.0  0.7388360054911296  0.8410419262706796  0.15262223039119416  1.0000
  C   C22       1.0  0.7450027275815045  0.07248031423023948  0.13347412733888198  1.0000
  C   C23       1.0  0.7941591254937475  0.07484329350355767  0.03196443219780475  1.0000
  C   C24       1.0  0.8165068996888553  0.19319389111546603  0.9702394155994001  1.0000
  C   C25       1.0  0.7900744671409071  0.3104218079814933  0.008741884690165238  1.0000
  C   C26       1.0  0.7411273183380618  0.30953172809734975  0.10889849369215952  1.0000
  C   C27       1.0  0.7185478277328113  0.19148469335561574  0.17094369286140276  1.0000
  H   H9        1.0  0.9468664477654605  0.2382779004101952  0.7176438132692139  1.0000
  H   H10       1.0  0.7519365745129225  0.13731658999270113  0.45678654017057996  1.0000
  H   H11       1.0  0.7523841247600165  0.7219105849528525  0.4562439860300336  1.0000
  H   H12       1.0  0.9102266212887631  0.9137597712431468  0.6682696538750268  1.0000
  H   H13       1.0  0.8577828200183801  0.47252873886788777  0.5976444205540241  1.0000
  H   H14       1.0  0.81566421103941  0.9852861274030117  0.0006658808948945029  1.0000
  H   H15       1.0  0.8544329133576464  0.19396558928387253  0.8925393914591724  1.0000
  H   H16       1.0  0.8074550342295742  0.4019374691558348  0.9608661073647826  1.0000
  H   H17       1.0  0.7205334172314888  0.4004721950737735  0.13843633613206374  1.0000
  H   H18       1.0  0.680214868816459  0.19410096948251754  0.24751134391057739  1.0000
  C   C28       1.0  0.8351101872934271  0.4213599408386832  0.18624858727381755  1.0000
  C   C29       1.0  0.9077103391852276  0.4360207583995752  0.1838789615909624  1.0000
  C   C30       1.0  0.9442403051572426  0.44488630569980603  0.06539617688775357  1.0000
  C   C31       1.0  0.9075441976489166  0.4359569028679291  0.9486401032023841  1.0000
  C   C32       1.0  0.8349813770250815  0.42118498950901667  0.9490135937022286  1.0000
  C   C33       1.0  0.7991646286770512  0.4143129307258533  0.06832409239367077  1.0000
  C   C34       1.0  0.02098238649779116  0.4590089244923168  0.06285884673608222  1.0000
  O   O2        1.0  0.0550716735216239  0.4054796655346792  0.9770052832513189  1.0000
  C   C35       1.0  0.05904895117483466  0.5338724284788863  0.15763565123702783  1.0000
  C   C36       1.0  0.12685191999863465  0.497163343966154  0.19579551482005475  1.0000
  C   C37       1.0  0.16398818585885966  0.5674106216527306  0.2840072810574159  1.0000
  O   O3        1.0  0.23122577676311204  0.5255284163576504  0.3192954790572391  1.0000
  C   C38       1.0  0.27478281670548776  0.5873843313679643  0.40769522458229845  1.0000
  C   C39       1.0  0.13293745588305783  0.6767711172146249  0.3339350712541022  1.0000
  C   C40       1.0  0.0659461948205986  0.7148130961850139  0.29526481328829424  1.0000
  C   C41       1.0  0.0292110363209066  0.6443328648749422  0.20729405156638991  1.0000
  H   H19       1.0  0.6982232364799861  0.3917061212840498  0.3981960500515644  1.0000
  H   H20       1.0  0.9360180971302464  0.4391120013932998  0.2744706083436079  1.0000
  H   H21       1.0  0.9356921028904975  0.44181108022791316  0.857247189107524  1.0000
  H   H22       1.0  0.7431952156761543  0.4030096602985557  0.06934718512540661  1.0000
  H   H23       1.0  0.8071713328505835  0.41442704376345535  0.6217840075070957  1.0000
  H   H24       1.0  0.15094074753287523  0.412871390762904  0.15790688150358978  1.0000
  H   H25       1.0  0.3248028931806082  0.5340398705604996  0.417647497832655  1.0000
  H   H26       1.0  0.24968510862186852  0.5855838275694947  0.5049297174750593  1.0000
  H   H27       1.0  0.2854857504226438  0.6893657033162641  0.37004592573310213  1.0000
  H   H28       1.0  0.1601830634377599  0.7331953569293015  0.40213279195578844  1.0000
  H   H29       1.0  0.042510197650456494  0.7995939821850208  0.3331824362172697  1.0000
  H   H30       1.0  0.9778213240019461  0.677051829685275  0.17707381872491168  1.0000
  Zn  Zn1       1.0  0.7588888999687866  0.42127400229320133  0.5676330087680291  1.0000
  Zn  Zn2       1.0  0.9111960189019539  0.42127031610529286  0.5676286199198348  1.0000
  C   C42       1.0  0.8350032880154515  0.4160456180564176  0.8048340898498914  1.0000
  C   C43       1.0  0.8350832943055699  0.4265003385033559  0.3304276664577292  1.0000
  C   C44       1.0  0.8350840193277235  0.6584095013484712  0.562484226589613  1.0000
  C   C45       1.0  0.8350025107405454  0.1841348952643327  0.5727775987733239  1.0000
  O   O4        1.0  0.8928740256752614  0.42821843963159667  0.37881381629892985  1.0000
  O   O5        1.0  0.8928101356632376  0.4143237397925596  0.7564442349974888  1.0000
  O   O6        1.0  0.8928745478224666  0.6100356403696772  0.5607450059338592  1.0000
  O   O7        1.0  0.8928095615619768  0.23250654836608864  0.5745129479870291  1.0000
  O   O8        1.0  0.7772753053338203  0.610037770035079  0.5607486806955009  1.0000
  O   O9        1.0  0.7772108934524009  0.4143274294076038  0.7564478406984809  1.0000
  O   O10       1.0  0.7772747837665085  0.42822208435953013  0.37881586053807714  1.0000
  O   O11       1.0  0.7772103196323361  0.23251018378508626  0.5745150895963735  1.0000
