data_image0
_chemical_formula_structural       NC10NC5H10C13OH12C13F3H9Zn2C4O8
_chemical_formula_sum              "N2 C45 H31 O9 F3 Zn2"
_cell_length_a       19.4436361288709
_cell_length_b       10.299150109392551
_cell_length_c       10.2985328690268
_cell_angle_alpha    85.5582241043329
_cell_angle_beta     89.71035499971406
_cell_angle_gamma    89.39953782186458

_space_group_name_H-M_alt    "P 1"
_space_group_IT_number       1

loop_
  _space_group_symop_operation_xyz
  'x, y, z'

loop_
  _atom_site_type_symbol
  _atom_site_label
  _atom_site_symmetry_multiplicity
  _atom_site_fract_x
  _atom_site_fract_y
  _atom_site_fract_z
  _atom_site_occupancy
  N   N1        1.0  0.6473291536697303  0.40897908228796576  0.5615141941027786  1.0000
  C   C1        1.0  0.5884931060749774  0.4188836576653814  0.5758959681266813  1.0000
  C   C2        1.0  0.5151636881587429  0.4312359979432011  0.5938855447069283  1.0000
  C   C3        1.0  0.472974935359154  0.3992240989963831  0.49921523258706335  1.0000
  C   C4        1.0  0.3970690353732688  0.409663912273726  0.5045402396334483  1.0000
  C   C5        1.0  0.3573457774532492  0.38492815242134854  0.611629106865922  1.0000
  C   C6        1.0  0.28122313191696485  0.3888433749060063  0.598667431592413  1.0000
  C   C7        1.0  0.2406603953956843  0.4465215789001222  0.6924260717468912  1.0000
  C   C8        1.0  0.1689952123650175  0.45015823172282327  0.6818801524966983  1.0000
  C   C9        1.0  0.1368981104730377  0.3957206756125599  0.5778622735698861  1.0000
  C   C10       1.0  0.06310365515294272  0.39941855609592203  0.567161040038782  1.0000
  N   N2        1.0  0.0037779182552342004  0.4023914579827981  0.5585579577419414  1.0000
  C   C11       1.0  0.1767361210754222  0.3373353757962769  0.4844871331990903  1.0000
  C   C12       1.0  0.24841771520571274  0.33364446162095285  0.4947812738207943  1.0000
  C   C13       1.0  0.38549988879660246  0.3444814281809232  0.7427472426911552  1.0000
  C   C14       1.0  0.44416108347820943  0.38761289876639426  0.7899789929658085  1.0000
  C   C15       1.0  0.48834334865865037  0.4854690113877733  0.7155732847908225  1.0000
  H   H1        1.0  0.495069237287275  0.3700928557851295  0.40891120290914196  1.0000
  H   H2        1.0  0.3723565790798797  0.43214810777659557  0.4113672713146968  1.0000
  H   H3        1.0  0.2645320588960236  0.48982648082479985  0.7732661664862327  1.0000
  H   H4        1.0  0.1386503966222192  0.49548597803982825  0.7547915014192268  1.0000
  H   H5        1.0  0.15239257716927831  0.29422619063055433  0.40398148185926486  1.0000
  H   H6        1.0  0.2780973815755419  0.2860732414420817  0.4225670581947106  1.0000
  H   H7        1.0  0.35455258987391675  0.28026775687610306  0.8070204499955731  1.0000
  H   H8        1.0  0.4593275778997363  0.35355585547962187  0.8879322659856556  1.0000
  H   H9        1.0  0.45821578271721375  0.5761870722922566  0.690289237753172  1.0000
  H   H10       1.0  0.5316308164907667  0.5110652905653625  0.7786545707959268  1.0000
  C   C16       1.0  0.8256216571207877  0.02428441506433331  0.5601796714284132  1.0000
  C   C17       1.0  0.8243618241697399  0.012545641225947042  0.69701057152509  1.0000
  C   C18       1.0  0.8236632030684115  0.8894602588224143  0.7661235255153486  1.0000
  C   C19       1.0  0.8242291978932051  0.7772926356841784  0.6966482506430427  1.0000
  C   C20       1.0  0.8254919947691611  0.7870759751604133  0.5599037310764083  1.0000
  C   C21       1.0  0.826182736356008  0.9110326273701121  0.49246855016379154  1.0000
  C   C22       1.0  0.8223244411421355  0.878023800659619  0.9107850243187512  1.0000
  C   C23       1.0  0.7800355009014086  0.7859460553038399  0.9791619904823821  1.0000
  C   C24       1.0  0.7787529404948146  0.7752661900317269  0.11528850526161484  1.0000
  C   C25       1.0  0.8201872503421566  0.8554982809285631  0.18549517749162625  1.0000
  C   C26       1.0  0.8618181990289924  0.9485420192185398  0.11776628561650582  1.0000
  C   C27       1.0  0.8631167249391831  0.9593973863709966  0.9816393496943194  1.0000
  C   C28       1.0  0.8173628607025473  0.8464030043444862  0.33161525430819977  1.0000
  O   O1        1.0  0.7659583073832974  0.9305408231775519  0.3722850919837241  1.0000
  H   H11       1.0  0.827552807328498  0.2537429949623411  0.3019086413097923  1.0000
  H   H12       1.0  0.8229674964902992  0.0993597803644812  0.7500344798954398  1.0000
  H   H13       1.0  0.8246243484431239  0.6821776746525149  0.7494822429627467  1.0000
  H   H14       1.0  0.827154823167486  0.9192950543850258  0.38699342664259984  1.0000
  H   H15       1.0  0.8259314175799977  0.46336437820057363  0.5073073768864365  1.0000
  H   H16       1.0  0.7471402917231745  0.7235307945332629  0.9273224084553817  1.0000
  H   H17       1.0  0.7452979255804155  0.7045689404567491  0.165945104463902  1.0000
  H   H18       1.0  0.8934465423603657  0.012533872020182416  0.1703626331185052  1.0000
  H   H19       1.0  0.896594826184209  0.030539867782924043  0.9317892596152021  1.0000
  H   H20       1.0  0.86795677956352  0.8733083772249092  0.37136851670983806  1.0000
  H   H21       1.0  0.8061875041128163  0.7445988099268115  0.3695232057939377  1.0000
  H   H22       1.0  0.7662180507998915  0.9208857852118068  0.4689164855261475  1.0000
  C   C29       1.0  0.8255370783369537  0.40555862860028613  0.1786444155139893  1.0000
  C   C30       1.0  0.8945109808248055  0.3633892706802604  0.18030034772424086  1.0000
  C   C31       1.0  0.9294605537230624  0.3421404174818983  0.06396852265382492  1.0000
  C   C32       1.0  0.8945515416505214  0.3636441582840215  0.9449992419689472  1.0000
  C   C33       1.0  0.8255765694111497  0.4058018302050643  0.9414389736580486  1.0000
  C   C34       1.0  0.7915098244617195  0.42648467288309644  0.05875537398119057  1.0000
  C   C35       1.0  0.002382391538341636  0.2975695384023336  0.06665367100333454  1.0000
  C   C36       1.0  0.04986439223492201  0.35129683442863263  0.974698386756891  1.0000
  C   C37       1.0  0.11849360055528015  0.30945179095779674  0.9772469205783025  1.0000
  C   C38       1.0  0.1408899327435678  0.21163401219224595  0.0705680608304835  1.0000
  C   C39       1.0  0.09380575162693972  0.15971855452814165  0.16409671199263956  1.0000
  C   C40       1.0  0.025181014846065608  0.2015965729735956  0.16165905006125403  1.0000
  C   C41       1.0  0.21546740214458884  0.1699659596742671  0.0762477165491189  1.0000
  F   F1        1.0  0.25072652418339714  0.24863523347448743  0.15541117051241196  1.0000
  F   F2        1.0  0.24475666070030513  0.18059871877857356  0.9531435401704044  1.0000
  F   F3        1.0  0.2218587784227437  0.0417164849585665  0.12612733630894768  1.0000
  H   H23       1.0  0.6953330091190756  0.4860592035211606  0.3827758646752545  1.0000
  H   H24       1.0  0.9214479537107328  0.3487307670377182  0.272161094800381  1.0000
  H   H25       1.0  0.9209689745349302  0.3457730199042087  0.8551557856220824  1.0000
  H   H26       1.0  0.7383500504401941  0.45898018539306285  0.05674599390400515  1.0000
  H   H27       1.0  0.6951129820750982  0.4847235392559761  0.7274439045935184  1.0000
  H   H28       1.0  0.03417829430316833  0.4273570445278503  0.9020716727295408  1.0000
  H   H29       1.0  0.1541440256810951  0.3540228307086805  0.9064495451944778  1.0000
  H   H30       1.0  0.11004123314880654  0.08653995778245681  0.2391606975615686  1.0000
  H   H31       1.0  0.9897781535864189  0.15797506091861813  0.2334737027906442  1.0000
  Zn  Zn1       1.0  0.7501925696580513  0.40707456694942334  0.5606686021011043  1.0000
  Zn  Zn2       1.0  0.9009144961384425  0.40428536815693783  0.559414235555698  1.0000
  C   C42       1.0  0.8255684516755748  0.4005817604404414  0.7972563456271897  1.0000
  C   C43       1.0  0.8255402597277061  0.41077978300516116  0.32282660521502893  1.0000
  C   C44       1.0  0.8255126949567035  0.6428905875609173  0.5547803441931285  1.0000
  C   C45       1.0  0.8255959652845538  0.16846939642550351  0.5653026768854305  1.0000
  O   O2        1.0  0.8827395140000626  0.41146789749850293  0.37073944168239525  1.0000
  O   O3        1.0  0.8827636522810461  0.39777572867767497  0.748391100456565  1.0000
  O   O4        1.0  0.8827178570364392  0.593443185690264  0.5525900196691941  1.0000
  O   O5        1.0  0.8827852578068639  0.2158004506976312  0.5665404255125261  1.0000
  O   O6        1.0  0.7683217565556328  0.5955594853619584  0.5535424125654979  1.0000
  O   O7        1.0  0.7683675515282661  0.3998935887617789  0.74934342353775  1.0000
  O   O8        1.0  0.7683434132198712  0.4135857118241957  0.3716902032627774  1.0000
  O   O9        1.0  0.768389157030481  0.21791825576483442  0.5674912844713705  1.0000
