data_image0
_chemical_formula_structural       NC9NC3NH7C7NC2NH8C6NCOCH7Zn2C4O8
_chemical_formula_sum              "N6 C33 H22 O9 Zn2"
_cell_length_a       16.053384444249904
_cell_length_b       9.273995741505848
_cell_length_c       10.300272075376752
_cell_angle_alpha    85.68415599440686
_cell_angle_beta     89.79678474651607
_cell_angle_gamma    89.75855226915094

_space_group_name_H-M_alt    "P 1"
_space_group_IT_number       1

loop_
  _space_group_symop_operation_xyz
  'x, y, z'

loop_
  _atom_site_type_symbol
  _atom_site_label
  _atom_site_symmetry_multiplicity
  _atom_site_fract_x
  _atom_site_fract_y
  _atom_site_fract_z
  _atom_site_occupancy
  N   N1        1.0  0.7936516644599692  0.5593224526295733  0.5680950296934268  1.0000
  C   C1        1.0  0.7427660047877206  0.5362433026633504  0.49320107902261245  1.0000
  C   C2        1.0  0.6795290669465637  0.5075672009043315  0.40016452118989504  1.0000
  C   C3        1.0  0.6930766789117593  0.4942066297844356  0.2694107674876387  1.0000
  C   C4        1.0  0.6162908436765442  0.4661060835484778  0.21709807740380183  1.0000
  C   C5        1.0  0.5591754118438897  0.4638867197892926  0.31875758851581093  1.0000
  C   C6        1.0  0.468368197573506  0.43744221019020624  0.30845246272909743  1.0000
  C   C7        1.0  0.4127444770780787  0.48483000668421966  0.4024586139257283  1.0000
  C   C8        1.0  0.3270491525014115  0.4597498908927808  0.39258880613651037  1.0000
  C   C9        1.0  0.2706565854252824  0.5090740745977989  0.4889710209082088  1.0000
  N   N2        1.0  0.2253335845886369  0.5487237633396674  0.5664472294628962  1.0000
  C   C10       1.0  0.2962507865362427  0.38715763999883346  0.28872627863380407  1.0000
  C   C11       1.0  0.3508667210336106  0.33990256895681836  0.194932077717056  1.0000
  C   C12       1.0  0.4363550259582616  0.3647988316985975  0.20440492001038324  1.0000
  N   N3        1.0  0.5985061192119198  0.48935036501921547  0.430361512687103  1.0000
  H   H1        1.0  0.7518711493285462  0.5038133151870785  0.21781987419614346  1.0000
  H   H2        1.0  0.6039477010785659  0.45085174584874815  0.11589581098703317  1.0000
  H   H3        1.0  0.43539904841493743  0.5430438309477164  0.48238136666453957  1.0000
  H   H4        1.0  0.2301118289208867  0.36721278278450686  0.28024979649055215  1.0000
  H   H5        1.0  0.3269325476197316  0.28351164299853804  0.11477956049753057  1.0000
  H   H6        1.0  0.4772480254146159  0.32547334325577415  0.1310744856215349  1.0000
  H   H7        1.0  0.5723510611410888  0.491944371464158  0.5231199461912264  1.0000
  C   C13       1.0  0.007005473258779869  0.13059555715054239  0.566331959901029  1.0000
  C   C14       1.0  0.02163432082746475  0.21351588685019582  0.44883590022507835  1.0000
  C   C15       1.0  0.04371641434979435  0.1479007727504724  0.33618224193387003  1.0000
  C   C16       1.0  0.05209074577215489  0.9972484826703055  0.33780565413697916  1.0000
  C   C17       1.0  0.035712823907133595  0.9130938958498476  0.4542326175205711  1.0000
  C   C18       1.0  0.011987663845168365  0.9774393523815255  0.5682214293144994  1.0000
  C   C19       1.0  0.07650929929319061  0.9296960597997436  0.2170359549803527  1.0000
  N   N4        1.0  0.07954742356314237  0.003949485630839744  0.09902258629032823  1.0000
  C   C20       1.0  0.10453498643038728  0.9054785923535628  0.01725347238370878  1.0000
  C   C21       1.0  0.11641813375094245  0.7742469956828876  0.08614773920027385  1.0000
  N   N5        1.0  0.09882860118853132  0.789631443006331  0.2117751003299062  1.0000
  H   H8        1.0  0.9394495407363499  0.3967870502387435  0.7534879995809658  1.0000
  H   H9        1.0  0.0180100783458641  0.3304502903827635  0.4446613331311635  1.0000
  H   H10       1.0  0.05547537483339405  0.21584450251238235  0.24792027531935143  1.0000
  H   H11       1.0  0.03853332356599437  0.7964618817529865  0.4560214941287937  1.0000
  H   H12       1.0  0.013070549161508406  0.6793024540877342  0.7841721595693553  1.0000
  H   H13       1.0  0.11375406194649296  0.9283120144646356  0.91368203894001  1.0000
  H   H14       1.0  0.13687710548348853  0.6746473772554664  0.04757284934521544  1.0000
  H   H15       1.0  0.10335314579717458  0.7089516544286013  0.28766650540754957  1.0000
  C   C22       1.0  0.009504262500329886  0.5541637436607472  0.1859242768489635  1.0000
  C   C23       1.0  0.9244564729683624  0.5903664372316639  0.18288673022753166  1.0000
  C   C24       1.0  0.8818635851604066  0.6105508220430145  0.0639449029134227  1.0000
  C   C25       1.0  0.9244629581877725  0.5900374870209182  0.947752005656902  1.0000
  C   C26       1.0  0.009488898361586617  0.553871168599015  0.948629169443294  1.0000
  C   C27       1.0  0.05163461414865637  0.536660894840707  0.06822208594141865  1.0000
  N   N6        1.0  0.7944836785522512  0.6454004390964739  0.059370487063361115  1.0000
  C   C28       1.0  0.7536624108392749  0.7361754354809613  0.14718053248433538  1.0000
  O   O1        1.0  0.7954613463942927  0.8122807560182242  0.21945756632673216  1.0000
  C   C29       1.0  0.6608721473894237  0.7490605102073373  0.14644620284601495  1.0000
  H   H16       1.0  0.8909768631728654  0.6000441029331256  0.273177623000326  1.0000
  H   H17       1.0  0.8909455153993745  0.6036720406924512  0.8565395657509236  1.0000
  H   H18       1.0  0.11723468346924903  0.5087777708567309  0.06975332186557814  1.0000
  H   H19       1.0  0.759470303866439  0.6102960874391921  0.9824663138882778  1.0000
  H   H20       1.0  0.6325791969263483  0.6419828087424961  0.13393558392239635  1.0000
  H   H21       1.0  0.6382760143987809  0.7881358603926797  0.23966434743003553  1.0000
  H   H22       1.0  0.6413124656433924  0.8266140941294594  0.06483208618861247  1.0000
  Zn  Zn1       1.0  0.9182257167215706  0.5562600514753197  0.5676269940754113  1.0000
  Zn  Zn2       1.0  0.10075943954117483  0.5517744131827618  0.5669258526595147  1.0000
  C   C30       1.0  0.009456127878842311  0.5481823095860828  0.8044487779356759  1.0000
  C   C31       1.0  0.009531032347481322  0.559853925371733  0.33010419266307856  1.0000
  C   C32       1.0  0.011041739659093613  0.8173699814593112  0.562689368551643  1.0000
  C   C33       1.0  0.007945348087830872  0.2906645226249806  0.5718636676566831  1.0000
  O   O2        1.0  0.07881057607127763  0.5600550354024509  0.3782261959611257  1.0000
  O   O3        1.0  0.07871544984021028  0.5445756162559467  0.7557942482693423  1.0000
  O   O4        1.0  0.07999491757754075  0.7619480880659316  0.560571821635953  1.0000
  O   O5        1.0  0.07753104611020123  0.34268257547523245  0.5734485254863226  1.0000
  O   O6        1.0  0.9414540478627524  0.7653518907151493  0.5611043214810412  1.0000
  O   O7        1.0  0.9401745903150293  0.547981151310989  0.7563266827372965  1.0000
  O   O8        1.0  0.9402697163373842  0.5634605208080259  0.37875706898355865  1.0000
  O   O9        1.0  0.9389901863102617  0.34608805053034164  0.573979495849386  1.0000
