data_image0
_chemical_formula_structural       NC9NC5H8C12ClH9C12BrH9Zn2C4O8
_chemical_formula_sum              "N2 C42 H26 Cl1 Br1 Zn2 O8"
_cell_length_a       17.807436237873137
_cell_length_b       10.299768534541528
_cell_length_c       10.299148005577397
_cell_angle_alpha    85.55407396339785
_cell_angle_beta     89.3653557848841
_cell_angle_gamma    88.408414792471

_space_group_name_H-M_alt    "P 1"
_space_group_IT_number       1

loop_
  _space_group_symop_operation_xyz
  'x, y, z'

loop_
  _atom_site_type_symbol
  _atom_site_label
  _atom_site_symmetry_multiplicity
  _atom_site_fract_x
  _atom_site_fract_y
  _atom_site_fract_z
  _atom_site_occupancy
  N   N1        1.0  0.7080571550879112  0.38791582655228485  0.5570740296390355  1.0000
  C   C1        1.0  0.6474660613521218  0.3527282271578068  0.5460488616320621  1.0000
  C   C2        1.0  0.5720974002744882  0.30895872857444795  0.5323347497323767  1.0000
  C   C3        1.0  0.5540209935045931  0.23755873681208928  0.4273247526486901  1.0000
  C   C4        1.0  0.48084191429366946  0.19495044326879357  0.41392659885839334  1.0000
  C   C5        1.0  0.4246904620176281  0.22336462348619013  0.505505981881232  1.0000
  C   C6        1.0  0.3469199642949811  0.17819788472623418  0.49134929516104703  1.0000
  C   C7        1.0  0.2847518037072901  0.25994906765555137  0.5172911308541497  1.0000
  C   C8        1.0  0.2114303782707881  0.21713773823769175  0.5039066552861307  1.0000
  C   C9        1.0  0.1482125295130104  0.3015801728732354  0.530212462747839  1.0000
  N   N2        1.0  0.0973983665158588  0.3694660481132188  0.5513616053136223  1.0000
  C   C10       1.0  0.1996935275126051  0.09231725431301772  0.4645549882040097  1.0000
  C   C11       1.0  0.26100431796532186  0.010552220451112149  0.4386047620944094  1.0000
  C   C12       1.0  0.3342062926981437  0.05296904295069904  0.45178668084243356  1.0000
  C   C13       1.0  0.44345830601356034  0.29525894337217706  0.6107352297701163  1.0000
  C   C14       1.0  0.5166902631221256  0.3376768665236347  0.6239777206630555  1.0000
  H   H1        1.0  0.5964310435393543  0.21508328493425188  0.3556075824502381  1.0000
  H   H2        1.0  0.46794171833443954  0.1412800167472658  0.3310005399138253  1.0000
  H   H3        1.0  0.2932595842765983  0.3574082603341259  0.5461715269847937  1.0000
  H   H4        1.0  0.1432250378424575  0.05828326012349971  0.45395890437678443  1.0000
  H   H5        1.0  0.2517986680269401  0.913913267066644  0.408523902249419  1.0000
  H   H6        1.0  0.38084005210024396  0.9872277948421384  0.432736040025713  1.0000
  H   H7        1.0  0.4017646878363996  0.31719518830528387  0.6837469610738494  1.0000
  H   H8        1.0  0.5301193155002879  0.39256798989901664  0.7058621164493286  1.0000
  C   C15       1.0  0.9026604934623544  0.9973287455021462  0.5542167041642072  1.0000
  C   C16       1.0  0.9076451289901282  0.006678056852502889  0.41766806674503876  1.0000
  C   C17       1.0  0.9102431049973844  0.8942726366119347  0.3484841157826002  1.0000
  C   C18       1.0  0.9077886088318593  0.7713835380575925  0.41768145232136633  1.0000
  C   C19       1.0  0.902802205994978  0.7600427814263757  0.5542300536176712  1.0000
  C   C20       1.0  0.9002666256959609  0.8735712609103883  0.6217329983249628  1.0000
  C   C21       1.0  0.9155174327296468  0.9052170490982799  0.20402702598834055  1.0000
  C   C22       1.0  0.87279829568459  0.000792278491628772  0.13018640617771537  1.0000
  C   C23       1.0  0.8778295775662409  0.01089450352685993  0.9942262910592505  1.0000
  C   C24       1.0  0.9255079026753277  0.9259472959912662  0.9304159141468952  1.0000
  C   C25       1.0  0.9682151347843948  0.8306850946556082  0.0027454152768833203  1.0000
  C   C26       1.0  0.963317261271573  0.820184294416986  0.13871821700642673  1.0000
  Cl  Cl1       1.0  0.9317366871680446  0.9388720494326613  0.7598313119711203  1.0000
  H   H9        1.0  0.9007225559946622  0.3212217750007719  0.6062457690714972  1.0000
  H   H10       1.0  0.9105557199043832  0.10156015967294828  0.3648902318568754  1.0000
  H   H11       1.0  0.9087387033224643  0.6845124186427061  0.3647188161244077  1.0000
  H   H12       1.0  0.896420448001096  0.8655905449164647  0.7270739975373277  1.0000
  H   H13       1.0  0.9009320638860917  0.42826625832080195  0.6062659251942156  1.0000
  H   H14       1.0  0.8348011614821841  0.06656198371255373  0.17748961677299158  1.0000
  H   H15       1.0  0.8444892458806698  0.08459647329638996  0.9386009944307938  1.0000
  H   H16       1.0  0.005374896088532256  0.7649087003970505  0.953764931166587  1.0000
  H   H17       1.0  0.9976113053040117  0.7467306570798486  0.192835143665014  1.0000
  C   C27       1.0  0.902833754482356  0.37873297247204313  0.1728337058979235  1.0000
  C   C28       1.0  0.8321804934781211  0.44286033036290484  0.16843452188586205  1.0000
  C   C29       1.0  0.7962519890417994  0.4753260198762461  0.04906732675733139  1.0000
  C   C30       1.0  0.8319297467676167  0.44279940812888546  0.9331611644296212  1.0000
  C   C31       1.0  0.9026289242550661  0.3786386078438003  0.9356130624586682  1.0000
  C   C32       1.0  0.9376454437983921  0.34699850220406425  0.05587948074402506  1.0000
  C   C33       1.0  0.7215099032428219  0.5431669316923282  0.04545842938470824  1.0000
  C   C34       1.0  0.7057482798350081  0.6452307383853586  0.12576974798978968  1.0000
  C   C35       1.0  0.6353670690697734  0.7089743506301798  0.12217872680123087  1.0000
  C   C36       1.0  0.5799475494346471  0.6716571494550767  0.038626379778653026  1.0000
  C   C37       1.0  0.5949547713671115  0.5704159505793707  0.9584736802859721  1.0000
  C   C38       1.0  0.6652720703250309  0.5064534033669591  0.9616730962210815  1.0000
  Br  Br1       1.0  0.48385106305418857  0.7588808445298583  0.03398773571681901  1.0000
  H   H18       1.0  0.9300253938645163  0.35411878444469197  0.50199708573303  1.0000
  H   H19       1.0  0.8044627676111579  0.46611984609186474  0.2581811494293993  1.0000
  H   H20       1.0  0.804954283283797  0.469172444548644  0.8407409797075751  1.0000
  H   H21       1.0  0.9921431556331968  0.2975393573889073  0.05855662345186463  1.0000
  H   H22       1.0  0.03627981936135338  0.2582637474029468  0.7328889296667018  1.0000
  H   H23       1.0  0.7481441273677185  0.6768385484086323  0.19005598132915316  1.0000
  H   H24       1.0  0.6240367348711309  0.7875769365023102  0.18415104993565182  1.0000
  H   H25       1.0  0.5521149101014372  0.5409811491238744  0.8938870040746891  1.0000
  H   H26       1.0  0.6753451858727055  0.427221107999906  0.8999202989461841  1.0000
  Zn  Zn1       1.0  0.8204126146193397  0.38258815287906145  0.555433058514639  1.0000
  Zn  Zn2       1.0  0.9850428839534932  0.3747831344824568  0.5530132534458294  1.0000
  C   C39       1.0  0.9026650137870926  0.37348293143681166  0.7914313929982838  1.0000
  C   C40       1.0  0.902792282813368  0.38388990926838423  0.31701502004016313  1.0000
  C   C41       1.0  0.9027729357922609  0.6158744524791464  0.549052170433254  1.0000
  C   C42       1.0  0.9026843043229195  0.1414968306063724  0.5593943126459036  1.0000
  O   O1        1.0  0.9652546927242389  0.3826529949219656  0.36448528266667246  1.0000
  O   O2        1.0  0.9651531689340828  0.3687950377574771  0.7421241804314135  1.0000
  O   O3        1.0  0.9652394747446981  0.56452929621994  0.5464012557400036  1.0000
  O   O4        1.0  0.9651683307643383  0.1869187484249296  0.5602081108039874  1.0000
  O   O5        1.0  0.8402871116282657  0.5704525416014729  0.5482382019754107  1.0000
  O   O6        1.0  0.8402008061227018  0.3747198434235712  0.7439610574450388  1.0000
  O   O7        1.0  0.840302330373697  0.3885777555237353  0.36632059819300067  1.0000
  O   O8        1.0  0.8402159683828526  0.19284349972615708  0.5620435237033401  1.0000
