data_image0
_chemical_formula_structural       NC8NC6H8C6NCOC6H10C7OC3FC3H8Zn2C4O8
_chemical_formula_sum              "N3 C44 H26 O10 F1 Zn2"
_cell_length_a       17.457602349358154
_cell_length_b       10.29965916528486
_cell_length_c       10.29938172300155
_cell_angle_alpha    85.59399439143573
_cell_angle_beta     92.85910674266745
_cell_angle_gamma    91.70433465767697

_space_group_name_H-M_alt    "P 1"
_space_group_IT_number       1

loop_
  _space_group_symop_operation_xyz
  'x, y, z'

loop_
  _atom_site_type_symbol
  _atom_site_label
  _atom_site_symmetry_multiplicity
  _atom_site_fract_x
  _atom_site_fract_y
  _atom_site_fract_z
  _atom_site_occupancy
  N   N1        1.0  0.7229144743233602  0.4524525526639558  0.6270100956528317  1.0000
  C   C1        1.0  0.6618302150825217  0.40652553031992644  0.6163792959214232  1.0000
  C   C2        1.0  0.5858388129492669  0.3493980312305962  0.6031641247598678  1.0000
  C   C3        1.0  0.5273046091301898  0.3895782399120853  0.6780739380603604  1.0000
  C   C4        1.0  0.4527515604137337  0.33456911874276263  0.6654738983052033  1.0000
  C   C5        1.0  0.3906261084960998  0.3769935623496518  0.7448061891955391  1.0000
  C   C6        1.0  0.3160921513854866  0.3954473430969676  0.6890497016360442  1.0000
  C   C7        1.0  0.2575578939156475  0.43544365754177067  0.7640674058373453  1.0000
  C   C8        1.0  0.18158626369117112  0.4545027129852713  0.7060956938470957  1.0000
  N   N2        1.0  0.12051798834397102  0.46981981402953377  0.6594865863345272  1.0000
  C   C9        1.0  0.2730653877765063  0.4572294579113032  0.8953501877803636  1.0000
  C   C10       1.0  0.34681464406709483  0.4391647552444425  0.951494396386361  1.0000
  C   C11       1.0  0.40533725098071144  0.3993486085714728  0.8769344659487514  1.0000
  C   C12       1.0  0.43802148409842556  0.23870201653279  0.5765309235895784  1.0000
  C   C13       1.0  0.4965439513500722  0.19880058459221076  0.5020211997217994  1.0000
  C   C14       1.0  0.5703121611871723  0.2539222197340463  0.5151712177875416  1.0000
  H   H1        1.0  0.5396506702022676  0.4647881219889883  0.7447285455393908  1.0000
  H   H2        1.0  0.3037617734938551  0.38045128246627985  0.5870218831140681  1.0000
  H   H3        1.0  0.228199918526954  0.4881266581089698  0.9541953349966462  1.0000
  H   H4        1.0  0.35863164964321165  0.455718350133246  0.053149477425238116  1.0000
  H   H5        1.0  0.46181240842561905  0.38436888033152755  0.92303520467193  1.0000
  H   H6        1.0  0.38153061329802707  0.19336464145843157  0.5658642032915113  1.0000
  H   H7        1.0  0.4847121004125125  0.12470683571918742  0.43416866079368166  1.0000
  H   H8        1.0  0.6151774339864998  0.22215546941082276  0.4568368986520803  1.0000
  C   C15       1.0  0.9216524336817526  0.07977266383217185  0.6431276539946573  1.0000
  C   C16       1.0  0.9221971534299767  0.0890420279850812  0.5063585922719887  1.0000
  C   C17       1.0  0.9236028626611835  0.9769250703183541  0.4376390428618828  1.0000
  C   C18       1.0  0.9223416540426768  0.8538581235657476  0.5066667741876456  1.0000
  C   C19       1.0  0.9217873446845634  0.8424899681246183  0.643380829988274  1.0000
  C   C20       1.0  0.9217158303351014  0.9560668278726577  0.710861652055016  1.0000
  N   N3        1.0  0.9229811941819406  0.9899344979337736  0.2975246295624663  1.0000
  C   C21       1.0  0.9589572926334098  0.9003564509036138  0.22073848927857734  1.0000
  O   O1        1.0  0.0118746976684978  0.8298613596448232  0.27203801734580724  1.0000
  C   C22       1.0  0.9366809579292534  0.8931510728742373  0.08055518951921803  1.0000
  C   C23       1.0  0.8657470803683622  0.9398980266428626  0.028416330964007527  1.0000
  C   C24       1.0  0.8452110776377953  0.9319539510766873  0.8962186505099742  1.0000
  C   C25       1.0  0.8948945421544352  0.8770150727836148  0.8148217446668992  1.0000
  C   C26       1.0  0.9651532873979325  0.8294507529605437  0.8655292635977903  1.0000
  C   C27       1.0  0.9859821931850787  0.8370512629735094  0.9976463958534594  1.0000
  H   H9        1.0  0.9198926480384377  0.2695195364952958  0.9010581343132158  1.0000
  H   H10       1.0  0.9221180440131073  0.1836339819681174  0.4525301203671248  1.0000
  H   H11       1.0  0.9204453618860505  0.7669710638083983  0.45370751578539803  1.0000
  H   H12       1.0  0.921306171499763  0.9480562542302334  0.8162960026680812  1.0000
  H   H13       1.0  0.9010986427036131  0.07509975815997795  0.2497976696455524  1.0000
  H   H14       1.0  0.825533072422143  0.9808549394499023  0.08961278913025894  1.0000
  H   H15       1.0  0.7905407291659126  0.9679903083874956  0.8569680451153565  1.0000
  H   H16       1.0  0.8788451777025791  0.8709307015599299  0.7125551974324567  1.0000
  H   H17       1.0  0.0035523629113620773  0.7866183353681006  0.802420874110355  1.0000
  H   H18       1.0  0.04084503910733783  0.7998366219852757  0.034694057526016404  1.0000
  C   C28       1.0  0.9217844638238892  0.46103301623060444  0.2618918288232819  1.0000
  C   C29       1.0  0.946040040670988  0.33164111222096326  0.272692859590697  1.0000
  C   C30       1.0  0.959107448852565  0.26687204433857664  0.16100006059626826  1.0000
  C   C31       1.0  0.9459667141756192  0.33193103651937106  0.037420913295385765  1.0000
  C   C32       1.0  0.9216553001584313  0.4612296152950331  0.02461669843254777  1.0000
  C   C33       1.0  0.9098982524964874  0.5251448096755287  0.13746892848764847  1.0000
  C   C34       1.0  0.983943081776539  0.12979167989959128  0.1722300737002036  1.0000
  O   O2        1.0  0.9603002501858597  0.0555165932750068  0.08609439950752762  1.0000
  C   C35       1.0  0.035605559599459116  0.0769764813665732  0.28107762418889015  1.0000
  C   C36       1.0  0.029401777757916744  0.9447477711635897  0.325802144310124  1.0000
  C   C37       1.0  0.0784510314739355  0.8936843604346582  0.4273480920878263  1.0000
  F   F1        1.0  0.07163476552830632  0.7663224559070213  0.47041978883951124  1.0000
  C   C38       1.0  0.13449729493477453  0.9737541954263087  0.4844185553212217  1.0000
  C   C39       1.0  0.14180570231295087  0.1048257359529494  0.4397188205018996  1.0000
  C   C40       1.0  0.0929086573129474  0.15630755572440913  0.33825641182791233  1.0000
  H   H19       1.0  0.8748841176386821  0.7045487938579953  0.44878433952925545  1.0000
  H   H20       1.0  0.9539793646689505  0.28059864474511165  0.3681306209317907  1.0000
  H   H21       1.0  0.9554669420885209  0.28179771526811126  0.9511550409111305  1.0000
  H   H22       1.0  0.8911986500449094  0.6248960090202962  0.12833805373752338  1.0000
  H   H23       1.0  0.9861715743090804  0.8813446745003147  0.2828785966705394  1.0000
  H   H24       1.0  0.1724914604529069  0.9342063176440194  0.5629255407192473  1.0000
  H   H25       1.0  0.1856375978463196  0.16650741814287273  0.4833298837540678  1.0000
  H   H26       1.0  0.10046947914795124  0.25759433505060136  0.30364531677722306  1.0000
  Zn  Zn1       1.0  0.837654257907746  0.457460888419174  0.6363896065175441  1.0000
  Zn  Zn2       1.0  0.005778186825944773  0.4648008333421765  0.6501177042816264  1.0000
  C   C41       1.0  0.9216771085443083  0.4560188007418533  0.880443492965015  1.0000
  C   C42       1.0  0.921757172365742  0.46624463980133896  0.4060640957528048  1.0000
  C   C43       1.0  0.9217587807475012  0.6983186841293538  0.6381575876899621  1.0000
  C   C44       1.0  0.9216754425058697  0.22394319364599194  0.6483500650629013  1.0000
  O   O3        1.0  0.9855501669400692  0.4707735134629141  0.45965936524032563  1.0000
  O   O4        1.0  0.9854862857859698  0.45705979563668825  0.837267157868965  1.0000
  O   O5        1.0  0.9855513768107395  0.6527199785710017  0.6416195053638296  1.0000
  O   O6        1.0  0.9854850185641207  0.2751133372889656  0.6553069156910638  1.0000
  O   O7        1.0  0.8579473687971255  0.6471483819690342  0.63120039041655  1.0000
  O   O8        1.0  0.8578822780565907  0.45148975929921487  0.8268479741950854  1.0000
  O   O9        1.0  0.857946159518067  0.4652034314697959  0.44923862018147265  1.0000
  O   O10       1.0  0.8578810111208528  0.269543246032131  0.6448862679950516  1.0000
