data_image0
_chemical_formula_structural       NC8NH4C10H6C6NCH8Zn2C4O8
_chemical_formula_sum              "N3 C29 H18 Zn2 O8"
_cell_length_a       14.927258825633057
_cell_length_b       9.275150299802176
_cell_length_c       9.274690524155615
_cell_angle_alpha    85.73181374548483
_cell_angle_beta     89.68735870548748
_cell_angle_gamma    89.48389196497259

_space_group_name_H-M_alt    "P 1"
_space_group_IT_number       1

loop_
  _space_group_symop_operation_xyz
  'x, y, z'

loop_
  _atom_site_type_symbol
  _atom_site_label
  _atom_site_symmetry_multiplicity
  _atom_site_fract_x
  _atom_site_fract_y
  _atom_site_fract_z
  _atom_site_occupancy
  N   N1        1.0  0.8402287277770426  0.5651129852942367  0.4013129439875696  1.0000
  C   C1        1.0  0.76270230354391  0.5651129589146764  0.40131295378842746  1.0000
  C   C2        1.0  0.6662696616103505  0.5651129591054833  0.40131300886385  1.0000
  C   C3        1.0  0.6200187575239733  0.4759744514612703  0.3120876985702312  1.0000
  C   C4        1.0  0.5263074465672087  0.47597436133987414  0.31208767061930653  1.0000
  C   C5        1.0  0.47845366420757135  0.5651130114066252  0.40131292075735303  1.0000
  C   C6        1.0  0.5247045686117071  0.6542515284272017  0.49053812293784826  1.0000
  C   C7        1.0  0.6184159465600039  0.6542516185456819  0.4905381508947133  1.0000
  C   C8        1.0  0.3820210231976762  0.5651129132623038  0.40131286638080943  1.0000
  N   N2        1.0  0.30449459835863757  0.5651129945942348  0.4013128775205099  1.0000
  H   H1        1.0  0.6563384324507773  0.4066194661198439  0.2426654197520093  1.0000
  H   H2        1.0  0.4912347763657045  0.406619443283359  0.24266551710342268  1.0000
  H   H3        1.0  0.48838489368490307  0.7236065137686278  0.5599604017560695  1.0000
  H   H4        1.0  0.6534885494522175  0.7236065272287495  0.5599604125177804  1.0000
  C   C9        1.0  0.07472136568807741  0.14142847667922265  0.40372574171107223  1.0000
  C   C10       1.0  0.12220726830737938  0.22252959606449638  0.2946879690948683  1.0000
  C   C11       1.0  0.16202944027578223  0.15538076829656466  0.18010903985679644  1.0000
  C   C12       1.0  0.15477087312364013  0.0061520591539412335  0.1730920544659591  1.0000
  C   C13       1.0  0.10924299192954633  0.9236014498755338  0.28148208716122053  1.0000
  C   C14       1.0  0.07001054218957758  0.9887864346963754  0.39891264560348927  1.0000
  C   C15       1.0  0.20953479441437173  0.2402022825874215  0.06857822962465313  1.0000
  C   C16       1.0  0.2493087644958456  0.3112429127291054  0.9752036953243973  1.0000
  C   C17       1.0  0.29588223865695795  0.39443646786285  0.8658661879231526  1.0000
  C   C18       1.0  0.33564854016254775  0.4654717719584289  0.7725095528647987  1.0000
  H   H5        1.0  0.03145507160352734  0.4057482535719359  0.6325918433525828  1.0000
  H   H6        1.0  0.12650386599393304  0.3389973779542157  0.29691448071022775  1.0000
  H   H7        1.0  0.18510567961028812  0.9532336862070923  0.08443203701818702  1.0000
  H   H8        1.0  0.10652469712827028  0.8075471233950189  0.2752597118324227  1.0000
  H   H9        1.0  0.010622367762262988  0.8613020296720713  0.741345716648516  1.0000
  H   H10       1.0  0.3705666698588508  0.5278468011302446  0.6905347165168814  1.0000
  C   C19       1.0  0.07382091722692685  0.5614135290690632  0.9780928792151911  1.0000
  C   C20       1.0  0.14625689251412255  0.6238251597071789  0.046475740668140635  1.0000
  C   C21       1.0  0.21402527140429164  0.6971636810423691  0.9655613668321257  1.0000
  C   C22       1.0  0.20865850291536914  0.7078210247749106  0.8146043711978321  1.0000
  C   C23       1.0  0.13813897124566488  0.644549815224825  0.7450157069647414  1.0000
  C   C24       1.0  0.07091098509880678  0.5688014003744428  0.8245454618817356  1.0000
  N   N3        1.0  0.288212432856338  0.7626385796344344  0.03391124699637049  1.0000
  C   C25       1.0  0.3003984413483405  0.7575596861499279  0.19022164281231602  1.0000
  H   H11       1.0  0.9725343481949762  0.38749966203987074  0.2720795150585533  1.0000
  H   H12       1.0  0.2599450943612398  0.7642993131565802  0.7502250050596322  1.0000
  H   H13       1.0  0.1374184967924621  0.651993875285561  0.6279007088452566  1.0000
  H   H14       1.0  0.9297185527000823  0.5011148978028616  0.5494917562796564  1.0000
  H   H15       1.0  0.3366530080940382  0.8166077672498456  0.9689705452092815  1.0000
  H   H16       1.0  0.3627745535050797  0.8147273884641906  0.215575234597416  1.0000
  H   H17       1.0  0.30604624240524525  0.6434990674055168  0.23509417291051807  1.0000
  H   H18       1.0  0.24296175875185178  0.811648547105845  0.2411164301695368  1.0000
  Zn  Zn1       1.0  0.9742058308448512  0.5651091869710136  0.40132127805042894  1.0000
  Zn  Zn2       1.0  0.17051753354817945  0.5651050517331135  0.40131644540988565  1.0000
  C   C26       1.0  0.07149100573485347  0.5616572062635732  0.6645804798622155  1.0000
  C   C27       1.0  0.07323449176905328  0.5685588540662436  0.13805737466163273  1.0000
  C   C28       1.0  0.07091614324374906  0.8285676385696881  0.3940792429273158  1.0000
  C   C29       1.0  0.07380929664535874  0.30164668900281755  0.4085586982822431  1.0000
  O   O1        1.0  0.1475369851102235  0.5709490267112547  0.19174112241824148  1.0000
  O   O2        1.0  0.146184559879168  0.5592628030178484  0.6108926555479204  1.0000
  O   O3        1.0  0.14571934170990675  0.7747963657491082  0.39246098438532706  1.0000
  O   O4        1.0  0.14800213660571138  0.3554154733592738  0.41017268546177044  1.0000
  O   O5        1.0  0.9967211607957871  0.7747987653477688  0.39246503799260357  1.0000
  O   O6        1.0  0.9971863695883153  0.5592669353767362  0.6108966224635463  1.0000
  O   O7        1.0  0.9985388011153178  0.5709530936689708  0.1917433568461988  1.0000
  O   O8        1.0  0.999003952293047  0.3554195309406267  0.4101750280028522  1.0000
