data_image0
_chemical_formula_structural       NC8NH4C6NH5C10H6Zn2C4O8
_chemical_formula_sum              "N3 C28 H15 Zn2 O8"
_cell_length_a       14.927258825633057
_cell_length_b       9.274771166103582
_cell_length_c       9.275153671780863
_cell_angle_alpha    85.60840141486051
_cell_angle_beta     89.40940107803101
_cell_angle_gamma    90.59705077502286

_space_group_name_H-M_alt    "P 1"
_space_group_IT_number       1

loop_
  _space_group_symop_operation_xyz
  'x, y, z'

loop_
  _atom_site_type_symbol
  _atom_site_label
  _atom_site_symmetry_multiplicity
  _atom_site_fract_x
  _atom_site_fract_y
  _atom_site_fract_z
  _atom_site_occupancy
  N   N1        1.0  0.8639683532525935  0.5745806830248574  0.40661981275024806  1.0000
  C   C1        1.0  0.7864419286717499  0.574580656591407  0.4066198224540798  1.0000
  C   C2        1.0  0.6900092865721127  0.5745806564426608  0.4066198775545864  1.0000
  C   C3        1.0  0.6429574677574665  0.4860142221241947  0.3170126167213043  1.0000
  C   C4        1.0  0.5492461558006206  0.48601413219739603  0.3170125884117439  1.0000
  C   C5        1.0  0.5021932900686709  0.5745807092739851  0.4066197896100934  1.0000
  C   C6        1.0  0.5492451096445381  0.6631471536329456  0.4962269423184784  1.0000
  C   C7        1.0  0.6429564885928629  0.6631472435567927  0.49622697063397014  1.0000
  C   C8        1.0  0.4057606480428446  0.5745806114891439  0.4066197348324041  1.0000
  N   N2        1.0  0.3282342241494112  0.574580692732283  0.40661974628953423  1.0000
  H   H1        1.0  0.6786539833200379  0.41710434186759926  0.2472931580965061  1.0000
  H   H2        1.0  0.5135503266622731  0.4171043184366527  0.24729325540321614  1.0000
  H   H3        1.0  0.5135485940819666  0.732057033889541  0.5659464009432762  1.0000
  H   H4        1.0  0.6786522499785106  0.7320570472799934  0.5659464117614641  1.0000
  C   C9        1.0  0.09335023972973433  0.15098612576587422  0.4074057351554662  1.0000
  C   C10       1.0  0.0735594311265444  0.23396474207119897  0.27846120963880683  1.0000
  C   C11       1.0  0.062137964309582516  0.16858312604547332  0.14869858639243594  1.0000
  C   C12       1.0  0.07056027383777996  0.018843014325997217  0.1469406058498502  1.0000
  C   C13       1.0  0.08870583579203405  0.934540434941726  0.2741138106868748  1.0000
  C   C14       1.0  0.09886078915495045  0.9981641717145713  0.4058463782234478  1.0000
  N   N3        1.0  0.042906605625587124  0.254657611895887  0.018336885768321265  1.0000
  H   H5        1.0  0.19215393760175914  0.2314543799202433  0.7229726554614049  1.0000
  H   H6        1.0  0.062196604423003114  0.9671001738915703  0.047101359015384155  1.0000
  H   H7        1.0  0.1617644040624746  0.7016475438642403  0.62054361637799  1.0000
  H   H8        1.0  0.036734678905673945  0.3667313936700027  0.018290053126214015  1.0000
  H   H9        1.0  0.03461212670207093  0.2069380504267313  0.9208689398461263  1.0000
  C   C15       1.0  0.09880984554162553  0.5734910344330976  0.9831984129965169  1.0000
  C   C16       1.0  0.1231930180742933  0.7009721529015462  0.04670746378717494  1.0000
  C   C17       1.0  0.139214960689098  0.8298110142364067  0.9614779181499805  1.0000
  C   C18       1.0  0.1309573974135283  0.8327734762811954  0.8115319459930932  1.0000
  C   C19       1.0  0.1083157802952468  0.7069012763585096  0.7464015307363536  1.0000
  C   C20       1.0  0.09340119460382244  0.5756592036609296  0.8300536993734662  1.0000
  C   C21       1.0  0.16313976784628204  0.95966503193116  0.02834796251514305  1.0000
  C   C22       1.0  0.18317183137016535  0.0683809594450886  0.08435953765961826  1.0000
  C   C23       1.0  0.2066283864812024  0.1956825225093097  0.14995468289613045  1.0000
  C   C24       1.0  0.22665658042290393  0.3043776641040136  0.2059636451923197  1.0000
  H   H10       1.0  0.10136784754492886  0.3345759210853678  0.2821746364176907  1.0000
  H   H11       1.0  0.12771231845666864  0.7010451854495874  0.16332272136966425  1.0000
  H   H12       1.0  0.14289848607101652  0.9322240411525275  0.7446422145106224  1.0000
  H   H13       1.0  0.10453580751926171  0.7114177033225508  0.629561540889036  1.0000
  H   H14       1.0  0.10232306462572427  0.22090823404507032  0.7542078618059438  1.0000
  H   H15       1.0  0.24424297145587223  0.3998209103785797  0.25514441537150456  1.0000
  Zn  Zn1       1.0  0.9979453850899426  0.5745768342669959  0.4066281359034196  1.0000
  Zn  Zn2       1.0  0.19425705275769561  0.5745727298424721  0.4066232852371858  1.0000
  C   C25       1.0  0.09438414702735343  0.5695028759730802  0.6699904701152759  1.0000
  C   C26       1.0  0.0978204454723659  0.5796485085034588  0.143261089146125  1.0000
  C   C27       1.0  0.09785125397321147  0.8380147457023408  0.40039519711688865  1.0000
  C   C28       1.0  0.094353259775243  0.31113490591122717  0.4128564422106982  1.0000
  O   O1        1.0  0.1719876076301987  0.5817071623837309  0.19697775623351843  1.0000
  O   O2        1.0  0.16921299385927568  0.5674400176682766  0.6162697084123797  1.0000
  O   O3        1.0  0.17201171270428928  0.7842667521303681  0.3985696152989276  1.0000
  O   O4        1.0  0.16918882255492718  0.3648804379650854  0.4146777412161413  1.0000
  O   O5        1.0  0.02301354830123192  0.7842691261473338  0.398573679918532  1.0000
  O   O6        1.0  0.020214841216003702  0.5674441245511641  0.6162736929598667  1.0000
  O   O7        1.0  0.02298946579164429  0.5817112145613526  0.19698000727604925  1.0000
  O   O8        1.0  0.02019067995515122  0.36488448010221264  0.41468010038356984  1.0000
