data_image0
_chemical_formula_structural       NC6NC3H6C6ClH5C6BrH3Zn2C4O8
_chemical_formula_sum              "N2 C25 H14 Cl1 Br1 Zn2 O8"
_cell_length_a       14.934028789175542
_cell_length_b       9.276545438789551
_cell_length_c       9.275428193871798
_cell_angle_alpha    86.19890630967393
_cell_angle_beta     89.91643143648338
_cell_angle_gamma    89.37211250715544

_space_group_name_H-M_alt    "P 1"
_space_group_IT_number       1

loop_
  _space_group_symop_operation_xyz
  'x, y, z'

loop_
  _atom_site_type_symbol
  _atom_site_label
  _atom_site_symmetry_multiplicity
  _atom_site_fract_x
  _atom_site_fract_y
  _atom_site_fract_z
  _atom_site_occupancy
  N   N1        1.0  0.8342167202566734  0.5603724311190486  0.41093517821896935  1.0000
  C   C1        1.0  0.7567381570504501  0.5592672185238656  0.4102559300193098  1.0000
  C   C2        1.0  0.660350953389561  0.5578872545098004  0.4094080148059356  1.0000
  C   C3        1.0  0.6118615730895626  0.6653586399280573  0.47533725030642987  1.0000
  C   C4        1.0  0.5183573413144458  0.6642506356401341  0.47465740678289414  1.0000
  C   C5        1.0  0.4724295697368956  0.5557260936794981  0.4080821737327691  1.0000
  C   C6        1.0  0.3757680539416346  0.5580546110301867  0.409511906667839  1.0000
  N   N2        1.0  0.2982754361553897  0.5599025865980976  0.41064690823862415  1.0000
  C   C7        1.0  0.5209234350645088  0.4467678592714661  0.34124026696218723  1.0000
  C   C8        1.0  0.4734051328384103  0.3287791365720436  0.26886038026243697  1.0000
  C   C9        1.0  0.615051088813348  0.44900647444111336  0.3426136165131013  1.0000
  H   H1        1.0  0.6463331837942965  0.7500361288654589  0.5272839614904428  1.0000
  H   H2        1.0  0.4817534172751876  0.7482759836114041  0.5262039133232472  1.0000
  H   H3        1.0  0.4304041157989648  0.37690422689411823  0.18031339846335756  1.0000
  H   H4        1.0  0.4310059734404507  0.2667901326398998  0.34890904931080957  1.0000
  H   H5        1.0  0.5213808159063957  0.2523560640048865  0.2219715829263349  1.0000
  H   H6        1.0  0.6531405130988142  0.36609891709539155  0.2917531173819108  1.0000
  C   C10       1.0  0.0689530376813039  0.13669709705226274  0.41055181178591704  1.0000
  C   C11       1.0  0.0693775835502235  0.2189380684190536  0.2775489015061732  1.0000
  C   C12       1.0  0.06165366551611304  0.15248712054010194  0.14744587950857424  1.0000
  C   C13       1.0  0.05332160610186465  0.0029138832555055706  0.14834420495521083  1.0000
  C   C14       1.0  0.05428013550817363  0.919107214392089  0.2789049907846312  1.0000
  C   C15       1.0  0.06354780614442541  0.9835669664651674  0.41104271966365213  1.0000
  Cl  Cl1       1.0  0.061065754494586705  0.2573650297890034  0.982936952136912  1.0000
  H   H7        1.0  0.1146036819908105  0.4020117454412074  0.6370746067816009  1.0000
  H   H8        1.0  0.0735752011188846  0.33562413742319985  0.274693335880314  1.0000
  H   H9        1.0  0.04695431560633563  0.9511315628106763  0.04768898176214152  1.0000
  H   H10       1.0  0.04990413352635969  0.8028230876137357  0.2762579711077151  1.0000
  H   H11       1.0  0.03338055773655402  0.6873322782937631  0.6440723750505144  1.0000
  C   C16       1.0  0.06654951303573498  0.5556454427187661  0.9876407990733878  1.0000
  C   C17       1.0  0.14901816492473052  0.5582464131292735  0.06063643420622909  1.0000
  C   C18       1.0  0.2292632360860515  0.5740084467722382  0.9840589656207482  1.0000
  C   C19       1.0  0.22830313671371583  0.5875884106564726  0.8335101363833939  1.0000
  C   C20       1.0  0.14741260776338808  0.5829055740549705  0.7590051765639515  1.0000
  C   C21       1.0  0.06595133304630084  0.5646185926928307  0.8339537252370834  1.0000
  Br  Br1       1.0  0.3402518897522742  0.5794086184460481  0.08555711781959374  1.0000
  H   H12       1.0  0.8506746806298758  0.6273141577225119  0.08638139957239432  1.0000
  H   H13       1.0  0.29039172786594203  0.6004113430351035  0.7738991130102222  1.0000
  H   H14       1.0  0.9203486532029537  0.606772192913545  0.5503322602938217  1.0000
  Zn  Zn1       1.0  0.9681340737436126  0.5602330682943522  0.41086030246269467  1.0000
  Zn  Zn2       1.0  0.16435817979621034  0.5600302626341483  0.4107335582723917  1.0000
  C   C22       1.0  0.06609904812645002  0.5571780427145807  0.6739791267178146  1.0000
  C   C23       1.0  0.06639533646207108  0.5630871068863192  0.14761487512112015  1.0000
  C   C24       1.0  0.06456894226794607  0.8234296232315901  0.4052076916327212  1.0000
  C   C25       1.0  0.06792538636615708  0.2968337948223094  0.416386386070525  1.0000
  O   O1        1.0  0.14080965916359645  0.5655013429002669  0.2012555340177895  1.0000
  O   O2        1.0  0.14061428883833493  0.5546087896963536  0.6202418564735335  1.0000
  O   O3        1.0  0.13937770411003636  0.7696103250985464  0.4032070225573241  1.0000
  O   O4        1.0  0.14204617694443228  0.3504998167368188  0.4182902599389736  1.0000
  O   O5        1.0  0.9904460096337293  0.7697635142623782  0.4033036008317856  1.0000
  O   O6        1.0  0.9916825833547845  0.5547637104778831  0.6203383589193561  1.0000
  O   O7        1.0  0.9918779552849004  0.565656195064349  0.2013503039471849  1.0000
  O   O8        1.0  0.993114473051538  0.35065465973285304  0.4183851378990675  1.0000
