data_image0
_chemical_formula_structural       NC8NH4C6NH7C6NCH7Zn2C4O8
_chemical_formula_sum              "N4 C25 H18 Zn2 O8"
_cell_length_a       11.048855714531884
_cell_length_b       9.274771166103582
_cell_length_c       9.274690524155613
_cell_angle_alpha    85.95744674106099
_cell_angle_beta     89.68736319339459
_cell_angle_gamma    90.59705445283097

_space_group_name_H-M_alt    "P 1"
_space_group_IT_number       1

loop_
  _space_group_symop_operation_xyz
  'x, y, z'

loop_
  _atom_site_type_symbol
  _atom_site_label
  _atom_site_symmetry_multiplicity
  _atom_site_fract_x
  _atom_site_fract_y
  _atom_site_fract_z
  _atom_site_occupancy
  N   N1        1.0  0.16066288468228354  0.5647628929697506  0.4073240930756755  1.0000
  C   C1        1.0  0.10602681197557029  0.5060581178823526  0.32245010671961755  1.0000
  C   C2        1.0  0.03785782871127186  0.43281129264437546  0.21655132757509188  1.0000
  C   C3        1.0  0.9101410711974162  0.43281110290716307  0.21655142963707985  1.0000
  C   C4        1.0  0.8472168181759626  0.3604033497466502  0.11186605359899772  1.0000
  C   C5        1.0  0.9104898117071024  0.2885683416734086  0.008008658506374784  1.0000
  C   C6        1.0  0.03689602306015562  0.28856823171765544  0.008008681369653605  1.0000
  C   C7        1.0  0.10047435797946716  0.3604034479666809  0.1118660257054116  1.0000
  C   C8        1.0  0.84228339161275  0.5060581927207315  0.32245009345132886  1.0000
  N   N2        1.0  0.7878967710654075  0.5647629359036082  0.4073241217863755  1.0000
  H   H1        1.0  0.7491526535004508  0.35949663093505047  0.11055449919854343  1.0000
  H   H2        1.0  0.8614735638028499  0.2328514373807869  0.927455060685658  1.0000
  H   H3        1.0  0.08567560599094937  0.23285154682709597  0.9274550598769152  1.0000
  H   H4        1.0  0.19853466359421892  0.35949658427602227  0.11055477438222838  1.0000
  C   C9        1.0  0.47056634696037053  0.14117320006657885  0.4081096955331205  1.0000
  C   C10       1.0  0.44329615981855375  0.2233573017581263  0.27922215329644207  1.0000
  C   C11       1.0  0.42732976888329177  0.15717613107015008  0.14951687587860096  1.0000
  C   C12       1.0  0.4387012454176513  0.007425188065900201  0.1477596732619597  1.0000
  C   C13       1.0  0.4637413534915042  0.923906208857864  0.2748766774386757  1.0000
  C   C14       1.0  0.4780047884768346  0.9883416383059869  0.4065510283998959  1.0000
  N   N3        1.0  0.40080956066425455  0.24244737020418786  0.019212784906506474  1.0000
  H   H5        1.0  0.6053552412281137  0.22358588067192622  0.7235371662363408  1.0000
  H   H6        1.0  0.4371961690167562  0.3399451788254808  0.27866851804405823  1.0000
  H   H7        1.0  0.4269895481507065  0.9550671710261914  0.047964548307538594  1.0000
  H   H8        1.0  0.46909373637774254  0.8077061756355144  0.2707489299247888  1.0000
  H   H9        1.0  0.5638754016929415  0.6931479084929913  0.6211533909344189  1.0000
  H   H10       1.0  0.3924709520078678  0.35452086282566597  0.019165972224815416  1.0000
  H   H11       1.0  0.38920113127908984  0.1941272432938473  0.9217879129017521  1.0000
  C   C15       1.0  0.4761910573414648  0.561064286612154  0.984089847877176  1.0000
  C   C16       1.0  0.5750703681288722  0.6234619603978266  0.0527124191105779  1.0000
  C   C17       1.0  0.6678216392982267  0.6967840796992754  0.9720797208438278  1.0000
  C   C18       1.0  0.6607446113478925  0.7074390384915197  0.8211636556797459  1.0000
  C   C19       1.0  0.564440458189437  0.6441819782944473  0.7513319805545459  1.0000
  C   C20       1.0  0.47238001474425584  0.5684505047089249  0.8305708044129517  1.0000
  N   N4        1.0  0.7691167412769268  0.7622443362418756  0.040681075932939244  1.0000
  C   C21       1.0  0.7854975884166265  0.7571665802448406  0.1969719669591008  1.0000
  H   H12       1.0  0.3365176425744967  0.38718932075757917  0.27740852960287476  1.0000
  H   H13       1.0  0.7309539672830543  0.7639046955158497  0.7570012089154803  1.0000
  H   H14       1.0  0.280523221399533  0.5007791326438377  0.555257121893906  1.0000
  H   H15       1.0  0.8354401923502055  0.816201453605949  0.9759476566060354  1.0000
  H   H16       1.0  0.8707003725567473  0.8143214980073905  0.2225451272384944  1.0000
  H   H17       1.0  0.7912699371567629  0.6431314814983805  0.24140643099102935  1.0000
  H   H18       1.0  0.7087803722840939  0.8112433341272147  0.24807448376078048  1.0000
  Zn  Zn1       1.0  0.34166897822535613  0.5647591082097946  0.4073324285438493  1.0000
  Zn  Zn2       1.0  0.6068905476648012  0.5647549925256388  0.4073276034557599  1.0000
  C   C22       1.0  0.4730472625099864  0.5613079090662221  0.6705783841245143  1.0000
  C   C23       1.0  0.4755151749350449  0.5682080128875409  0.14408178593510756  1.0000
  C   C24       1.0  0.4766183779289184  0.8281586238560203  0.401102256263528  1.0000
  C   C25       1.0  0.4719439534518933  0.3013555657281053  0.41355799382688496  1.0000
  O   O1        1.0  0.575938490759082  0.5705976578157432  0.19777472237438154  1.0000
  O   O2        1.0  0.57392097339438  0.5589140486224767  0.6168813726655087  1.0000
  O   O3        1.0  0.5768033306980633  0.7743993887010532  0.39927749009457014  1.0000
  O   O4        1.0  0.573056043530375  0.3551123271143406  0.41537849686227013  1.0000
  O   O5        1.0  0.3755033918527247  0.7744017736240014  0.39928153513140163  1.0000
  O   O6        1.0  0.3726210501062046  0.5589181659179701  0.6168853376656112  1.0000
  O   O7        1.0  0.3746385749115413  0.5706017097246983  0.19777695463563338  1.0000
  O   O8        1.0  0.3717561271008011  0.35511636964903076  0.4153808372006345  1.0000
