data_image0
_chemical_formula_structural       NC6NC2H4C7NH5C6NH7Zn2C4O8
_chemical_formula_sum              "N4 C25 H16 Zn2 O8"
_cell_length_a       14.927258858638513
_cell_length_b       9.275154477615127
_cell_length_c       9.274774538082514
_cell_angle_alpha    85.29330631285735
_cell_angle_beta     90.34966586359073
_cell_angle_gamma    89.43371000992973

_space_group_name_H-M_alt    "P 1"
_space_group_IT_number       1

loop_
  _space_group_symop_operation_xyz
  'x, y, z'

loop_
  _atom_site_type_symbol
  _atom_site_label
  _atom_site_symmetry_multiplicity
  _atom_site_fract_x
  _atom_site_fract_y
  _atom_site_fract_z
  _atom_site_occupancy
  N   N1        1.0  0.8277812661955561  0.5916842182056914  0.41436755600760433  1.0000
  C   C1        1.0  0.7502547752432587  0.5916841896111198  0.4143675664951192  1.0000
  C   C2        1.0  0.6538222668021076  0.5916843051140219  0.414367517035532  1.0000
  C   C3        1.0  0.6064272911024076  0.5691031451343715  0.28744417027986313  1.0000
  C   C4        1.0  0.512715979088094  0.5691031719261572  0.2874440367724478  1.0000
  C   C5        1.0  0.466006203969533  0.5916841274474234  0.41436753498098877  1.0000
  C   C6        1.0  0.36957362853680553  0.5916842429533405  0.41436748551548264  1.0000
  N   N2        1.0  0.29204713758450784  0.5916842143587693  0.41436749600299727  1.0000
  C   C7        1.0  0.513401112677657  0.6142652874300895  0.5412908817307382  1.0000
  C   C8        1.0  0.6071124246919695  0.614265260638304  0.5412910152381538  1.0000
  H   H1        1.0  0.6418569244570274  0.5515337306414998  0.1886905221181263  1.0000
  H   H2        1.0  0.4767532677171081  0.5515339281712299  0.18869051796156813  1.0000
  H   H3        1.0  0.47797154679015197  0.6318346906665757  0.6400446380589819  1.0000
  H   H4        1.0  0.6430751358882254  0.6318346007385776  0.6400446445889142  1.0000
  C   C9        1.0  0.06250441715314947  0.16830944138314294  0.41269751628871837  1.0000
  C   C10       1.0  0.0374253012018704  0.25259566586873855  0.28545284976891083  1.0000
  C   C11       1.0  0.005085441389682367  0.18760573418378157  0.16494852359778212  1.0000
  C   C12       1.0  0.9972943802799978  0.037438911191778786  0.17026966422139903  1.0000
  C   C13       1.0  0.023192627343040076  0.9519702479825577  0.29461388979388947  1.0000
  C   C14       1.0  0.05733269592936008  0.015047789853874328  0.41605003774844984  1.0000
  C   C15       1.0  0.9788085940485952  0.275487114942232  0.03617022710163309  1.0000
  N   N3        1.0  0.9576892870080285  0.3461275520224299  0.932665462982695  1.0000
  H   H5        1.0  0.08123708164272547  0.24189824129380355  0.7669447184526598  1.0000
  H   H6        1.0  0.04106736348467857  0.3695923238448615  0.28117076726605533  1.0000
  H   H7        1.0  0.9719618275159526  0.9861181684142019  0.0776545213224682  1.0000
  H   H8        1.0  0.018488019175394003  0.8355037572045402  0.2944868828328491  1.0000
  H   H9        1.0  0.07374296506479275  0.7142123440273075  0.6534057393487257  1.0000
  C   C16       1.0  0.05828831557362069  0.5953660541016264  0.990572040326068  1.0000
  C   C17       1.0  0.12124615579174397  0.6804455344195348  0.057645395940844724  1.0000
  C   C18       1.0  0.1882955420371023  0.75364885097801  0.9771703037745274  1.0000
  C   C19       1.0  0.19293172169999506  0.7421046906608761  0.8281471815067629  1.0000
  C   C20       1.0  0.13024189539958836  0.6602012067930514  0.7593838379629569  1.0000
  C   C21       1.0  0.06154878475690165  0.5879911154307742  0.8381754668971526  1.0000
  N   N4        1.0  0.25228303783639483  0.8385277545568264  0.04724811028240449  1.0000
  H   H10       1.0  0.9261035547982192  0.31353229869576826  0.11537651049108621  1.0000
  H   H11       1.0  0.11959183654005769  0.687283287192703  0.17369259805428144  1.0000
  H   H12       1.0  0.2447038665330582  0.7978075320433216  0.7648369480871375  1.0000
  H   H13       1.0  0.13426111454065537  0.6561908527730926  0.6431949098650094  1.0000
  H   H14       1.0  0.969739601370639  0.402555227729708  0.5713595030422378  1.0000
  H   H15       1.0  0.24962639441104184  0.8475688203234646  0.1586538295733422  1.0000
  H   H16       1.0  0.3027690851212044  0.8930968423378179  0.9882220728017673  1.0000
  Zn  Zn1       1.0  0.9617584316370951  0.5916802813198745  0.414375862454631  1.0000
  Zn  Zn2       1.0  0.15807010069365834  0.5916762390046901  0.4143709814050663  1.0000
  C   C22       1.0  0.06096557319563958  0.5836416356489086  0.6779375316611523  1.0000
  C   C23       1.0  0.05886509228654926  0.5997167025039933  0.15080946099653203  1.0000
  C   C24       1.0  0.05828352388980387  0.8550462377038429  0.4096653199109066  1.0000
  C   C25       1.0  0.061547085480641694  0.32831036761923227  0.4190817428327507  1.0000
  O   O1        1.0  0.13355795755736377  0.60116899602078  0.20458472592450488  1.0000
  O   O2        1.0  0.13526872744092877  0.5821851900893358  0.6241581423814431  1.0000
  O   O3        1.0  0.13310194019420296  0.8013478255922246  0.40752643928300814  1.0000
  O   O4        1.0  0.13572467733697446  0.3820063717742761  0.42121632085643346  1.0000
  O   O5        1.0  0.9841037880022026  0.8013501485533041  0.4075305229973445  1.0000
  O   O6        1.0  0.9862705643690947  0.5821892458832559  0.6241621560038877  1.0000
  O   O7        1.0  0.984559788177449  0.6011730166711855  0.2045870042189668  1.0000
  O   O8        1.0  0.986726508432598  0.38201038117131114  0.42121870731148303  1.0000
