data_image0
_chemical_formula_structural       NC6NCNCH5C9H4C9H6Zn2C4O8
_chemical_formula_sum              "N3 C30 H15 Zn2 O8"
_cell_length_a       14.933214217465613
_cell_length_b       9.275152443626249
_cell_length_c       9.275155815604963
_cell_angle_alpha    85.85171904572837
_cell_angle_beta     90.32327604629522
_cell_angle_gamma    90.60755784757023

_space_group_name_H-M_alt    "P 1"
_space_group_IT_number       1

loop_
  _space_group_symop_operation_xyz
  'x, y, z'

loop_
  _atom_site_type_symbol
  _atom_site_label
  _atom_site_symmetry_multiplicity
  _atom_site_fract_x
  _atom_site_fract_y
  _atom_site_fract_z
  _atom_site_occupancy
  N   N1        1.0  0.8467830594406386  0.5659228649213803  0.40397289082574633  1.0000
  C   C1        1.0  0.7692950917348498  0.5669113694032848  0.4029791272823424  1.0000
  C   C2        1.0  0.6728995084112285  0.5681437808579801  0.40174002741647263  1.0000
  C   C3        1.0  0.6248549432931583  0.4731666737012692  0.49724188056140073  1.0000
  C   C4        1.0  0.5313240082859566  0.47424066035748313  0.4961619899335326  1.0000
  C   C5        1.0  0.48493515831567763  0.5702373370998362  0.39963497106102097  1.0000
  C   C6        1.0  0.3883547826696381  0.5681459204611343  0.40173794951613573  1.0000
  N   N2        1.0  0.31086509506519133  0.5664012137146848  0.40349192503109355  1.0000
  C   C7        1.0  0.5330812700376304  0.666413747235455  0.30292731792973693  1.0000
  N   N3        1.0  0.48800089346268716  0.7661911741704552  0.20259889710031478  1.0000
  C   C8        1.0  0.6270903423798669  0.6643815578797654  0.3049708523486325  1.0000
  H   H1        1.0  0.6596789389384654  0.39828361177199234  0.5725386261254066  1.0000
  H   H2        1.0  0.4950684578679779  0.3999875253096976  0.5708251994583333  1.0000
  H   H3        1.0  0.5245198363672595  0.8366635793156396  0.13173709271075063  1.0000
  H   H4        1.0  0.418271725012236  0.7715001847319021  0.19726062640049147  1.0000
  H   H5        1.0  0.664468596648475  0.7378875828176688  0.23105871505296086  1.0000
  C   C9        1.0  0.07619250406560041  0.1425396917433568  0.40520653287281916  1.0000
  C   C10       1.0  0.04340736644235199  0.2241903980815327  0.2828013024335161  1.0000
  C   C11       1.0  0.01893714598194496  0.15764917805561307  0.1580950878093501  1.0000
  C   C12       1.0  0.02686582583893006  0.008274382420103699  0.15332485554653807  1.0000
  C   C13       1.0  0.057895790437993984  0.9249248049656728  0.2746971349676588  1.0000
  C   C14       1.0  0.08146419667154281  0.9897733970978853  0.4022707742640088  1.0000
  C   C15       1.0  0.002096871518878272  0.9399864735906619  0.024183135086106585  1.0000
  C   C16       1.0  0.9813586211676328  0.8827778898211452  0.9160471902533542  1.0000
  C   C17       1.0  0.9561968441150035  0.8133533916802362  0.7848431856362965  1.0000
  H   H6        1.0  0.2059971962005238  0.22680478653050204  0.6929016169766922  1.0000
  H   H7        1.0  0.9946282077225916  0.22305968658493525  0.06477918998674337  1.0000
  H   H8        1.0  0.16599926773484971  0.6962572671233879  0.5990489538448647  1.0000
  H   H9        1.0  0.9936471431138504  0.8649367754286746  0.6915159125905999  1.0000
  C   C18       1.0  0.07716492100034959  0.5625084851841917  0.9805217721407229  1.0000
  C   C19       1.0  0.007549203538046448  0.6327275251237159  0.048165674866726516  1.0000
  C   C20       1.0  0.9439911343836708  0.7125401125512305  0.9666705006694838  1.0000
  C   C21       1.0  0.9488712886025601  0.7238051063269826  0.81604470163477  1.0000
  C   C22       1.0  0.016680156353848778  0.6528091425998817  0.7466969872305558  1.0000
  C   C23       1.0  0.0804917540664745  0.5698045252913901  0.8269555275039853  1.0000
  C   C24       1.0  0.8835240659993709  0.8069860810779015  0.7322271067125461  1.0000
  C   C25       1.0  0.8288075617970322  0.876638790926438  0.6620146647138432  1.0000
  C   C26       1.0  0.7624189276278995  0.9611505780084557  0.5768122607305508  1.0000
  H   H10       1.0  0.28429161458754915  0.4463338339268781  0.0936675197343213  1.0000
  H   H11       1.0  0.8914843482218858  0.7667061636443973  0.021350415317983096  1.0000
  H   H12       1.0  0.2186581884842183  0.48640708412795375  0.5535188928176353  1.0000
  H   H13       1.0  0.7806417017315731  0.9653141073993246  0.46078005329867144  1.0000
  H   H14       1.0  0.6954052399739543  0.9097120684377122  0.5920856569076123  1.0000
  H   H15       1.0  0.760845738592478  0.07253816666529556  0.6129333620783424  1.0000
  Zn  Zn1       1.0  0.9807071194649607  0.5660571070872482  0.40384243916601736  1.0000
  Zn  Zn2       1.0  0.17694099325874696  0.566255239046068  0.4036342528589021  1.0000
  C   C27       1.0  0.07982516894069011  0.5626785588543284  0.6669813739759365  1.0000
  C   C28       1.0  0.07782509853230747  0.569635610831017  0.1404954509220544  1.0000
  C   C29       1.0  0.08044054692262237  0.8295786556828555  0.397082680898614  1.0000
  C   C30       1.0  0.07720964310725002  0.30273378142213314  0.41039422691223904  1.0000
  O   O1        1.0  0.15251635340668712  0.5720964358782632  0.19410509508740598  1.0000
  O   O2        1.0  0.15407087533095143  0.5603670195332078  0.6132133101229911  1.0000
  O   O3        1.0  0.1545668028362528  0.7758922350383335  0.3952682017525815  1.0000
  O   O4        1.0  0.1520203585795461  0.3565712296936012  0.41205009543341237  1.0000
  O   O5        1.0  0.005627687179150743  0.7757411163736074  0.39542659665496527  1.0000
  O   O6        1.0  0.005131770151963978  0.5602176333827311  0.6133716221759702  1.0000
  O   O7        1.0  0.0035772411640664363  0.5719469845219676  0.19426167457979807  1.0000
  O   O8        1.0  0.0030812466937546476  0.3564217689507345  0.41220678301366553  1.0000
