data_image0
_chemical_formula_structural       NC9NC4H8C8H6C6NO2H3Zn2C4O8
_chemical_formula_sum              "N3 C31 H17 O10 Zn2"
_cell_length_a       16.32274767691083
_cell_length_b       9.27514070457351
_cell_length_c       9.273395971720358
_cell_angle_alpha    85.10192813467344
_cell_angle_beta     89.35243876569035
_cell_angle_gamma    90.11802364943966

_space_group_name_H-M_alt    "P 1"
_space_group_IT_number       1

loop_
  _space_group_symop_operation_xyz
  'x, y, z'

loop_
  _atom_site_type_symbol
  _atom_site_label
  _atom_site_symmetry_multiplicity
  _atom_site_fract_x
  _atom_site_fract_y
  _atom_site_fract_z
  _atom_site_occupancy
  N   N1        1.0  0.7825526603292169  0.58433794991489  0.39942445179615604  1.0000
  C   C1        1.0  0.7299864982617259  0.5322993278079988  0.33895021546759274  1.0000
  C   C2        1.0  0.6646464348793534  0.46766695414165027  0.2638407304028707  1.0000
  C   C3        1.0  0.6758074122197605  0.37926145097569586  0.1610995496047134  1.0000
  C   C4        1.0  0.5962506059563004  0.33611905535723685  0.11096526076375546  1.0000
  C   C5        1.0  0.5375973823598674  0.3992568699150563  0.18434396904815342  1.0000
  C   C6        1.0  0.447585942494815  0.38257007216014327  0.1649545582101175  1.0000
  C   C7        1.0  0.392316159885703  0.4561613582873447  0.2504739631058335  1.0000
  C   C8        1.0  0.3075444406810123  0.44190002209296575  0.23390254447309108  1.0000
  C   C9        1.0  0.2518727597452592  0.5177536485916774  0.3220501199153596  1.0000
  N   N2        1.0  0.2071316148822218  0.5787274867055336  0.39290584192641376  1.0000
  C   C10       1.0  0.2769889374948881  0.3539283727836793  0.13167410700187232  1.0000
  C   C11       1.0  0.3309372332709197  0.28043455973886766  0.04626835818409169  1.0000
  C   C12       1.0  0.4155484541960843  0.2943117632674994  0.062393245308210325  1.0000
  C   C13       1.0  0.5757593980987974  0.4913188429756353  0.29133160025333993  1.0000
  H   H1        1.0  0.7345626128786575  0.34488474576369654  0.12114583942835244  1.0000
  H   H2        1.0  0.5876351911201396  0.26386534994196414  0.02699481639944157  1.0000
  H   H3        1.0  0.4147328686093097  0.5248380598129354  0.3302806110651355  1.0000
  H   H4        1.0  0.21154512779604823  0.3421799835394139  0.11802294496011934  1.0000
  H   H5        1.0  0.3071272352470177  0.21238028578892998  0.9671852995915483  1.0000
  H   H6        1.0  0.4550692409983714  0.23552143904430278  0.99407458217109  1.0000
  H   H7        1.0  0.5586261688990598  0.4515699668594395  0.40407290990600586  1.0000
  H   H8        1.0  0.5596869539061508  0.6071075183757795  0.26696062688654765  1.0000
  C   C14       1.0  0.9923585367787356  0.15813527772641245  0.3951937209337819  1.0000
  C   C15       1.0  0.004210018853096017  0.24279066306373356  0.26332778842076277  1.0000
  C   C16       1.0  0.023200030338025975  0.17854140066323776  0.13652620738527443  1.0000
  C   C17       1.0  0.03079215111443556  0.028482606444304025  0.13915399876509604  1.0000
  C   C18       1.0  0.017894171267053945  0.942284827092232  0.26867009101276906  1.0000
  C   C19       1.0  0.9973334886396845  0.004918788216356164  0.3971489536402597  1.0000
  C   C20       1.0  0.05090457514617185  0.9625095989684941  0.008300114367156166  1.0000
  C   C21       1.0  0.0677443814184635  0.9072583446232865  0.8987473292382914  1.0000
  H   H9        1.0  0.005346368123800847  0.230778384097849  0.7497022734290257  1.0000
  H   H10       1.0  0.0006923592137639814  0.35970802535322666  0.2589601465419473  1.0000
  H   H11       1.0  0.03276414356762514  0.24619428791863743  0.03658243835448527  1.0000
  H   H12       1.0  0.022024257920099974  0.8256248748117312  0.2684283528116047  1.0000
  H   H13       1.0  0.0029335213057812806  0.7038319632284633  0.636050847522021  1.0000
  H   H14       1.0  0.08252611766437633  0.8587576529479166  0.8025829914846647  1.0000
  C   C22       1.0  0.9953382597905739  0.5859501815281438  0.9722376748837123  1.0000
  C   C23       1.0  0.9225125552318606  0.6198239743103964  0.044021427423802884  1.0000
  C   C24       1.0  0.8493774370448672  0.6400676974741268  0.9687610997409682  1.0000
  C   C25       1.0  0.8469922569961587  0.6268522539559138  0.8194713026073681  1.0000
  C   C26       1.0  0.9197886962030996  0.5954495516130358  0.7462562485827973  1.0000
  C   C27       1.0  0.994353764097362  0.5771038790661  0.8201049857822342  1.0000
  N   N3        1.0  0.7711547743137436  0.6466511597170725  0.7425432273155734  1.0000
  O   O1        1.0  0.7001405024974592  0.6785778021844773  0.8144824489055424  1.0000
  O   O2        1.0  0.7684758782415883  0.63480355036108  0.6095603075690161  1.0000
  H   H15       1.0  0.17365689967444298  0.42205747532379945  0.08553436563382433  1.0000
  H   H16       1.0  0.7943820586288436  0.6647039503679693  0.02804578951744819  1.0000
  H   H17       1.0  0.11596818888481629  0.47095708518181545  0.5465377684570751  1.0000
  Zn  Zn1       1.0  0.9050769489948126  0.5827149347376446  0.3975516499278857  1.0000
  Zn  Zn2       1.0  0.08460724914578743  0.5803385470766711  0.39479044309925126  1.0000
  C   C28       1.0  0.9945042977825123  0.5730322083745127  0.6598266559744286  1.0000
  C   C29       1.0  0.9951818713469279  0.590023065213378  0.13251555279392524  1.0000
  C   C30       1.0  0.9963955959998174  0.8449187564870289  0.3910266334711181  1.0000
  C   C31       1.0  0.9932905016018759  0.31813478485455127  0.40131564920610296  1.0000
  O   O3        1.0  0.06326016227849539  0.5904818453228992  0.18525839465206606  1.0000
  O   O4        1.0  0.06268534470934384  0.5707687216602351  0.604987703940753  1.0000
  O   O5        1.0  0.0642116717596457  0.7903205442310167  0.38792980155201784  1.0000
  O   O6        1.0  0.06173377415294267  0.3709300350064193  0.4023161897641372  1.0000
  O   O7        1.0  0.9279503627227951  0.7921234476204897  0.3900259041976746  1.0000
  O   O8        1.0  0.9264240459353774  0.572573358108613  0.6070837336122172  1.0000
  O   O9        1.0  0.9269988652791472  0.5922864496364599  0.18735268853747233  1.0000
  O   O10       1.0  0.9254724769639827  0.37273462787827194  0.4044105918608827  1.0000
