data_image0
_chemical_formula_structural       NC10NC3NH7C12NCOCH13C13F3H9Zn2C4O8
_chemical_formula_sum              "N4 C44 H29 O9 F3 Zn2"
_cell_length_a       19.210446455230148
_cell_length_b       10.299155265289647
_cell_length_c       10.2985328690268
_cell_angle_alpha    85.56203192291568
_cell_angle_beta     89.99621934770114
_cell_angle_gamma    89.9251083167036

_space_group_name_H-M_alt    "P 1"
_space_group_IT_number       1

loop_
  _space_group_symop_operation_xyz
  'x, y, z'

loop_
  _atom_site_type_symbol
  _atom_site_label
  _atom_site_symmetry_multiplicity
  _atom_site_fract_x
  _atom_site_fract_y
  _atom_site_fract_z
  _atom_site_occupancy
  N   N1        1.0  0.655100289188011  0.41984668710490586  0.5668641850118916  1.0000
  C   C1        1.0  0.5948711227215543  0.42205440095126906  0.5670947996791451  1.0000
  C   C2        1.0  0.5200659180182075  0.42479156178122657  0.567380501958529  1.0000
  C   C3        1.0  0.48442268844444014  0.5410333788666057  0.5824643998326617  1.0000
  C   C4        1.0  0.4117571612728285  0.541184909490874  0.58241176103465  1.0000
  C   C5        1.0  0.37489896551810653  0.42550059593189116  0.5674668146145494  1.0000
  C   C6        1.0  0.2975772176788153  0.42414399572524225  0.56731654988437  1.0000
  C   C7        1.0  0.259788433523668  0.5277020166467622  0.5039245443951434  1.0000
  C   C8        1.0  0.18701047583629732  0.5262996708209311  0.5038158117137723  1.0000
  C   C9        1.0  0.1510198130519511  0.4215968140311339  0.5670480200085248  1.0000
  C   C10       1.0  0.0760906597379286  0.4202946151223413  0.5669115059831427  1.0000
  N   N2        1.0  0.015853102294829197  0.41924760299856123  0.5668017835960761  1.0000
  C   C11       1.0  0.18808490152041607  0.318164485682041  0.6304149839824074  1.0000
  C   C12       1.0  0.2608647911714733  0.3192925620864271  0.6305740343360904  1.0000
  C   C13       1.0  0.4131515515022492  0.3110792269224425  0.5526706481099912  1.0000
  N   N3        1.0  0.4839208030061277  0.31352439455047043  0.5528356134841332  1.0000
  H   H1        1.0  0.5124986364641418  0.6304757956291145  0.5944913921055346  1.0000
  H   H2        1.0  0.38446322717337  0.6312096342523119  0.5958334290208251  1.0000
  H   H3        1.0  0.2864881972658732  0.6089452236712358  0.45291012115778617  1.0000
  H   H4        1.0  0.15883688871430157  0.6067155136951827  0.4541320808509186  1.0000
  H   H5        1.0  0.1607454289279921  0.23678516002865727  0.6799994632256141  1.0000
  H   H6        1.0  0.2883935807487296  0.23899633307680415  0.6816955620186682  1.0000
  H   H7        1.0  0.3869115386379335  0.22019151694808614  0.539202944817107  1.0000
  C   C14       1.0  0.8355577742020136  0.03814957716224754  0.5669516857438004  1.0000
  C   C15       1.0  0.8236599226638213  0.04783898265749476  0.43201913800793057  1.0000
  C   C16       1.0  0.8175600386582422  0.9356141175550892  0.363487773396884  1.0000
  C   C17       1.0  0.8234934670129077  0.8125794200496895  0.43171136049864844  1.0000
  C   C18       1.0  0.8354022927255307  0.8009347809278067  0.5667255025979963  1.0000
  C   C19       1.0  0.8413642280194398  0.9142370258832171  0.6335144611906272  1.0000
  C   C20       1.0  0.8049744076777546  0.9468380064818351  0.22074543076186703  1.0000
  C   C21       1.0  0.8402722419362225  0.04087192778699267  0.13931604465700453  1.0000
  C   C22       1.0  0.8284340616592702  0.05130345992931962  0.004985987608195241  1.0000
  C   C23       1.0  0.7814941609703869  0.9670265004283958  0.9492396538149187  1.0000
  C   C24       1.0  0.7453460459974648  0.8748102612503771  0.0306010227820761  1.0000
  C   C25       1.0  0.7572095772240225  0.8641226591648229  0.16489373737394808  1.0000
  N   N4        1.0  0.7674157071888167  0.9772598284575293  0.8116714300462006  1.0000
  C   C26       1.0  0.8182373572590439  0.014089780368622407  0.7134380549493562  1.0000
  O   O1        1.0  0.882097824394345  0.016524338393887117  0.7412873696522309  1.0000
  C   C27       1.0  0.7960232749485869  0.04054213982056966  0.5748923373958603  1.0000
  H   H8        1.0  0.8401558032571708  0.3618987670714606  0.6188468168423165  1.0000
  H   H9        1.0  0.8181498393636124  0.1428815297469157  0.38020683670041855  1.0000
  H   H10       1.0  0.819746200425611  0.7257746764586327  0.3790798860353539  1.0000
  H   H11       1.0  0.8505436328810234  0.9060485158444811  0.7375903091343308  1.0000
  H   H12       1.0  0.8582963906099939  0.5716720949029465  0.8214267337477543  1.0000
  H   H13       1.0  0.877444685063748  0.10586761948055391  0.1794047330709012  1.0000
  H   H14       1.0  0.8551353607276607  0.12670130134969337  0.9453967759400718  1.0000
  H   H15       1.0  0.7081067546464124  0.8105185350676967  0.9896452494759926  1.0000
  H   H16       1.0  0.7282715752237472  0.7923450681810809  0.22531634149474833  1.0000
  H   H17       1.0  0.7183859015892323  0.9484656501911067  0.780604298548675  1.0000
  H   H18       1.0  0.745775227025267  0.09407024292316926  0.5704470781380508  1.0000
  H   H19       1.0  0.7895795755300314  0.9469329939891113  0.5296662267427483  1.0000
  H   H20       1.0  0.8356476045209003  0.10055510303808203  0.519486327738024  1.0000
  C   C28       1.0  0.8354600397537215  0.4194202403598002  0.18544115915162318  1.0000
  C   C29       1.0  0.9052680885982266  0.37840991616720165  0.18765432223644352  1.0000
  C   C30       1.0  0.9406403256833863  0.35774835303909125  0.07160485797163663  1.0000
  C   C31       1.0  0.9053091310511573  0.3786654837908738  0.9523535628106957  1.0000
  C   C32       1.0  0.8354999999106638  0.4196641040773602  0.9482360541602528  1.0000
  C   C33       1.0  0.801021268224043  0.4397744918249433  0.06527722417504633  1.0000
  C   C34       1.0  0.01444405442289232  0.3144028485107142  0.07487913284530401  1.0000
  C   C35       1.0  0.06249765207676706  0.3689275673217771  0.983312965938739  1.0000
  C   C36       1.0  0.13195683452791918  0.32823576472191685  0.9864159534679345  1.0000
  C   C37       1.0  0.1546266975253312  0.23079480253959006  0.07991242282265443  1.0000
  C   C38       1.0  0.10697566513854052  0.17808859555218404  0.17305530756771015  1.0000
  C   C39       1.0  0.037521007167644845  0.21881344806674097  0.1700632304338865  1.0000
  C   C40       1.0  0.23010595588195226  0.19037992385136412  0.0861948416707381  1.0000
  F   F1        1.0  0.265788299666897  0.2696411302813735  0.1656498304902625  1.0000
  F   F2        1.0  0.2597485202265104  0.20150469868198884  0.9633291917485467  1.0000
  F   F3        1.0  0.23657858454803415  0.06223854391135886  0.13611780775989613  1.0000
  H   H21       1.0  0.7036812993424588  0.4977328681373656  0.38852076690644566  1.0000
  H   H22       1.0  0.9325307702401211  0.364204049850257  0.27973281016437035  1.0000
  H   H23       1.0  0.9320461019102134  0.36123827213070564  0.8627234146908913  1.0000
  H   H24       1.0  0.7472185985795866  0.47137671039709117  0.06283837307987139  1.0000
  H   H25       1.0  0.7034586581581749  0.49639351476043486  0.7331869312520487  1.0000
  H   H26       1.0  0.04661973646248607  0.44472381785267295  0.9105639569868477  1.0000
  H   H27       1.0  0.1680362912805755  0.37340550163687203  0.9159110171550853  1.0000
  H   H28       1.0  0.12340950599662581  0.10518317221763618  0.24824624093835146  1.0000
  H   H29       1.0  0.0016920731955871724  0.17459739274921082  0.24158751751331217  1.0000
  Zn  Zn1       1.0  0.7592057586205525  0.41967034245633683  0.5668536779665876  1.0000
  Zn  Zn2       1.0  0.9117476196371308  0.41941336770447313  0.5668229303521926  1.0000
  C   C41       1.0  0.8354919502940623  0.41444392708391686  0.8040530122420808  1.0000
  C   C42       1.0  0.8354630933885963  0.4246414190542209  0.329623722731031  1.0000
  C   C43       1.0  0.835427808630223  0.6567504641967001  0.5615927106012688  1.0000
  C   C44       1.0  0.8355271833223034  0.18233332163141694  0.5720840940888128  1.0000
  O   O2        1.0  0.89335296064869  0.4262905075738024  0.3780010413128747  1.0000
  O   O3        1.0  0.8933778261473083  0.41259882075801274  0.7556519833488748  1.0000
  O   O4        1.0  0.8933252506440592  0.6082644156073216  0.5598635740839453  1.0000
  O   O5        1.0  0.8934054840927387  0.23062492207197116  0.5737893532035896  1.0000
  O   O6        1.0  0.7775478421098931  0.6084587881779435  0.5598872551188512  1.0000
  O   O7        1.0  0.7776004172882233  0.41279475372776037  0.7556755946704723  1.0000
  O   O8        1.0  0.7775755517633192  0.4264863947849338  0.3780230911303968  1.0000
  O   O9        1.0  0.777628075211517  0.23082080002472938  0.573811500398987  1.0000
