data_image0
_chemical_formula_structural       NC9NC5H8C7NC2NH8C8NH7Zn2C4O8
_chemical_formula_sum              "N5 C35 H23 Zn2 O8"
_cell_length_a       17.807436237873137
_cell_length_b       9.273995741505848
_cell_length_c       9.274266800404106
_cell_angle_alpha    86.13411906663325
_cell_angle_beta     88.95510806583813
_cell_angle_gamma    88.97465214434487

_space_group_name_H-M_alt    "P 1"
_space_group_IT_number       1

loop_
  _space_group_symop_operation_xyz
  'x, y, z'

loop_
  _atom_site_type_symbol
  _atom_site_label
  _atom_site_symmetry_multiplicity
  _atom_site_fract_x
  _atom_site_fract_y
  _atom_site_fract_z
  _atom_site_occupancy
  N   N1        1.0  0.7220432167917887  0.5283602779544772  0.4020301690404473  1.0000
  C   C1        1.0  0.6612982751678593  0.4892006128618598  0.3896984531643506  1.0000
  C   C2        1.0  0.5857382443319171  0.440490301829644  0.37435913772392615  1.0000
  C   C3        1.0  0.5676981096030519  0.3603163740983415  0.25760682792959355  1.0000
  C   C4        1.0  0.4943329395511268  0.3128979341544329  0.24262132021363847  1.0000
  C   C5        1.0  0.4379571119146021  0.34523403041317824  0.3443510862172887  1.0000
  C   C6        1.0  0.3599891555656407  0.29496871383905243  0.32851678885145863  1.0000
  C   C7        1.0  0.2981770497550267  0.38595100495611945  0.35753010733317203  1.0000
  C   C8        1.0  0.2246683198451779  0.3383072778743945  0.3425592421911035  1.0000
  C   C9        1.0  0.1618203134468679  0.43228047444682627  0.3719837365077634  1.0000
  N   N2        1.0  0.11130347350877845  0.5078284323400795  0.39564020781736264  1.0000
  C   C10       1.0  0.2123867480235584  0.19939464698373754  0.2985462266988592  1.0000
  C   C11       1.0  0.2733414402192504  0.10839690640250253  0.2695235578951083  1.0000
  C   C12       1.0  0.34672932744094354  0.15560091139244814  0.2842685326744838  1.0000
  C   C13       1.0  0.4566905737819047  0.42595864349777907  0.46134808257110255  1.0000
  C   C14       1.0  0.5301081942411686  0.4731643938396122  0.47616029603743426  1.0000
  H   H1        1.0  0.6102825966335611  0.33474494500889196  0.1779401466925281  1.0000
  H   H2        1.0  0.48147683884033204  0.25259776426176583  0.15042961790295384  1.0000
  H   H3        1.0  0.30711792601346577  0.4943973283977254  0.38984706957540927  1.0000
  H   H4        1.0  0.1557691691138633  0.1615193934148842  0.28669386952099973  1.0000
  H   H5        1.0  0.2637124263122504  0.0008508182261361943  0.23587625069154172  1.0000
  H   H6        1.0  0.3930691255254629  0.08245199903967926  0.2629471299420638  1.0000
  H   H7        1.0  0.4148139901436647  0.45094264553680996  0.5424503059275707  1.0000
  H   H8        1.0  0.5435044934548978  0.5348107492214056  0.5671989896461422  1.0000
  C   C15       1.0  0.9144348477928521  0.09471559959416043  0.39781890900055017  1.0000
  C   C16       1.0  0.9281508317890808  0.17625549654597839  0.26722973842885245  1.0000
  C   C17       1.0  0.9485658634934852  0.1091317402112062  0.14193746797313356  1.0000
  C   C18       1.0  0.9561098477366319  0.9583014667543964  0.14365117563474228  1.0000
  C   C19       1.0  0.9408214786546584  0.8755579979873861  0.2730720006354739  1.0000
  C   C20       1.0  0.9189189081782698  0.9414617155307569  0.39986380917774245  1.0000
  C   C21       1.0  0.9786679566178385  0.8891145821177604  0.009324448971791858  1.0000
  N   N3        1.0  0.9819347541876222  0.962249290964907  0.8782834575821403  1.0000
  C   C22       1.0  0.00483169124097293  0.8624775022380027  0.7872460138896296  1.0000
  C   C23       1.0  0.015239051863882297  0.7315852104728536  0.8636013118952822  1.0000
  N   N4        1.0  0.9988170511507007  0.7484903881852313  0.0032484745635483737  1.0000
  H   H9        1.0  0.852682619618081  0.36412274495066943  0.6062981182428315  1.0000
  H   H10       1.0  0.9249014597251421  0.2932360684298636  0.26263376121544124  1.0000
  H   H11       1.0  0.9595634171238037  0.17602081184917662  0.04383194218079822  1.0000
  H   H12       1.0  0.9433567651908057  0.7588770784978188  0.2750280686740014  1.0000
  H   H13       1.0  0.918930491661469  0.6452193226831379  0.6395833981794903  1.0000
  H   H14       1.0  0.013607402029872201  0.8841785520681312  0.6721719900223899  1.0000
  H   H15       1.0  0.03385951086453698  0.6311726610385454  0.8205624448730564  1.0000
  H   H16       1.0  0.002557805995935024  0.6683811701520357  0.0874491716155592  1.0000
  C   C24       1.0  0.9183876977209696  0.5148452807571309  0.9754946764929557  1.0000
  C   C25       1.0  0.8741932071041436  0.41393822170244254  0.05711140714268392  1.0000
  C   C26       1.0  0.8255130251099195  0.3244836628581693  0.989783323394628  1.0000
  C   C27       1.0  0.819413478761532  0.33460739790595784  0.8392101055413512  1.0000
  C   C28       1.0  0.8646208457226734  0.43201323489403115  0.7562618729597057  1.0000
  C   C29       1.0  0.914966035111449  0.5213320852436427  0.8221880336351086  1.0000
  C   C30       1.0  0.7677209469261694  0.236607664565617  0.7667249233182765  1.0000
  C   C31       1.0  0.8076961907136943  0.1026545363116622  0.7345238410697204  1.0000
  N   N5        1.0  0.839251400788642  0.9969343035258158  0.7091068501441335  1.0000
  H   H17       1.0  0.002808961274572306  0.8277894420649825  0.05433803704172368  1.0000
  H   H18       1.0  0.8760713106728143  0.4063702153294315  0.17407591825118218  1.0000
  H   H19       1.0  0.7919522489520129  0.24807166587733456  0.05538266083314248  1.0000
  H   H20       1.0  0.8617131953445561  0.43545712651892  0.6394268382131667  1.0000
  H   H21       1.0  0.974518437397053  0.7290832733072148  0.5253979629550347  1.0000
  H   H22       1.0  0.7465763736927701  0.29052840142048364  0.6644350666865675  1.0000
  H   H23       1.0  0.7183021911976514  0.20958310241862654  0.8376236094229994  1.0000
  Zn  Zn1       1.0  0.8343752631372844  0.5224314476941376  0.4001944924867631  1.0000
  Zn  Zn2       1.0  0.9989712988349639  0.5137456011065633  0.3974877077895296  1.0000
  C   C32       1.0  0.9155807276349226  0.514362444848673  0.6621310451095039  1.0000
  C   C33       1.0  0.9177676407825094  0.5218163293087092  0.13555127149889423  1.0000
  C   C34       1.0  0.9180906739438429  0.7813649092145332  0.3937325563938528  1.0000
  C   C35       1.0  0.9152576288248798  0.25481213631778665  0.4039498338147154  1.0000
  O   O1        1.0  0.9800228484487311  0.5208533535191893  0.18824050104160195  1.0000
  O   O2        1.0  0.9782500984875288  0.5087319732317293  0.60738701098986  1.0000
  O   O3        1.0  0.980276063781109  0.7243398958334912  0.39065334985602784  1.0000
  O   O4        1.0  0.9779968274811129  0.30524544336676906  0.40497405503115735  1.0000
  O   O5        1.0  0.8553496783226252  0.7309316083994961  0.392708146161249  1.0000
  O   O6        1.0  0.853323722509244  0.5153254173883608  0.6094417346110248  1.0000
  O   O7        1.0  0.8550964792587845  0.5274467341529043  0.19029349127448114  1.0000
  O   O8        1.0  0.8530704577966939  0.31183881451670725  0.40702715332442696  1.0000
