data_image0
_chemical_formula_structural       NC9NC5H8C7NH5C9H8Zn2C4O8
_chemical_formula_sum              "N3 C34 H21 Zn2 O8"
_cell_length_a       17.807436237873137
_cell_length_b       10.302819778424748
_cell_length_c       9.275155815604963
_cell_angle_alpha    86.0528115518669
_cell_angle_beta     89.76311116066847
_cell_angle_gamma    88.39001009685678

_space_group_name_H-M_alt    "P 1"
_space_group_IT_number       1

loop_
  _space_group_symop_operation_xyz
  'x, y, z'

loop_
  _atom_site_type_symbol
  _atom_site_label
  _atom_site_symmetry_multiplicity
  _atom_site_fract_x
  _atom_site_fract_y
  _atom_site_fract_z
  _atom_site_occupancy
  N   N1        1.0  0.7022043086473714  0.37517219299761595  0.398831200887493  1.0000
  C   C1        1.0  0.6415770045510428  0.33990031724443504  0.38659781361839024  1.0000
  C   C2        1.0  0.5661633017064649  0.29602598800592056  0.371380808142719  1.0000
  C   C3        1.0  0.5476929906866722  0.2237478737768681  0.25485792019809117  1.0000
  C   C4        1.0  0.4744698790238999  0.1810371210630235  0.23999149488621094  1.0000
  C   C5        1.0  0.4186682428419655  0.2102267947856007  0.3416119453304667  1.0000
  C   C6        1.0  0.3408512469502054  0.16495183796310164  0.3259038641233858  1.0000
  C   C7        1.0  0.278768482102098  0.24690161879051709  0.35468861785903316  1.0000
  C   C8        1.0  0.20540311498396358  0.20398800530704905  0.3398373745193599  1.0000
  C   C9        1.0  0.14227157310068067  0.28863138260222754  0.3690259570389036  1.0000
  N   N2        1.0  0.0915267990988668  0.3566788111937107  0.39249277118973414  1.0000
  C   C10       1.0  0.19353687643080836  0.07886649623063291  0.29617324638237186  1.0000
  C   C11       1.0  0.2547622411844446  0.9969027966372505  0.2673791824954912  1.0000
  C   C12       1.0  0.3280074455072101  0.039420282800956  0.2820056664523718  1.0000
  C   C13       1.0  0.4378307493586902  0.2830009718387123  0.4583781151895898  1.0000
  C   C14       1.0  0.5111061707196036  0.32552007663857485  0.47307181296583933  1.0000
  H   H1        1.0  0.5898291361692491  0.20066518548514198  0.17527744584317095  1.0000
  H   H2        1.0  0.46125811376902975  0.12667246791092432  0.1479736901497153  1.0000
  H   H3        1.0  0.287370133345301  0.34458006163860433  0.38673383828534535  1.0000
  H   H4        1.0  0.1370336257710794  0.04475156732883877  0.2844159696941233  1.0000
  H   H5        1.0  0.24545791336697206  0.9000340864761134  0.2340018523740772  1.0000
  H   H6        1.0  0.3745795542324811  0.9735348243182418  0.26086741174909034  1.0000
  H   H7        1.0  0.3964161555706244  0.3055556845885381  0.539395108891398  1.0000
  H   H8        1.0  0.5248425265101969  0.3810961643268778  0.5639337131650112  1.0000
  C   C15       1.0  0.8968691565748824  0.9846723626720404  0.39566815464644883  1.0000
  C   C16       1.0  0.8534306905522204  0.9778153474970287  0.5225830791100194  1.0000
  C   C17       1.0  0.8318196255216208  0.857301338471755  0.5857244546269704  1.0000
  C   C18       1.0  0.8534307511978582  0.7425143348422355  0.5225830828458546  1.0000
  C   C19       1.0  0.8968691690968157  0.7471683895916593  0.3956681972793856  1.0000
  C   C20       1.0  0.9183614598211028  0.8687681257256414  0.3328738579764885  1.0000
  C   C21       1.0  0.7872889027003396  0.851400998282504  0.7158309004688216  1.0000
  N   N3        1.0  0.7515007726904455  0.8466590849574984  0.8203938060065054  1.0000
  H   H9        1.0  0.9133225856364339  0.31459205930661827  0.3475952530484141  1.0000
  H   H10       1.0  0.8362990430426391  0.06596968756338861  0.5726366783046226  1.0000
  H   H11       1.0  0.8362991366895403  0.6498200787252001  0.5726366425410241  1.0000
  H   H12       1.0  0.9518596701377208  0.8732065700155677  0.23500163739909505  1.0000
  H   H13       1.0  0.9133226549091309  0.42160897627848937  0.34759536146012904  1.0000
  C   C22       1.0  0.8954927325217259  0.3627041271083225  0.9724593568348213  1.0000
  C   C23       1.0  0.8367245859047664  0.4287566303535997  0.041231009197091766  1.0000
  C   C24       1.0  0.7829882086718274  0.5031985857075243  0.9608211019581749  1.0000
  C   C25       1.0  0.7870234368200077  0.5131407503392282  0.8101736094790586  1.0000
  C   C26       1.0  0.844279847137118  0.44646250978672225  0.7397182041680526  1.0000
  C   C27       1.0  0.8982455751639048  0.3691366330844832  0.8188769650550349  1.0000
  C   C28       1.0  0.7317685307901066  0.5906880089265572  0.7274758065295739  1.0000
  C   C29       1.0  0.6855025010339236  0.6556231334925822  0.6582010011528405  1.0000
  C   C30       1.0  0.6293669933987716  0.7344109042788318  0.5741362531998537  1.0000
  H   H14       1.0  0.06986066538723223  0.2496733801037121  0.08257839345861527  1.0000
  H   H15       1.0  0.8333495385753066  0.42531806688213636  0.15807749465391852  1.0000
  H   H16       1.0  0.7386567815543925  0.554101942158705  0.016355875068565284  1.0000
  H   H17       1.0  0.8456678662084699  0.4525015411239594  0.622549310994367  1.0000
  H   H18       1.0  0.014590677540748494  0.28842514369440986  0.5434004114175202  1.0000
  H   H19       1.0  0.6446326030142672  0.737415994442574  0.45788873317030404  1.0000
  H   H20       1.0  0.5734167675675031  0.6908366854266804  0.5900734309222457  1.0000
  H   H21       1.0  0.6274657899331862  0.834750275166037  0.6106719397040976  1.0000
  Zn  Zn1       1.0  0.8145543954778174  0.36983200159718355  0.39701040179403235  1.0000
  Zn  Zn2       1.0  0.9791767326049116  0.36200850967810916  0.39432541822343237  1.0000
  C   C31       1.0  0.8977235643643529  0.36274875638403437  0.6588859750950029  1.0000
  C   C32       1.0  0.8960093618492491  0.3690933086556074  0.13244995705341678  1.0000
  C   C33       1.0  0.8968466197645423  0.6029969865071831  0.38992532437451555  1.0000
  C   C34       1.0  0.8968862505248365  0.12884352195754833  0.40141068552477294  1.0000
  O   O1        1.0  0.958656066374171  0.36826293791820675  0.18512532674640855  1.0000
  O   O2        1.0  0.9600214032680133  0.35764029520052  0.6041723501375318  1.0000
  O   O3        1.0  0.9593124221167327  0.5516438307901446  0.38698473547557244  1.0000
  O   O4        1.0  0.9593649909995567  0.1742594134644007  0.4023128342669475  1.0000
  O   O5        1.0  0.8343660809056231  0.5575811004820221  0.38902298665918944  1.0000
  O   O6        1.0  0.8350750618035777  0.36357912413843696  0.6062105244789526  1.0000
  O   O7        1.0  0.8337097193243223  0.3742017084434728  0.1871617683853528  1.0000
  O   O8        1.0  0.8344186442980536  0.18019817552497816  0.40434938395598524  1.0000
