data_image0
_chemical_formula_structural       NC12NC2H8C6BrH5C7ONH5Zn2C4O8
_chemical_formula_sum              "N3 C31 H18 Br1 O9 Zn2"
_cell_length_a       19.240039667572717
_cell_length_b       9.276564384272257
_cell_length_c       9.273042158839658
_cell_angle_alpha    86.1127255114725
_cell_angle_beta     90.09323012154856
_cell_angle_gamma    90.58593109150864

_space_group_name_H-M_alt    "P 1"
_space_group_IT_number       1

loop_
  _space_group_symop_operation_xyz
  'x, y, z'

loop_
  _atom_site_type_symbol
  _atom_site_label
  _atom_site_symmetry_multiplicity
  _atom_site_fract_x
  _atom_site_fract_y
  _atom_site_fract_z
  _atom_site_occupancy
  N   N1        1.0  0.6609282020584804  0.5614744493313979  0.4088007036876147  1.0000
  C   C1        1.0  0.6007798336249005  0.5614745416285669  0.4088006126740049  1.0000
  C   C2        1.0  0.5259617969983768  0.5614746702609474  0.408800460180496  1.0000
  C   C3        1.0  0.48923114543605967  0.49109898864278123  0.5236303419083999  1.0000
  C   C4        1.0  0.41655987065016764  0.49097687509452625  0.523726491008935  1.0000
  C   C5        1.0  0.37962956235649187  0.5614747703881438  0.408800207404894  1.0000
  C   C6        1.0  0.4170749336541688  0.631972875585235  0.2938741395415969  1.0000
  C   C7        1.0  0.4897450942564889  0.6318505019655984  0.2939704248123505  1.0000
  C   C8        1.0  0.3024244713977108  0.5614746819277197  0.4088001015795566  1.0000
  C   C9        1.0  0.26465549708827163  0.4361972989371678  0.45537261546279284  1.0000
  C   C10       1.0  0.1919853091580904  0.43631493606399574  0.4552711615843834  1.0000
  C   C11       1.0  0.1560921838239094  0.5614745392036349  0.4088001692974377  1.0000
  C   C12       1.0  0.08127414627704518  0.5614744158052947  0.40880044537554694  1.0000
  N   N2        1.0  0.0211258293948715  0.5614743729076628  0.4088006767258816  1.0000
  C   C13       1.0  0.1931465697123612  0.6866342259257239  0.36232911824130665  1.0000
  C   C14       1.0  0.2658177672193436  0.6867520611628427  0.3622274837450239  1.0000
  H   H1        1.0  0.5167477131840965  0.4366205132251714  0.6132858695434107  1.0000
  H   H2        1.0  0.3892736697445507  0.43739762736352145  0.6146193378099025  1.0000
  H   H3        1.0  0.3901746038725646  0.6855521527619424  0.20298123628222875  1.0000
  H   H4        1.0  0.517658297678597  0.686328869270384  0.2043152033585065  1.0000
  H   H5        1.0  0.2912896337563457  0.3375618872686048  0.4900444991333439  1.0000
  H   H6        1.0  0.16381720956730136  0.3386900455807842  0.4910886662349865  1.0000
  H   H7        1.0  0.1658848457345412  0.7842590893327699  0.32651162976163706  1.0000
  H   H8        1.0  0.2933701097603674  0.7853875602274345  0.32755555031335515  1.0000
  C   C15       1.0  0.8389366305212617  0.1379973421707099  0.4091692499713644  1.0000
  C   C16       1.0  0.8299194624570183  0.22010949046059006  0.27743368058873763  1.0000
  C   C17       1.0  0.8273716653399775  0.15374643691341228  0.1469285859868863  1.0000
  C   C18       1.0  0.8338235191601943  0.004326139207248889  0.14568103822546274  1.0000
  C   C19       1.0  0.841614594469109  0.9204996860913132  0.27542454356377344  1.0000
  C   C20       1.0  0.8431240331980044  0.9849405129340633  0.40844451754505817  1.0000
  Br  Br1       1.0  0.8308486176491255  0.9140827436359199  0.9666052464033412  1.0000
  H   H9        1.0  0.8187517691067567  0.4030171764646142  0.6434989748925195  1.0000
  H   H10       1.0  0.8264874627643874  0.336739900781442  0.2749661261452778  1.0000
  H   H11       1.0  0.8210419082590721  0.21890949883259395  0.046529944912323325  1.0000
  H   H12       1.0  0.8448278125738714  0.8042269817752465  0.2723170111705553  1.0000
  H   H13       1.0  0.8816531674642142  0.6893716310543688  0.6329310120728382  1.0000
  C   C21       1.0  0.840675942827348  0.5570121024298587  0.9855458163231924  1.0000
  C   C22       1.0  0.7768843846670445  0.5661950914125224  0.05821877919050311  1.0000
  C   C23       1.0  0.714416893648043  0.5893268272377019  0.9819428375106054  1.0000
  C   C24       1.0  0.7161176760651081  0.6015337499845617  0.8304336919497404  1.0000
  C   C25       1.0  0.778760950893105  0.5902334989927764  0.7567531102941758  1.0000
  C   C26       1.0  0.8413847387071288  0.5659257435496844  0.8320680279368942  1.0000
  C   C27       1.0  0.6480500919302615  0.5992821112652884  0.06179435304070013  1.0000
  O   O1        1.0  0.6431308657269629  0.5434766604552621  0.18921272569935854  1.0000
  N   N3        1.0  0.5892918317318274  0.6724423920254978  0.9981953031694317  1.0000
  H   H14       1.0  0.009576565296149921  0.6120951037421631  0.08545870659869603  1.0000
  H   H15       1.0  0.6689241357441194  0.6157920091174043  0.7677983685581582  1.0000
  H   H16       1.0  0.9551960082706203  0.5963359694299681  0.5491202008837202  1.0000
  H   H17       1.0  0.5929468926636458  0.7347150681281207  0.9004761906403846  1.0000
  H   H18       1.0  0.5423142526301218  0.6722800836884477  0.054437912895185965  1.0000
  Zn  Zn1       1.0  0.7648734537058426  0.5614706647624454  0.4088090102071953  1.0000
  Zn  Zn2       1.0  0.9171805482090889  0.5614665181978216  0.4088041434270562  1.0000
  C   C28       1.0  0.8412207889609086  0.5584959829907277  0.6720620958759935  1.0000
  C   C29       1.0  0.8408348852572799  0.5644430209589801  0.14555119761646496  1.0000
  C   C30       1.0  0.8423241359641758  0.824789769015047  0.4028378984319603  1.0000
  C   C31       1.0  0.839731477780477  0.2981475031643815  0.4147754733889122  1.0000
  O   O2        1.0  0.8986879452925133  0.5669290401849443  0.1992486237111406  1.0000
  O   O3        1.0  0.8989652837812607  0.5560057243522696  0.6183605620268111  1.0000
  O   O4        1.0  0.8998554725267112  0.7710413401138134  0.40096011652678665  1.0000
  O   O5        1.0  0.8977977045354864  0.3518934336028403  0.41664896113302974  1.0000
  O   O6        1.0  0.7842562454045099  0.7710437493603313  0.4009641924953  1.0000
  O   O7        1.0  0.7833660651576598  0.5560098653719716  0.6183645596609886  1.0000
  O   O8        1.0  0.7830887250157479  0.5669331127046238  0.19925088847267047  1.0000
  O   O9        1.0  0.7821984842953624  0.3518974969459847  0.4166513339667739  1.0000
