data_image0
_chemical_formula_structural       NC9NC5H8C13OH12C13OH11Zn2C4O8
_chemical_formula_sum              "N2 C44 H31 O10 Zn2"
_cell_length_a       17.807436237873137
_cell_length_b       10.299150109392551
_cell_length_c       10.299153481560893
_cell_angle_alpha    85.56204594622189
_cell_angle_beta     89.40949667369763
_cell_angle_gamma    88.37145022261349

_space_group_name_H-M_alt    "P 1"
_space_group_IT_number       1

loop_
  _space_group_symop_operation_xyz
  'x, y, z'

loop_
  _atom_site_type_symbol
  _atom_site_label
  _atom_site_symmetry_multiplicity
  _atom_site_fract_x
  _atom_site_fract_y
  _atom_site_fract_z
  _atom_site_occupancy
  N   N1        1.0  0.7069101193619761  0.3873399093190047  0.5566180496053358  1.0000
  C   C1        1.0  0.6463272745961223  0.3521429969904155  0.5456067090545329  1.0000
  C   C2        1.0  0.570968874321201  0.3083619141340508  0.5319097969883748  1.0000
  C   C3        1.0  0.5528730454818254  0.23690151443855093  0.42693179277968535  1.0000
  C   C4        1.0  0.4797039339047136  0.1942819199034196  0.41355038479116124  1.0000
  C   C5        1.0  0.42358199738772423  0.22274515025802488  0.5051146650046929  1.0000
  C   C6        1.0  0.3458220859271176  0.17756645502107493  0.49097572741079465  1.0000
  C   C7        1.0  0.2836349036827868  0.2593394389618797  0.5168854222632513  1.0000
  C   C8        1.0  0.2103235272993033  0.21651679364207202  0.5035177686020011  1.0000
  C   C9        1.0  0.147085816266435  0.3009815008260812  0.5297904004809819  1.0000
  N   N2        1.0  0.0962556858527147  0.36888528220329997  0.550912872121462  1.0000
  C   C10       1.0  0.19861583200010244  0.09166315239305246  0.46421516299917265  1.0000
  C   C11       1.0  0.25994564558409855  0.00987631181912585  0.4382970833660227  1.0000
  C   C12       1.0  0.33313762920222534  0.05230430615150251  0.45146233899375443  1.0000
  C   C13       1.0  0.44236917573300094  0.294700041240445  0.6103117227003948  1.0000
  C   C14       1.0  0.5155911678225664  0.3371291667692433  0.6235375471724969  1.0000
  H   H1        1.0  0.5952600644696218  0.21438762665459385  0.3552265344536367  1.0000
  H   H2        1.0  0.46678739209585896  0.1405640805692805  0.33064856453887387  1.0000
  H   H3        1.0  0.2921191124205385  0.35682359384019957  0.5457275993106784  1.0000
  H   H4        1.0  0.1421553504552604  0.057620184560570414  0.4536324500823553  1.0000
  H   H5        1.0  0.2507627374451491  0.9132118812126137  0.40825418968445826  1.0000
  H   H6        1.0  0.37978747747033575  0.9865464360884326  0.4324374584095482  1.0000
  H   H7        1.0  0.4006993553971511  0.3166753145168806  0.683311684328188  1.0000
  H   H8        1.0  0.529035656722584  0.3920673106629009  0.705397292394299  1.0000
  C   C15       1.0  0.901657322450917  0.9967094922618653  0.5539085190310252  1.0000
  C   C16       1.0  0.9002966174540463  0.9850210747807044  0.6907399620678338  1.0000
  C   C17       1.0  0.8995412979898413  0.8619632007449041  0.759853670655736  1.0000
  C   C18       1.0  0.9001517101465704  0.7497724623178424  0.6903786883694727  1.0000
  C   C19       1.0  0.9015156623345532  0.7595053520745466  0.5536335972118998  1.0000
  C   C20       1.0  0.902262563898017  0.8834348614128078  0.4861976099891551  1.0000
  C   C21       1.0  0.8980952608512748  0.8505802081597751  0.9045157961546543  1.0000
  C   C22       1.0  0.8519111141170768  0.7599145400270625  0.9732143354301378  1.0000
  C   C23       1.0  0.8505255048430215  0.7492857444330205  0.10934161566163392  1.0000
  C   C24       1.0  0.8957917430768734  0.8281427323490725  0.17922401504793514  1.0000
  C   C25       1.0  0.9412572442878921  0.9197963389529809  0.11117858143224679  1.0000
  C   C26       1.0  0.9426602924954893  0.9306001048820652  0.9750507569506133  1.0000
  C   C27       1.0  0.8927231318430221  0.8191504701693445  0.3253560788123986  1.0000
  O   O1        1.0  0.8365789618092675  0.9050021370195983  0.3664196521920372  1.0000
  H   H9        1.0  0.9037376340121042  0.22608789860243372  0.2956399101608895  1.0000
  H   H10       1.0  0.8987795729987106  0.07188489418467947  0.743771069404672  1.0000
  H   H11       1.0  0.9005892758478374  0.6546475950279169  0.7432060908724922  1.0000
  H   H12       1.0  0.9033124952124801  0.8916584398430109  0.38072206059197117  1.0000
  H   H13       1.0  0.9019897206129782  0.4357758915865673  0.501037380182503  1.0000
  H   H14       1.0  0.815974128512226  0.6985912301852486  0.9216319362495917  1.0000
  H   H15       1.0  0.8139885836979195  0.6797053856288402  0.16025284354961145  1.0000
  H   H16       1.0  0.9758105284992497  0.9827384635317443  0.16352746617114866  1.0000
  H   H17       1.0  0.9792225214074053  0.0006249765348096552  0.9249458060590682  1.0000
  H   H18       1.0  0.9479909040927099  0.8443739280298643  0.36471646574787336  1.0000
  H   H19       1.0  0.8805206532232593  0.7177206539482142  0.36334767978022736  1.0000
  H   H20       1.0  0.8368735526409652  0.8953443940268908  0.4630425639218398  1.0000
  C   C28       1.0  0.9015219980006345  0.3779630593151612  0.1723994949396026  1.0000
  C   C29       1.0  0.8238545330260181  0.3572622867800477  0.17421790413805227  1.0000
  C   C30       1.0  0.7846117320156532  0.34692288187532583  0.057970262823431304  1.0000
  C   C31       1.0  0.8240317226964038  0.35757121203443787  0.9389072249053689  1.0000
  C   C32       1.0  0.9016510023537863  0.37825183253843153  0.9351425825458407  1.0000
  C   C33       1.0  0.9399429175003948  0.3883233942332198  0.05242888214645092  1.0000
  C   C34       1.0  0.7024980650114262  0.3250501527172227  0.06086583782738141  1.0000
  C   C35       1.0  0.6549717369935831  0.392544741107576  0.9688709259342664  1.0000
  C   C36       1.0  0.5776979208425838  0.3720051585304069  0.9716737719553867  1.0000
  C   C37       1.0  0.5466499678811194  0.28275743840883694  0.06562167548840203  1.0000
  C   C38       1.0  0.5936721035775211  0.21638311415997924  0.15854210750938844  1.0000
  C   C39       1.0  0.6709494891938751  0.23689287783156243  0.15591736961230818  1.0000
  C   C40       1.0  0.46340044258486374  0.2634148767173594  0.07076640399652367  1.0000
  O   O2        1.0  0.4296408640073868  0.3526099788695425  0.15073645268603575  1.0000
  H   H21       1.0  0.7935676957271012  0.35093353806677796  0.2661401023088805  1.0000
  H   H22       1.0  0.7942266463090106  0.347930806634091  0.8491688586254056  1.0000
  H   H23       1.0  0.999812583318925  0.4042786408482475  0.050240926210343595  1.0000
  H   H24       1.0  0.9314961523259893  0.38629272113463897  0.6062126314011169  1.0000
  H   H25       1.0  0.6774157401371583  0.46274271643444287  0.8959585035787189  1.0000
  H   H26       1.0  0.5420437005938579  0.4259795442672616  0.9006963961766814  1.0000
  H   H27       1.0  0.5705349456276791  0.14842456317576436  0.23290376586452388  1.0000
  H   H28       1.0  0.7061522374863674  0.18273937543554772  0.22742464716918426  1.0000
  H   H29       1.0  0.4514957692616237  0.162183745111401  0.10979670202028857  1.0000
  H   H30       1.0  0.4396185380207315  0.27790844465498044  0.9709791683373531  1.0000
  H   H31       1.0  0.3750317485588827  0.3358432783505436  0.15084029519110875  1.0000
  Zn  Zn1       1.0  0.8192668402448915  0.38201083982358575  0.554979170715542  1.0000
  Zn  Zn2       1.0  0.9838989505443188  0.37420376862222027  0.5525624315130857  1.0000
  C   C41       1.0  0.9016258883334259  0.3730231878127373  0.7909697091053483  1.0000
  C   C42       1.0  0.9015416999505262  0.38319297419415627  0.3165719936092133  1.0000
  C   C43       1.0  0.9015376963595015  0.6153189602704985  0.5485103941668728  1.0000
  C   C44       1.0  0.9016298360485214  0.1408956439848057  0.5590313791739123  1.0000
  O   O3        1.0  0.9640253410283621  0.38197977232239233  0.36404046330474377  1.0000
  O   O4        1.0  0.9640942097638688  0.368310023334531  0.7416666167792383  1.0000
  O   O5        1.0  0.9640221516377309  0.5639669642928852  0.5458790164034352  1.0000
  O   O6        1.0  0.9640973429585201  0.18632284328224724  0.5598279671265263  1.0000
  O   O7        1.0  0.8390683916498293  0.56989176782914  0.5477136359199848  1.0000
  O   O8        1.0  0.8391404494710356  0.3742363872879566  0.7435011664874482  1.0000
  O   O9        1.0  0.8390715805298492  0.3879060904222967  0.36587345161704965  1.0000
  O   O10       1.0  0.8391435824751264  0.1922491521295235  0.5616610528107366  1.0000
