data_image0
_chemical_formula_structural       NC8NC6H8C7NH3C9H8Zn2C4O8
_chemical_formula_sum              "N3 C34 H19 Zn2 O8"
_cell_length_a       17.457602349358154
_cell_length_b       10.302819778424748
_cell_length_c       9.275155815604961
_cell_angle_alpha    86.0528115518669
_cell_angle_beta     93.22066324705655
_cell_angle_gamma    91.68806980205999

_space_group_name_H-M_alt    "P 1"
_space_group_IT_number       1

loop_
  _space_group_symop_operation_xyz
  'x, y, z'

loop_
  _atom_site_type_symbol
  _atom_site_label
  _atom_site_symmetry_multiplicity
  _atom_site_fract_x
  _atom_site_fract_y
  _atom_site_fract_z
  _atom_site_occupancy
  N   N1        1.0  0.7173607630100488  0.44034175186481195  0.475278924806505  1.0000
  C   C1        1.0  0.656243688681774  0.3943377053986228  0.4634943650799521  1.0000
  C   C2        1.0  0.5802115003665247  0.33711446785198235  0.44884496534723456  1.0000
  C   C3        1.0  0.5219590275099109  0.37792045440244254  0.5319891716206147  1.0000
  C   C4        1.0  0.4473671874447093  0.32282020955070223  0.51802186209979  1.0000
  C   C5        1.0  0.3855401219287345  0.3659074127645266  0.6060747299071443  1.0000
  C   C6        1.0  0.3107878521249103  0.3838812516734146  0.5441714426717419  1.0000
  C   C7        1.0  0.2525357744622739  0.4245043161001356  0.6274354887339394  1.0000
  C   C8        1.0  0.1763371806935546  0.4430643989162597  0.5630728097274802  1.0000
  N   N2        1.0  0.1150864283677319  0.45798032910434844  0.511325383484601  1.0000
  C   C9        1.0  0.2685456788598038  0.4474010655759117  0.7731673294071117  1.0000
  C   C10       1.0  0.3425146737695894  0.42981949061981894  0.8355008908405464  1.0000
  C   C11       1.0  0.4007568341807754  0.38938043724220983  0.7527449629929617  1.0000
  C   C12       1.0  0.4323111827403136  0.2262242072140419  0.4193196565505747  1.0000
  C   C13       1.0  0.49055341230599925  0.18570032085273658  0.3366194955302841  1.0000
  C   C14       1.0  0.5643625144369601  0.2409177275127989  0.35119730646318587  1.0000
  H   H1        1.0  0.5345487422841183  0.45367559424598514  0.6059561878118693  1.0000
  H   H2        1.0  0.2980666757590767  0.36802123824460853  0.430913670614109  1.0000
  H   H3        1.0  0.2239016411006708  0.4787900385896973  0.838481221287078  1.0000
  H   H4        1.0  0.3547207628598347  0.4472334097434554  0.9483443050437886  1.0000
  H   H5        1.0  0.4574124479722155  0.37479745437216483  0.8039279136947879  1.0000
  H   H6        1.0  0.3757872532703181  0.18080932957899434  0.4074950033653519  1.0000
  H   H7        1.0  0.4784730889882077  0.11105079182890897  0.2613222183752617  1.0000
  H   H8        1.0  0.6090084806775897  0.20866380667921788  0.2864508163195427  1.0000
  C   C15       1.0  0.916227278240505  0.06790820525490117  0.4933086914944573  1.0000
  C   C16       1.0  0.8718512316308976  0.05701979119255186  0.6154945480541828  1.0000
  C   C17       1.0  0.8497737110163156  0.9345001214822746  0.6762831656733117  1.0000
  C   C18       1.0  0.8718512935855177  0.8217187841661057  0.6154945583924003  1.0000
  C   C19       1.0  0.9162272910327132  0.8304042333366443  0.49330873549063425  1.0000
  C   C20       1.0  0.9381834737034048  0.9539986070544453  0.4328542233398124  1.0000
  C   C21       1.0  0.8042818322182532  0.9244670131989473  0.8015416315722415  1.0000
  N   N3        1.0  0.7677212473080675  0.9164037066316827  0.9022083475695276  1.0000
  H   H9        1.0  0.8543498127735206  0.14358419240903733  0.6636830555041723  1.0000
  H   H10       1.0  0.8543499084417067  0.7274345922619477  0.6636830299357441  1.0000
  H   H11       1.0  0.9724047130439732  0.961545923737051  0.33862889285199893  1.0000
  C   C22       1.0  0.9148211453005072  0.44581222774022383  0.06995004486430845  1.0000
  C   C23       1.0  0.8547845405991837  0.5064106286063126  0.13232371448497582  1.0000
  C   C24       1.0  0.7998883115409035  0.5758654656012835  0.04606362421453536  1.0000
  C   C25       1.0  0.8040106364934156  0.5861821281321136  0.8958554397881087  1.0000
  C   C26       1.0  0.8625028754137619  0.5248176900680496  0.8316334371985241  1.0000
  C   C27       1.0  0.9176334055984304  0.4525002171111924  0.9166673501266941  1.0000
  C   C28       1.0  0.7475631025470469  0.6586013380776536  0.8071421342999376  1.0000
  C   C29       1.0  0.7002984617599911  0.7192426457123146  0.7328304292259604  1.0000
  C   C30       1.0  0.6429513192073081  0.7928206417587658  0.6426543092165815  1.0000
  H   H12       1.0  0.09295265464118631  0.34896406623885423  0.19905220566987777  1.0000
  H   H13       1.0  0.8513366458801663  0.5026588367155587  0.248802764591038  1.0000
  H   H14       1.0  0.75460003006689  0.6226545500185011  0.09677211434791344  1.0000
  H   H15       1.0  0.8639208536400921  0.5309855394564791  0.7146156551721985  1.0000
  H   H16       1.0  0.03648971335066187  0.38258638148781676  0.6538570791597693  1.0000
  H   H17       1.0  0.6585464234052298  0.7972424891714016  0.528068728732217  1.0000
  H   H18       1.0  0.5857934576011661  0.7440538436372451  0.6525002861803304  1.0000
  H   H19       1.0  0.6410090799588237  0.89298356742961  0.6789830151086855  1.0000
  Zn  Zn1       1.0  0.8321358263647325  0.4454284483476722  0.48568947820479397  1.0000
  Zn  Zn2       1.0  0.000311389965971016  0.4528830812679705  0.5009266332833234  1.0000
  C   C31       1.0  0.9171001276608636  0.4460638940923263  0.7566195297869623  1.0000
  C   C32       1.0  0.915348925611766  0.4522493561670111  0.2299968895913933  1.0000
  C   C33       1.0  0.916204254993193  0.6862307375136034  0.487563407680394  1.0000
  C   C34       1.0  0.9162447411481389  0.21208095098065788  0.49905308336046095  1.0000
  O   O1        1.0  0.9793478034378358  0.45723304559428923  0.28949249367056046  1.0000
  O   O2        1.0  0.9807426099120643  0.44673711586024756  0.7086881588410512  1.0000
  O   O3        1.0  0.9800183260343108  0.6406748529517634  0.4914233586724667  1.0000
  O   O4        1.0  0.9800720295696335  0.26329531439258624  0.5067571805438511  1.0000
  O   O5        1.0  0.852375129370979  0.6350162126805101  0.47985892573698957  1.0000
  O   O6        1.0  0.8530994129899387  0.44108003481152197  0.6971236490357982  1.0000
  O   O7        1.0  0.8517046008097406  0.45157590561454714  0.27792625055475684  1.0000
  O   O8        1.0  0.8524288272974029  0.2576381659804845  0.49519104551606463  1.0000
