data_image0
_chemical_formula_structural       NC6NC3H6C6NH5C6ClH3Zn2C4O8
_chemical_formula_sum              "N3 C25 H14 Cl1 Zn2 O8"
_cell_length_a       14.934028789175542
_cell_length_b       9.274771166103582
_cell_length_c       9.276548810779733
_cell_angle_alpha    85.98017888068892
_cell_angle_beta     89.70021891901104
_cell_angle_gamma    90.55950156128424

_space_group_name_H-M_alt    "P 1"
_space_group_IT_number       1

loop_
  _space_group_symop_operation_xyz
  'x, y, z'

loop_
  _atom_site_type_symbol
  _atom_site_label
  _atom_site_symmetry_multiplicity
  _atom_site_fract_x
  _atom_site_fract_y
  _atom_site_fract_z
  _atom_site_occupancy
  N   N1        1.0  0.8580559330727138  0.5632497730263821  0.4071628370989353  1.0000
  C   C1        1.0  0.7805647312850758  0.5621451770144092  0.40648627183384956  1.0000
  C   C2        1.0  0.6841617466918261  0.5607659825821942  0.40564170652066034  1.0000
  C   C3        1.0  0.6369016330407383  0.6681775893953124  0.4713100529561069  1.0000
  C   C4        1.0  0.5433847281236163  0.6670702016000651  0.47063289913723944  1.0000
  C   C5        1.0  0.4962156436395987  0.5586060239364499  0.40432111171155305  1.0000
  C   C6        1.0  0.3995807585978527  0.5609332442115071  0.4057451921136064  1.0000
  N   N2        1.0  0.322109274944503  0.5627801899047915  0.4068757076763613  1.0000
  C   C7        1.0  0.5434632369126285  0.4497083959713668  0.33774370336679715  1.0000
  C   C8        1.0  0.494595366802498  0.3317853000052893  0.2656502367832656  1.0000
  C   C9        1.0  0.6376164960056102  0.4519457658838031  0.3391116186316412  1.0000
  H   H1        1.0  0.6723417905324237  0.7528079774724539  0.5230512077381406  1.0000
  H   H2        1.0  0.507741891965681  0.7510488116608687  0.5219754323624963  1.0000
  H   H3        1.0  0.4524226324685074  0.38005728727287313  0.1769871488478787  1.0000
  H   H4        1.0  0.45120933251743156  0.2696571008844928  0.3458486668716571  1.0000
  H   H5        1.0  0.5416969314985802  0.25540474553237646  0.21894695811399  1.0000
  H   H6        1.0  0.6747576171113362  0.36908432427654697  0.28845237935336127  1.0000
  C   C10       1.0  0.08733554424960595  0.1394283726564427  0.4078063721242795  1.0000
  C   C11       1.0  0.06710733461892099  0.2215807652680517  0.2789612685365821  1.0000
  C   C12       1.0  0.05524180322279104  0.1553590916121772  0.1492934445277856  1.0000
  C   C13       1.0  0.06365417068570788  0.005598924096446248  0.14753144401638707  1.0000
  C   C14       1.0  0.08223175370232737  0.9221126075687887  0.27460744202580556  1.0000
  C   C15       1.0  0.09283817214702636  0.9865906113478241  0.4062446616404889  1.0000
  N   N3        1.0  0.03556788057622229  0.24059748725758645  0.019031778042615688  1.0000
  H   H7        1.0  0.18718664102475002  0.221867705732014  0.7230988265161107  1.0000
  H   H8        1.0  0.05494864429998979  0.9532093152308384  0.04776487341966762  1.0000
  H   H9        1.0  0.15645636561297405  0.6914193822459068  0.6207578360899121  1.0000
  H   H10       1.0  0.029398616819043193  0.35267720407538095  0.01898879395262476  1.0000
  H   H11       1.0  0.026939723448637688  0.19224664981184073  0.9216348622705318  1.0000
  C   C16       1.0  0.09132386740719033  0.5591437605681857  0.9838824912241395  1.0000
  C   C17       1.0  0.1667923930282686  0.6139000600832463  0.0528414015821863  1.0000
  C   C18       1.0  0.23730860369564388  0.6794123435192012  0.97244465633836  1.0000
  C   C19       1.0  0.23341471265751979  0.6912711614643325  0.821985733151104  1.0000
  C   C20       1.0  0.1598906779121944  0.6355010781159088  0.7513783744517436  1.0000
  C   C21       1.0  0.08884981240054057  0.566875127532845  0.8301685424126426  1.0000
  Cl  Cl1       1.0  0.330202129712336  0.7487736975308803  0.06076388068187  1.0000
  H   H12       1.0  0.9816316483420489  0.39780154857782635  0.2772494958900815  1.0000
  H   H13       1.0  0.2878110469141595  0.7425301742448271  0.7593684276880999  1.0000
  H   H14       1.0  0.9446694743441345  0.5141369620105696  0.553758939346097  1.0000
  Zn  Zn1       1.0  0.9919716675324375  0.5631104721021414  0.40708829958425463  1.0000
  Zn  Zn2       1.0  0.188193459362761  0.5629077826772384  0.40696204772317635  1.0000
  C   C22       1.0  0.08927815672763656  0.5596673750573098  0.670212927304084  1.0000
  C   C23       1.0  0.09088912431161167  0.5663526988163499  0.14383755669826015  1.0000
  C   C24       1.0  0.09181022479219814  0.8264064312450206  0.4007977905435749  1.0000
  C   C25       1.0  0.0883569778090558  0.2996119103707793  0.41325277351952217  1.0000
  O   O1        1.0  0.16520832706359734  0.5686888718246486  0.19747203755665074  1.0000
  O   O2        1.0  0.16388674785618024  0.557176273497693  0.6164822114143627  1.0000
  O   O3        1.0  0.1659304166347577  0.7725714494699774  0.3989275802043941  1.0000
  O   O4        1.0  0.16316459171068412  0.35329370525315373  0.4150265607498589  1.0000
  O   O5        1.0  0.017000468223679732  0.7727245495968946  0.399023786593073  1.0000
  O   O6        1.0  0.014956810922261747  0.5573311059531392  0.6165783377777904  1.0000
  O   O7        1.0  0.016278394927329066  0.5688436381872097  0.19756643158050968  1.0000
  O   O8        1.0  0.01423465918791677  0.35344846228559446  0.4151210628259796  1.0000
