data_image0
_chemical_formula_structural       NC8NC6H8C6FH5C6BrH5Zn2C4O8
_chemical_formula_sum              "N2 C30 H18 F1 Br1 Zn2 O8"
_cell_length_a       17.457602349358154
_cell_length_b       9.275642734913903
_cell_length_c       10.302972455390005
_cell_angle_alpha    85.47816218969515
_cell_angle_beta     92.87591776842113
_cell_angle_gamma    92.2944494432906

_space_group_name_H-M_alt    "P 1"
_space_group_IT_number       1

loop_
  _space_group_symop_operation_xyz
  'x, y, z'

loop_
  _atom_site_type_symbol
  _atom_site_label
  _atom_site_symmetry_multiplicity
  _atom_site_fract_x
  _atom_site_fract_y
  _atom_site_fract_z
  _atom_site_occupancy
  N   N1        1.0  0.7314653653486319  0.6139310013344805  0.625591819453641  1.0000
  C   C1        1.0  0.6701016545983713  0.5629134547003583  0.6150228361474159  1.0000
  C   C2        1.0  0.5937626509512698  0.49945397467650077  0.601884554343066  1.0000
  C   C3        1.0  0.535483941250227  0.5440689458097085  0.6767196851043622  1.0000
  C   C4        1.0  0.4605962016254385  0.48296260774027294  0.6641936442489624  1.0000
  C   C5        1.0  0.3987405542698493  0.5300694457913103  0.7434470063919496  1.0000
  C   C6        1.0  0.3243088090642334  0.5505858228922833  0.6876845292491898  1.0000
  C   C7        1.0  0.2660289520226033  0.5949964739730895  0.7626277511843178  1.0000
  C   C8        1.0  0.1901628213519266  0.6161858885537126  0.7046499744967364  1.0000
  N   N2        1.0  0.12917932910133084  0.6332150907750702  0.6580359990437399  1.0000
  C   C9        1.0  0.2816901905071609  0.6191608486419091  0.8938415709994211  1.0000
  C   C10       1.0  0.3553396522623775  0.5990765895678287  0.9499911520362421  1.0000
  C   C11       1.0  0.4136090248345862  0.5548659568002214  0.8755053307191867  1.0000
  C   C12       1.0  0.4452716020810881  0.37648876775975726  0.5754006639695133  1.0000
  C   C13       1.0  0.5035403277954728  0.3321833767246035  0.500965142050338  1.0000
  C   C14       1.0  0.5776440010767783  0.39341454971146245  0.5140408452615235  1.0000
  H   H1        1.0  0.5482958949614727  0.6276009448480766  0.7432575992590693  1.0000
  H   H2        1.0  0.3118706456408078  0.5339558311279377  0.5857078415591197  1.0000
  H   H3        1.0  0.23702139589533128  0.6534678731310746  0.9526288999000264  1.0000
  H   H4        1.0  0.36727379742529015  0.6174369617590707  0.051593236090557215  1.0000
  H   H5        1.0  0.47000135357395073  0.5382116895310076  0.9216106674363613  1.0000
  H   H6        1.0  0.38850483865737323  0.32612627392559923  0.5647950205841621  1.0000
  H   H7        1.0  0.4912491311535098  0.2498916394745339  0.4332282514341377  1.0000
  H   H8        1.0  0.6223074278001528  0.35814139074577067  0.4557652912315482  1.0000
  C   C15       1.0  0.9279528658271803  0.19991417262479882  0.6421788461613126  1.0000
  C   C16       1.0  0.9130986166235429  0.2825067802346977  0.5236833720040692  1.0000
  C   C17       1.0  0.9054833965291947  0.21686051090432912  0.4061789214853646  1.0000
  C   C18       1.0  0.9126650247240413  0.06791796603483348  0.40509954502390033  1.0000
  C   C19       1.0  0.9261322503086722  0.9836686171655508  0.5216657509128018  1.0000
  C   C20       1.0  0.9326991174446628  0.04722113750678214  0.6414607913387855  1.0000
  F   F1        1.0  0.8920129405665951  0.298306823969573  0.29278263264432147  1.0000
  H   H9        1.0  0.0072547352905685215  0.2829051265074223  0.9386349530590632  1.0000
  H   H10       1.0  0.9091802376443411  0.3989421677340666  0.5217021904940817  1.0000
  H   H11       1.0  0.9070617187281239  0.01718493010946265  0.31384508510631237  1.0000
  H   H12       1.0  0.9295979142135634  0.8676767324535961  0.5183804013055595  1.0000
  H   H13       1.0  0.983024828991901  0.7522370576997062  0.8424546995936701  1.0000
  C   C21       1.0  0.9303259589248808  0.6235676453473371  0.2605772735481733  1.0000
  C   C22       1.0  0.9518827333431517  0.4786826572448009  0.27147726300879316  1.0000
  C   C23       1.0  0.9625760992897154  0.4068118826099599  0.15994641449504265  1.0000
  C   C24       1.0  0.9518828623720619  0.4786826072066761  0.0363948830066665  1.0000
  C   C25       1.0  0.9303259952560113  0.623567651056002  0.023062358581291242  1.0000
  C   C26       1.0  0.9196516666890794  0.6953104583353076  0.13582020614200307  1.0000
  Br  Br1       1.0  0.9918968682907242  0.20974324774906147  0.1764266580571383  1.0000
  H   H14       1.0  0.9222125019372553  0.6781012636508745  0.583776189619682  1.0000
  H   H15       1.0  0.9604639763023468  0.4210065892181747  0.36629981312675164  1.0000
  H   H16       1.0  0.9604642798127282  0.4210066522521869  0.9512189351937361  1.0000
  H   H17       1.0  0.9030262160804204  0.807051315055564  0.12647565637304736  1.0000
  H   H18       1.0  0.9222114203575184  0.6781006696435334  0.6907424781079827  1.0000
  Zn  Zn1       1.0  0.8462370025540961  0.6194921040875827  0.6349620081131421  1.0000
  Zn  Zn2       1.0  0.0144076113883167  0.6276421594624175  0.6486764494127033  1.0000
  C   C27       1.0  0.9302920902774312  0.6178201914879633  0.878941098370136  1.0000
  C   C28       1.0  0.930354370279463  0.6293159813869971  0.40469763479858656  1.0000
  C   C29       1.0  0.9317980102063658  0.8870618961849001  0.6364227525351129  1.0000
  C   C30       1.0  0.9288483832563482  0.3600725405840134  0.6472160466384014  1.0000
  O   O1        1.0  0.99418373975743  0.634331784996788  0.4582703089235374  1.0000
  O   O2        1.0  0.994100315605075  0.6189890029639893  0.8357769950611357  1.0000
  O   O3        1.0  0.9953155046703628  0.8364050428390771  0.6399416435096238  1.0000
  O   O4        1.0  0.9929684933647096  0.41691575266105285  0.6541055584440898  1.0000
  O   O5        1.0  0.8676760631893368  0.8302185081093045  0.6295328943948593  1.0000
  O   O6        1.0  0.866460883829863  0.6128042015606201  0.8253681752546836  1.0000
  O   O7        1.0  0.8665443077515458  0.6281469333214319  0.4478599282805163  1.0000
  O   O8        1.0  0.8653290612978914  0.4107308906667005  0.6436952751451328  1.0000
