data_image0
_chemical_formula_structural       NC12NC2H8C6NCOC6H11C7OC3NC3H11Zn2C4O8
_chemical_formula_sum              "N4 C44 H30 O10 Zn2"
_cell_length_a       19.240039667572717
_cell_length_b       10.29965916528486
_cell_length_c       10.298749378158432
_cell_angle_alpha    85.57464278776025
_cell_angle_beta     90.00886307587598
_cell_angle_gamma    90.0154664442568

_space_group_name_H-M_alt    "P 1"
_space_group_IT_number       1

loop_
  _space_group_symop_operation_xyz
  'x, y, z'

loop_
  _atom_site_type_symbol
  _atom_site_label
  _atom_site_symmetry_multiplicity
  _atom_site_fract_x
  _atom_site_fract_y
  _atom_site_fract_z
  _atom_site_occupancy
  N   N1        1.0  0.6545639285777843  0.4213606578590334  0.5678366818786635  1.0000
  C   C1        1.0  0.5944155597658569  0.42136074184518546  0.5678365999647661  1.0000
  C   C2        1.0  0.5195975226302765  0.42136085913961974  0.5678364626903529  1.0000
  C   C3        1.0  0.4831230541848559  0.3568884249470309  0.6712341347300395  1.0000
  C   C4        1.0  0.41045229722438153  0.3567775389789513  0.6713206446508044  1.0000
  C   C5        1.0  0.3732652876874713  0.4213609517216108  0.5678362350226187  1.0000
  C   C6        1.0  0.410453956580909  0.48594455143027776  0.4643520200181251  1.0000
  C   C7        1.0  0.48312463616026324  0.4858334299578275  0.46443865236562054  1.0000
  C   C8        1.0  0.29606019722857424  0.4213608730701319  0.5678361395709641  1.0000
  C   C9        1.0  0.2588594852706003  0.3080991395658066  0.6096697497600136  1.0000
  C   C10       1.0  0.186188804775156  0.308206045000035  0.6095784550254453  1.0000
  C   C11       1.0  0.14972791029175095  0.42136074389507355  0.5678362004400127  1.0000
  C   C12       1.0  0.0749098731409485  0.4213606301340293  0.5678364490808059  1.0000
  N   N2        1.0  0.014761556300206504  0.42136058929401177  0.5678366575029365  1.0000
  C   C13       1.0  0.186214526671539  0.5345155186204407  0.5260938929866001  1.0000
  C   C14       1.0  0.2588852307906798  0.534622604185143  0.5260024357084714  1.0000
  H   H1        1.0  0.5108373920220423  0.3069724075064817  0.7519642511589493  1.0000
  H   H2        1.0  0.3833586700511228  0.3076594954631626  0.7531666474768526  1.0000
  H   H3        1.0  0.383361052965739  0.5350626220021368  0.38250596634910106  1.0000
  H   H4        1.0  0.510840069794504  0.535749347115076  0.38370881171922466  1.0000
  H   H5        1.0  0.2859424548431747  0.21894314530938638  0.6408079812420917  1.0000
  H   H6        1.0  0.1584638726820898  0.21994912427180074  0.6417500622219265  1.0000
  H   H7        1.0  0.1585096353144737  0.6227724148111511  0.493922300332966  1.0000
  H   H8        1.0  0.28598874004305186  0.6237786776201479  0.49486415947952445  1.0000
  C   C15       1.0  0.8346049351870279  0.0399999566989131  0.5677211662449502  1.0000
  C   C16       1.0  0.8350659262540712  0.049291856354925154  0.4308956478499826  1.0000
  C   C17       1.0  0.8363230460677978  0.9371368066629385  0.36205525989750575  1.0000
  C   C18       1.0  0.8351969028642545  0.8141015398032685  0.4311920527650946  1.0000
  C   C19       1.0  0.8347272114877415  0.8027112860933675  0.5679633437830096  1.0000
  C   C20       1.0  0.834678447823219  0.9162684167558895  0.6354559085158462  1.0000
  N   N3        1.0  0.8357266090686257  0.9502208180522005  0.2219793771801968  1.0000
  C   C21       1.0  0.868299209766581  0.8590983360921808  0.14224771103367373  1.0000
  O   O1        1.0  0.9162493897337661  0.7862759108461934  0.18922901410770687  1.0000
  C   C22       1.0  0.8480857438757454  0.8529128395656776  0.003871859694568598  1.0000
  C   C23       1.0  0.7838142002377445  0.9027738706872417  0.9575228802550636  1.0000
  C   C24       1.0  0.7651792010847488  0.8957710031094372  0.8269911824814979  1.0000
  C   C25       1.0  0.8101682419147579  0.8386908941645715  0.7415286218622379  1.0000
  C   C26       1.0  0.8738278417851867  0.788042452708248  0.7865012866453993  1.0000
  C   C27       1.0  0.8927281633750808  0.7946889961379908  0.916928502546226  1.0000
  H   H9        1.0  0.8330719793389971  0.2297363056313788  0.8258179542676416  1.0000
  H   H10       1.0  0.8349814808500505  0.14390549142831688  0.3770689312353597  1.0000
  H   H11       1.0  0.8334664737559806  0.7273151908700507  0.3783830674736024  1.0000
  H   H12       1.0  0.8343323692391839  0.9082400226882352  0.7409329429205609  1.0000
  H   H13       1.0  0.833622375111825  0.47089290330635386  0.620428456522162  1.0000
  H   H14       1.0  0.8158918233772926  0.03635746202921486  0.17603578314083834  1.0000
  H   H15       1.0  0.7473987661494486  0.9454654917021296  0.022009686914870482  1.0000
  H   H16       1.0  0.7156438862429402  0.9342071341982694  0.792203049929205  1.0000
  H   H17       1.0  0.7956048050953034  0.8333417436796273  0.6405641706268055  1.0000
  H   H18       1.0  0.9085986704259047  0.7435552001822834  0.7202506394669714  1.0000
  H   H19       1.0  0.94243733908057  0.7550669244061676  0.9494977740322953  1.0000
  C   C28       1.0  0.8346340282835117  0.4213836425318964  0.18644121892792298  1.0000
  C   C29       1.0  0.872617082512371  0.538245722141703  0.17645864016196522  1.0000
  C   C30       1.0  0.8911263776207333  0.5981401473834886  0.05417233017651047  1.0000
  C   C31       1.0  0.872619852576704  0.5382945824500507  0.9412146262567513  1.0000
  C   C32       1.0  0.8346981097031763  0.4213276114657516  0.9492433108739182  1.0000
  C   C33       1.0  0.8157862124834123  0.3637949614839775  0.0722790867786216  1.0000
  C   C34       1.0  0.9317997141046322  0.7209052909908649  0.04353117426621457  1.0000
  O   O2        1.0  0.9752308382108059  0.7392476655573106  0.9521900784580977  1.0000
  C   C35       1.0  0.9232042749115192  0.8228537741241031  0.13645323677363952  1.0000
  C   C36       1.0  0.8581860453127897  0.8454272751884104  0.1931646834322982  1.0000
  C   C37       1.0  0.8504272503373294  0.9429270751191294  0.27989592101619  1.0000
  N   N4        1.0  0.7842592743414009  0.9647782163496785  0.3375750239585549  1.0000
  C   C38       1.0  0.9077904980760503  0.019176433154284737  0.30931779995756425  1.0000
  C   C39       1.0  0.9722613488556053  0.9985535387543514  0.25214763869538115  1.0000
  C   C40       1.0  0.9799801406275396  0.9013654022144331  0.16579330472414378  1.0000
  H   H20       1.0  0.7637857083650995  0.19955818373196396  0.41274347317289606  1.0000
  H   H21       1.0  0.8884967431183545  0.5820905249942121  0.2640187115450967  1.0000
  H   H22       1.0  0.8872849695496925  0.5838155014870472  0.8468227667495745  1.0000
  H   H23       1.0  0.7865114402656165  0.2737129928745192  0.07922206272986987  1.0000
  H   H24       1.0  0.7632966561363589  0.20008112804312603  0.7571291350868067  1.0000
  H   H25       1.0  0.8133322179518858  0.7884213609804214  0.16910359065089087  1.0000
  H   H26       1.0  0.7411524898705489  0.9085074618034705  0.31632915770568215  1.0000
  H   H27       1.0  0.7779028273013201  0.03729494033793034  0.40208577644966836  1.0000
  H   H28       1.0  0.9024620482574809  0.09478904484481052  0.376074877434611  1.0000
  H   H29       1.0  0.01637307554530043  0.05801921283896583  0.2748028687108752  1.0000
  H   H30       1.0  0.03046967510254617  0.8867210361544249  0.12278818379620282  1.0000
  Zn  Zn1       1.0  0.7585091924864074  0.4213571703955397  0.5678441628001563  1.0000
  Zn  Zn2       1.0  0.9108163103549586  0.42135348272796835  0.5678397730103855  1.0000
  C   C41       1.0  0.8346836319200301  0.41616465488273646  0.8050557414847432  1.0000
  C   C42       1.0  0.8346435343837575  0.42654763677531493  0.3306283222753892  1.0000
  C   C43       1.0  0.8347000952442791  0.6585430177098106  0.5627419780697425  1.0000
  C   C44       1.0  0.8346270188433921  0.18416771367555376  0.5729421544408846  1.0000
  O   O3        1.0  0.8924464812853559  0.42827365534747086  0.37901716362278376  1.0000
  O   O4        1.0  0.8924782631453508  0.4144348577823418  0.756663194199845  1.0000
  O   O5        1.0  0.8924907784329984  0.6101584509776752  0.5609931162834108  1.0000
  O   O6        1.0  0.8924339140189123  0.23255007145056752  0.5746871441607939  1.0000
  O   O7        1.0  0.7768915368475092  0.6101605816756133  0.560996791644415  1.0000
  O   O8        1.0  0.7768790218010335  0.41443854875563896  0.7566668008050212  1.0000
  O   O9        1.0  0.7768472398487867  0.4282773011804331  0.37901920868134287  1.0000
  O   O10       1.0  0.7768346725861942  0.2325537079877724  0.5746892865924449  1.0000
