data_image0
_chemical_formula_structural       NC12NC2H8C9NC2H9C6NCSNH6Zn2C4O8
_chemical_formula_sum              "N5 C36 H23 S1 Zn2 O8"
_cell_length_a       17.80743265337812
_cell_length_b       9.273595471060368
_cell_length_c       9.275081717742442
_cell_angle_alpha    86.22273314914035
_cell_angle_beta     91.71745222805816
_cell_angle_gamma    88.84631592348521

_space_group_name_H-M_alt    "P 1"
_space_group_IT_number       1

loop_
  _space_group_symop_operation_xyz
  'x, y, z'

loop_
  _atom_site_type_symbol
  _atom_site_label
  _atom_site_symmetry_multiplicity
  _atom_site_fract_x
  _atom_site_fract_y
  _atom_site_fract_z
  _atom_site_occupancy
  N   N1        1.0  0.6966687053533593  0.5469504436041779  0.449873224439606  1.0000
  C   C1        1.0  0.6455549037688033  0.5790214712562298  0.37367781773805353  1.0000
  C   C2        1.0  0.5819643474898306  0.6189155422315439  0.27890032579472734  1.0000
  C   C3        1.0  0.5931518951547694  0.6775156635062674  0.1384626743638957  1.0000
  C   C4        1.0  0.5314817461803591  0.71576618995644  0.04634193644887086  1.0000
  C   C5        1.0  0.4584670437401868  0.6957019249581939  0.09392690702810413  1.0000
  C   C6        1.0  0.44630423673111425  0.6369750296914698  0.234883906612807  1.0000
  C   C7        1.0  0.5088316539485851  0.5987279346086909  0.3269863254225971  1.0000
  C   C8        1.0  0.3687328778053254  0.6157049468158249  0.28564146617712516  1.0000
  C   C9        1.0  0.3500060258789245  0.6473082107988586  0.42666844291630124  1.0000
  C   C10       1.0  0.2769612013945684  0.6272905713931595  0.47429848865865054  1.0000
  C   C11       1.0  0.2217032186724217  0.5753965213972809  0.38183112286141774  1.0000
  C   C12       1.0  0.1465274934731524  0.554780358507159  0.43101504286265335  1.0000
  N   N2        1.0  0.08609153460698551  0.5382063493229228  0.47055553097596386  1.0000
  C   C13       1.0  0.23974051974414098  0.5436116548548873  0.24140646057869586  1.0000
  C   C14       1.0  0.312731957862555  0.5636428832763551  0.19349246582900603  1.0000
  H   H1        1.0  0.6494700075337896  0.693599425562661  0.1002677997218111  1.0000
  H   H2        1.0  0.5402607933602395  0.7614416128505148  0.9378928994555741  1.0000
  H   H3        1.0  0.4115383286275647  0.7278924596956653  0.021180653560575854  1.0000
  H   H4        1.0  0.5007589878490429  0.5515124392206014  0.43529524430599076  1.0000
  H   H5        1.0  0.391575698116229  0.689330224825766  0.49949224778415663  1.0000
  H   H6        1.0  0.2635582605411553  0.652640253563185  0.583095585030251  1.0000
  H   H7        1.0  0.1974471705751339  0.5030018133680711  0.16904277483123953  1.0000
  H   H8        1.0  0.3256161349787575  0.5365909921162538  0.08502976276406682  1.0000
  C   C15       1.0  0.8936427951077913  0.1189834707711419  0.4596765090940765  1.0000
  C   C16       1.0  0.8850963387798956  0.20151767026314804  0.327499331468988  1.0000
  C   C17       1.0  0.8699418203015367  0.13587566412861785  0.1991048817764236  1.0000
  C   C18       1.0  0.8629512187327957  0.9855711462910828  0.1993139229076668  1.0000
  C   C19       1.0  0.8726510088398828  0.9018339951634273  0.330591651002782  1.0000
  C   C20       1.0  0.8891246913842937  0.9661621824612512  0.46076501940289133  1.0000
  C   C21       1.0  0.8463071310351631  0.9160497326810705  0.06249339464736448  1.0000
  C   C22       1.0  0.883000678659687  0.7862009066281589  0.032736612290880984  1.0000
  C   C23       1.0  0.8664827417958764  0.7228302701547805  0.9033208614413885  1.0000
  N   N3        1.0  0.8151531115195871  0.7863595911137127  0.8066295912464745  1.0000
  C   C24       1.0  0.7787234276547437  0.9118611050147685  0.8321346211372846  1.0000
  C   C25       1.0  0.7935750669836316  0.978989045447253  0.9601025068044717  1.0000
  H   H9        1.0  0.9463313745233233  0.38364736103187846  0.6786494190214882  1.0000
  H   H10       1.0  0.8885497612642549  0.31819867840890054  0.32369813039494666  1.0000
  H   H11       1.0  0.8639443026032066  0.20300492341060633  0.09921889024801911  1.0000
  H   H12       1.0  0.8680194648380147  0.7854534780664495  0.33137572887074174  1.0000
  H   H13       1.0  0.9717927615006653  0.8386694689888974  0.7830244668494892  1.0000
  H   H14       1.0  0.9247618304603484  0.7352175623177241  0.1077603552377353  1.0000
  H   H15       1.0  0.8946921922569194  0.6231320703861297  0.879588789730437  1.0000
  H   H16       1.0  0.738020409261818  0.9595123681887372  0.7531180237353796  1.0000
  H   H17       1.0  0.7634331494302762  0.07803936774765362  0.9795966541027864  1.0000
  C   C26       1.0  0.8907264543949113  0.5383621049793733  0.03699036409236345  1.0000
  C   C27       1.0  0.8233935671794982  0.5713089295698341  0.10416675285081256  1.0000
  C   C28       1.0  0.7592896402107345  0.6172941927129294  0.022493041403120365  1.0000
  C   C29       1.0  0.7612052810955678  0.6330888256259722  0.8713686530061951  1.0000
  C   C30       1.0  0.8271905996549462  0.5956490878401767  0.8030059989876976  1.0000
  C   C31       1.0  0.8920410646109077  0.54678361261479  0.8834512112565358  1.0000
  N   N4        1.0  0.6954659323843905  0.6783981510203274  0.7851602115141345  1.0000
  C   C32       1.0  0.6388417442681994  0.7767343691158499  0.8301682687366467  1.0000
  S   S1        1.0  0.5543439225593492  0.7760332509070704  0.7557093887484112  1.0000
  N   N5        1.0  0.6572492187623383  0.8860574103998277  0.9263110175116074  1.0000
  H   H18       1.0  0.9960531912510038  0.408394881977143  0.3328392617621352  1.0000
  H   H19       1.0  0.7081051299965424  0.6401588685189115  0.0775971208852757  1.0000
  H   H20       1.0  0.8273518432319872  0.6026605357108108  0.6859147457106998  1.0000
  H   H21       1.0  0.688729827633416  0.6382621801724389  0.682952854031198  1.0000
  H   H22       1.0  0.7127629171882602  0.9014415208063145  0.9601357064444627  1.0000
  H   H23       1.0  0.6157263801762999  0.9569408111328062  0.9589470594254671  1.0000
  Zn  Zn1       1.0  0.8090477586611955  0.5444233183565645  0.45584999514125607  1.0000
  Zn  Zn2       1.0  0.9737125598138802  0.5407218251394532  0.4645905009680024  1.0000
  C   C33       1.0  0.8918215374911673  0.539445256724151  0.7234444859776921  1.0000
  C   C34       1.0  0.8909405696316143  0.5457016678101707  0.19699624937415106  1.0000
  C   C35       1.0  0.8899659413333605  0.8059703432967746  0.4548158414416377  1.0000
  C   C36       1.0  0.8927961189627465  0.2791748502023892  0.4656249655396081  1.0000
  O   O1        1.0  0.9535018961021133  0.5467539016938341  0.254012654470416  1.0000
  O   O2        1.0  0.9542369901705432  0.5355825828082298  0.6730615062824157  1.0000
  O   O3        1.0  0.9527377327458614  0.7508049947310831  0.4561419324394018  1.0000
  O   O4        1.0  0.9550010971149934  0.331531500277781  0.4709321172810117  1.0000
  O   O5        1.0  0.827759165168047  0.7536136444828699  0.4495083758379621  1.0000
  O   O6        1.0  0.8292584132273684  0.5383929648598074  0.6664278750612893  1.0000
  O   O7        1.0  0.8285233167858708  0.5495642162378862  0.24737729039734058  1.0000
  O   O8        1.0  0.8300225180185173  0.33434180557966653  0.46429686125007086  1.0000
