data_image0
_chemical_formula_structural       NC8NH4C10H6C9H6Zn2C4O8
_chemical_formula_sum              "N2 C31 H16 Zn2 O8"
_cell_length_a       11.048855714531884
_cell_length_b       9.275150299802176
_cell_length_c       9.275153671780862
_cell_angle_alpha    85.37735250896073
_cell_angle_beta     89.40940558656271
_cell_angle_gamma    89.4838956589931

_space_group_name_H-M_alt    "P 1"
_space_group_IT_number       1

loop_
  _space_group_symop_operation_xyz
  'x, y, z'

loop_
  _atom_site_type_symbol
  _atom_site_label
  _atom_site_symmetry_multiplicity
  _atom_site_fract_x
  _atom_site_fract_y
  _atom_site_fract_z
  _atom_site_occupancy
  N   N1        1.0  0.14161107953005714  0.5749704297054214  0.400568333733752  1.0000
  C   C1        1.0  0.08827260963421968  0.5167744524191289  0.3158804307631937  1.0000
  C   C2        1.0  0.02172266574886828  0.4441624632686023  0.21021383052901177  1.0000
  C   C3        1.0  0.8940059109121323  0.44416227285512977  0.2102139333677604  1.0000
  C   C4        1.0  0.8326821493498525  0.37238208169130504  0.10575807667140902  1.0000
  C   C5        1.0  0.8975429747805609  0.3011696720949082  0.002128385386004574  1.0000
  C   C6        1.0  0.02394918783126942  0.30116956197097133  0.0021284086825268415  1.0000
  C   C7        1.0  0.08593968766700091  0.37238218010763147  0.10575804838734038  1.0000
  C   C8        1.0  0.8245291881066957  0.5167745273578392  0.3158804172010985  1.0000
  N   N2        1.0  0.7688449650986254  0.5749704724728764  0.40056836229281845  1.0000
  H   H1        1.0  0.7346380292562462  0.3714832254221039  0.10444939610464332  1.0000
  H   H2        1.0  0.8497582837767365  0.24593566587927326  0.9217514002247725  1.0000
  H   H3        1.0  0.07396032418659317  0.24593577535765407  0.9217513989950196  1.0000
  H   H4        1.0  0.18402003900051445  0.37148317705476996  0.10444967159584051  1.0000
  C   C9        1.0  0.45840631611879457  0.15127106607413543  0.4029822833213849  1.0000
  C   C10       1.0  0.5230002867455905  0.23304450734971652  0.2938937237092276  1.0000
  C   C11       1.0  0.5772627113908044  0.16660216703988961  0.17926142534686385  1.0000
  C   C12       1.0  0.5674844982157867  0.01741672333499421  0.1722411703962401  1.0000
  C   C13       1.0  0.5055384700643333  0.9341977862586761  0.28068168858636855  1.0000
  C   C14       1.0  0.4520612817023869  0.9986587007794123  0.3981669445867029  1.0000
  C   C15       1.0  0.641893008390936  0.2521113750758954  0.06767866679887646  1.0000
  C   C16       1.0  0.6960048576279552  0.3237277482170491  0.974260640931028  1.0000
  C   C17       1.0  0.759367324300179  0.4075954732937719  0.8648722068008801  1.0000
  C   C18       1.0  0.8134687409805705  0.47920641002293074  0.7714720885119557  1.0000
  H   H5        1.0  0.3990302266679  0.41417967042398196  0.6319549916348433  1.0000
  H   H6        1.0  0.5287961164554098  0.3494985611672088  0.29612127300357516  1.0000
  H   H7        1.0  0.608824820345821  0.9650450231979527  0.08353985640241324  1.0000
  H   H8        1.0  0.501891067240833  0.8181818261469921  0.27445641438854484  1.0000
  H   H9        1.0  0.3704464862030865  0.8690628776425169  0.7407595228524442  1.0000
  H   H10       1.0  0.8609742972091667  0.5420868921912576  0.6894590702961159  1.0000
  C   C19       1.0  0.4589050866322518  0.5738805335730723  0.9771511497849508  1.0000
  C   C20       1.0  0.48977225330458307  0.7013932024004264  0.04017025562443543  1.0000
  C   C21       1.0  0.5093211050579141  0.8302639493106613  0.9544455458308785  1.0000
  C   C22       1.0  0.4981167255014147  0.8332271437054404  0.8044881870680598  1.0000
  C   C23       1.0  0.46957625133010433  0.707323791750855  0.7398415334173474  1.0000
  C   C24       1.0  0.45156258235150815  0.5760492388536298  0.8239981025987113  1.0000
  C   C25       1.0  0.5395303849023652  0.9601501045482956  0.020816525432806324  1.0000
  C   C26       1.0  0.5648245515691053  0.06889293814388876  0.07641027531811972  1.0000
  C   C27       1.0  0.6197320365497827  0.30494804957679644  0.19710738250099036  1.0000
  H   H11       1.0  0.4662499239787581  0.3349062955619737  0.27704559535061457  1.0000
  H   H12       1.0  0.4958767435353153  0.7014662534476386  0.15678523305920944  1.0000
  H   H13       1.0  0.5126306146276367  0.9327023209745964  0.737216238907465  1.0000
  H   H14       1.0  0.4643959052575214  0.7118413360500655  0.6229841851478479  1.0000
  H   H15       1.0  0.46939065906664157  0.2212104789926204  0.7495156795815081  1.0000
  H   H16       1.0  0.6419380880812309  0.40041491707998  0.24592133799145133  1.0000
  Zn  Zn1       1.0  0.3226172010873216  0.57496659261307  0.4005766876307635  1.0000
  Zn  Zn2       1.0  0.5878388569644855  0.5749625056614693  0.40057187611281964  1.0000
  C   C28       1.0  0.4529907827669571  0.5698913877369662  0.6639585340559059  1.0000
  C   C29       1.0  0.4574681566386388  0.5800395313553384  0.13719016081251745  1.0000
  C   C30       1.0  0.4533042481809991  0.8384697070783398  0.3933312904928161  1.0000
  C   C31       1.0  0.4571546130363322  0.3114594787221512  0.4078174911016914  1.0000
  O   O1        1.0  0.557636193129663  0.5820987016807655  0.19089892471143544  1.0000
  O   O2        1.0  0.5541198580243076  0.5678280259789892  0.6102457094404858  1.0000
  O   O3        1.0  0.5543716154976166  0.784708419344091  0.3917122870300327  1.0000
  O   O4        1.0  0.5573843460142681  0.36521831836158936  0.4094322389524516  1.0000
  O   O5        1.0  0.35307162153045885  0.7847107799158966  0.39171632478518004  1.0000
  O   O6        1.0  0.35281985173833375  0.5678321198455543  0.6102496604635981  1.0000
  O   O7        1.0  0.3563362023315704  0.5821027408285282  0.19090114243984235  1.0000
  O   O8        1.0  0.3560843543511809  0.36522234746637183  0.40943456484434426  1.0000
