data_image0
_chemical_formula_structural       NC9NC3NH7C7NC2NH8C7F3H5Zn2C4O8
_chemical_formula_sum              "N5 C32 H20 F3 Zn2 O8"
_cell_length_a       16.053384444249904
_cell_length_b       9.273995741505848
_cell_length_c       9.272721663655245
_cell_angle_alpha    86.0144275597797
_cell_angle_beta     90.31938989593549
_cell_angle_gamma    89.75855226915094

_space_group_name_H-M_alt    "P 1"
_space_group_IT_number       1

loop_
  _space_group_symop_operation_xyz
  'x, y, z'

loop_
  _atom_site_type_symbol
  _atom_site_label
  _atom_site_symmetry_multiplicity
  _atom_site_fract_x
  _atom_site_fract_y
  _atom_site_fract_z
  _atom_site_occupancy
  N   N1        1.0  0.7852959337905243  0.5501951965920933  0.41006551753775794  1.0000
  C   C1        1.0  0.7339732383557405  0.5266386572197249  0.32690603616948  1.0000
  C   C2        1.0  0.6701933954784368  0.49736952135453727  0.22360167275480472  1.0000
  C   C3        1.0  0.6829780076827471  0.48317549898427886  0.0784175257383426  1.0000
  C   C4        1.0  0.6058869072532636  0.45474150092972543  0.020331443519600485  1.0000
  C   C5        1.0  0.5493646987925886  0.45317013574991916  0.13321041631388542  1.0000
  C   C6        1.0  0.4584973500458435  0.42665993916496125  0.12176798460635485  1.0000
  C   C7        1.0  0.403422192546536  0.47464695015215885  0.22614894874190217  1.0000
  C   C8        1.0  0.3176692737458413  0.44950392218107055  0.21518987808793844  1.0000
  C   C9        1.0  0.2618391349346162  0.4994424658959517  0.3222091356080763  1.0000
  N   N2        1.0  0.21696823835446616  0.5395860038854701  0.4082358609187371  1.0000
  C   C10       1.0  0.2862648289385306  0.376249630229319  0.09986475712206877  1.0000
  C   C11       1.0  0.3403334372533179  0.3283966957086857  0.995719134762366  1.0000
  C   C12       1.0  0.4258770199516472  0.35335334029060544  0.006237429566429805  1.0000
  N   N3        1.0  0.5893466591078228  0.47934516728816745  0.2571312987032017  1.0000
  H   H1        1.0  0.7414714248744396  0.4924533334491578  0.02113290006404501  1.0000
  H   H2        1.0  0.5929532094865754  0.43884207922210877  0.9079601783755867  1.0000
  H   H3        1.0  0.4265431446908465  0.5333702184378457  0.31489222650672  1.0000
  H   H4        1.0  0.2200764077042321  0.3562507421788521  0.09045278389129831  1.0000
  H   H5        1.0  0.3159315422655549  0.2714948611622785  0.9067207349899373  1.0000
  H   H6        1.0  0.4663421073800856  0.31356042861517536  0.924814019028366  1.0000
  H   H7        1.0  0.5637328831079061  0.4825304350177513  0.36012684311828336  1.0000
  C   C13       1.0  0.9986394543812193  0.1214570629445102  0.4081078698474081  1.0000
  C   C14       1.0  0.012582666066425885  0.20362844865535393  0.2776445774459304  1.0000
  C   C15       1.0  0.034007381028634986  0.13729525702667142  0.1525581089951915  1.0000
  C   C16       1.0  0.042391185701955436  0.9866533149089315  0.15436068604778733  1.0000
  C   C17       1.0  0.02669266112157854  0.9032408574381888  0.28363689334547515  1.0000
  C   C18       1.0  0.003632670767402371  0.968312902041161  0.4102058670164459  1.0000
  C   C19       1.0  0.06610500036104973  0.9183310811999198  0.020262465071153146  1.0000
  N   N4        1.0  0.0684544700452463  0.9918322656084246  0.8892247718144374  1.0000
  C   C20       1.0  0.09296487785887253  0.8928401592240904  0.7984313626870964  1.0000
  C   C21       1.0  0.10525005041862025  0.7620477087438323  0.8749290163213037  1.0000
  N   N5        1.0  0.08839360309306454  0.7782329306396957  0.014421006043201286  1.0000
  H   H8        1.0  0.9321756512201328  0.38884152702488073  0.615919035573367  1.0000
  H   H9        1.0  0.008934063338145396  0.32053624264084823  0.2730092920676377  1.0000
  H   H10       1.0  0.04525129810036077  0.2046763869063488  0.05455527562259  1.0000
  H   H11       1.0  0.0295235995815113  0.7866202460078189  0.285623195972579  1.0000
  H   H12       1.0  0.0059757138297500435  0.6715525180045241  0.6499895954517108  1.0000
  H   H13       1.0  0.10157957318156474  0.9150133957706098  0.6834294618312575  1.0000
  H   H14       1.0  0.12548392244349227  0.6622022060547975  0.8320968809425078  1.0000
  H   H15       1.0  0.09336100400439862  0.698036889447129  0.09868802400712418  1.0000
  C   C22       1.0  0.9989184146466256  0.5426004528419219  0.9857172048100812  1.0000
  C   C23       1.0  0.03367344111271753  0.42378760097985446  0.06799709126556852  1.0000
  C   C24       1.0  0.07577959355499986  0.31337223517485013  0.0016399391622132801  1.0000
  C   C25       1.0  0.08056725689336885  0.31989546870588836  0.850486443373061  1.0000
  C   C26       1.0  0.04530087870454347  0.4357183290462917  0.7672329097661743  1.0000
  C   C27       1.0  0.003353728943008339  0.5471695863653436  0.8325965383828797  1.0000
  C   C28       1.0  0.11067545955239089  0.18501834544482265  0.09152038191638878  1.0000
  F   F1        1.0  0.13897370765195682  0.22623686502797422  0.2237382586646828  1.0000
  F   F2        1.0  0.17671929069069625  0.12374423710335192  0.021971283949709045  1.0000
  F   F3        1.0  0.04891146253414114  0.08273094547356163  0.11455815405180303  1.0000
  H   H16       1.0  0.9481443467188306  0.8872624404514202  0.06301104961143755  1.0000
  H   H17       1.0  0.029484164932055638  0.4187670767105928  0.18484766209145276  1.0000
  H   H18       1.0  0.11085475727776117  0.23443483864199738  0.7962382422353588  1.0000
  H   H19       1.0  0.04887286864135266  0.43609177869309085  0.6505643062026394  1.0000
  H   H20       1.0  0.8553118244550467  0.7940471142062986  0.7125417763323125  1.0000
  Zn  Zn1       1.0  0.9098672548795628  0.5471298120827921  0.4095458280447155  1.0000
  Zn  Zn2       1.0  0.09239688626226683  0.5426397045710096  0.40876730646867965  1.0000
  C   C29       1.0  0.0024796146183594376  0.5405616208281081  0.6725040048551771  1.0000
  C   C30       1.0  0.9997865312098434  0.5492096669149619  0.14580926719204637  1.0000
  C   C31       1.0  0.0026544648232917916  0.8082082686287362  0.40406327072106596  1.0000
  C   C32       1.0  0.9996116089083695  0.281561288659018  0.4142500741766071  1.0000
  O   O1        1.0  0.06934688581646409  0.5497175164669785  0.19924216532099526  1.0000
  O   O2        1.0  0.07145501819535773  0.5366447935443533  0.6184798090819594  1.0000
  O   O3        1.0  0.07159528601969778  0.7527728775568994  0.40171202470313583  1.0000
  O   O4        1.0  0.06920655520171336  0.3335894437182112  0.41600984187446244  1.0000
  O   O5        1.0  0.9330575236516814  0.756180074469373  0.4023032928970234  1.0000
  O   O6        1.0  0.9329172656354472  0.5400537224459236  0.6190710046834875  1.0000
  O   O7        1.0  0.93080912393619  0.5531263857661082  0.19983162715098968  1.0000
  O   O8        1.0  0.9306687938234145  0.33699830328734404  0.416599411787904  1.0000
