data_image0
_chemical_formula_structural       NC6NC2H4C7NH3C6H4Zn2C4O8
_chemical_formula_sum              "N3 C25 H11 Zn2 O8"
_cell_length_a       14.927258858638513
_cell_length_b       9.275154477615127
_cell_length_c       10.681121600428288
_cell_angle_alpha    85.78691594316618
_cell_angle_beta     89.99986493836577
_cell_angle_gamma    89.43371000992973

_space_group_name_H-M_alt    "P 1"
_space_group_IT_number       1

loop_
  _space_group_symop_operation_xyz
  'x, y, z'

loop_
  _atom_site_type_symbol
  _atom_site_label
  _atom_site_symmetry_multiplicity
  _atom_site_fract_x
  _atom_site_fract_y
  _atom_site_fract_z
  _atom_site_occupancy
  N   N1        1.0  0.8338807944768573  0.5778877401137191  0.6241000348778498  1.0000
  C   C1        1.0  0.7563543034842165  0.5778877116103991  0.6241000439781752  1.0000
  C   C2        1.0  0.6599217952333245  0.5778878266829568  0.6241000010606348  1.0000
  C   C3        1.0  0.613015061651794  0.5542023154524791  0.5139648754607775  1.0000
  C   C4        1.0  0.5193037501510499  0.554202341082626  0.5139647596124619  1.0000
  C   C5        1.0  0.47210573233171815  0.5778876491725001  0.6241000166324362  1.0000
  C   C6        1.0  0.3756731570892718  0.5778877642480216  0.6240999737097599  1.0000
  N   N2        1.0  0.29814666609663154  0.5778877357447011  0.6240999828100853  1.0000
  C   C7        1.0  0.5190123989216947  0.6015731604059414  0.7342351422271574  1.0000
  C   C8        1.0  0.6127237104224382  0.6015731347757942  0.7342352580754732  1.0000
  H   H1        1.0  0.648824575395546  0.5357736523055279  0.4282734268679971  1.0000
  H   H2        1.0  0.483720918671616  0.5357738497990922  0.42827342326122947  1.0000
  H   H3        1.0  0.48320295222896886  0.6200018132376566  0.8199266846792005  1.0000
  H   H4        1.0  0.6483065413019233  0.620001723366475  0.8199266903454154  1.0000
  C   C9        1.0  0.06861036965623946  0.15449843239122577  0.6226508922346894  1.0000
  C   C10       1.0  0.04402073185925959  0.23767750984497749  0.5122369480133122  1.0000
  C   C11       1.0  0.012144421811258748  0.17163907836279035  0.40767179560102945  1.0000
  C   C12       1.0  0.004332891615030251  0.021518554246870773  0.4122891060163047  1.0000
  C   C13       1.0  0.02975281778890993  0.9371318015336625  0.5201862522159395  1.0000
  C   C14       1.0  0.06342575212755011  0.0012659509190193728  0.6255599738298547  1.0000
  C   C15       1.0  0.986362952112368  0.2583999680811748  0.2959270754870722  1.0000
  N   N3        1.0  0.9656418018062863  0.32813981737635906  0.20611294366806754  1.0000
  H   H5        1.0  0.08598033446320219  0.2311695126767068  0.9300416213716141  1.0000
  H   H6        1.0  0.9793566059578606  0.969391973524421  0.3319242192058576  1.0000
  H   H7        1.0  0.07892297371522067  0.70249572061547  0.831520505724048  1.0000
  C   C16       1.0  0.06601807836682388  0.5778821605750564  0.25636018605324695  1.0000
  C   C17       1.0  0.002388757586622823  0.4976958933849929  0.19466222097518648  1.0000
  C   C18       1.0  0.0023887010890502034  0.4976959858329196  0.06378008133989854  1.0000
  C   C19       1.0  0.06601800750952894  0.5778822312507442  0.9918506219723988  1.0000
  C   C20       1.0  0.129594812122092  0.6580020480391146  0.05354777841580737  1.0000
  C   C21       1.0  0.1295948007974646  0.6580020256823703  0.1844400770020478  1.0000
  H   H8        1.0  0.9525130921337392  0.4348421073887869  0.2474831238240671  1.0000
  H   H9        1.0  0.952513073008722  0.4348421752556204  0.018979094831690132  1.0000
  H   H10       1.0  0.17947699024979574  0.7208641165461106  0.0007712393889085531  1.0000
  H   H11       1.0  0.17947694542350823  0.7208640660037967  0.22919560669967987  1.0000
  Zn  Zn1       1.0  0.9678579279655888  0.5778838755017228  0.6241072426265415  1.0000
  Zn  Zn2       1.0  0.16416961579831857  0.5778797907168647  0.6241030071960982  1.0000
  C   C22       1.0  0.06605121422539509  0.5721384616631828  0.8528074643221364  1.0000
  C   C23       1.0  0.06597846211755903  0.5836270236784222  0.39540291461689886  1.0000
  C   C24       1.0  0.06440114048795657  0.8412088457812181  0.6200197661459912  1.0000
  C   C25       1.0  0.06762847947365147  0.3145549073403745  0.6281906736087064  1.0000
  O   O1        1.0  0.14046446750069574  0.5855472120514726  0.44206529556095764  1.0000
  O   O2        1.0  0.14056124422370397  0.5702140853616482  0.8061415045566225  1.0000
  O   O3        1.0  0.13922778452692885  0.7874918234173718  0.6181637964397229  1.0000
  O   O4        1.0  0.14179786014644424  0.36826948431098466  0.630042909818594  1.0000
  O   O5        1.0  0.9902296166259086  0.7874941819105663  0.6181673399989094  1.0000
  O   O6        1.0  0.9915630657124753  0.5702181760778191  0.8061449872950104  1.0000
  O   O7        1.0  0.9914662893567566  0.5855512525251603  0.44206727250415323  1.0000
  O   O8        1.0  0.9927996820619773  0.3682735144723999  0.6300449806159167  1.0000
