data_image0
_chemical_formula_structural       NC12NC2H8C6NCH9C9H10Zn2C4O8
_chemical_formula_sum              "N3 C34 H27 Zn2 O8"
_cell_length_a       19.240039667572717
_cell_length_b       9.273386996610926
_cell_length_c       10.297187173949776
_cell_angle_alpha    85.47297527559209
_cell_angle_beta     89.97407950640248
_cell_angle_gamma    89.39858615406628

_space_group_name_H-M_alt    "P 1"
_space_group_IT_number       1

loop_
  _space_group_symop_operation_xyz
  'x, y, z'

loop_
  _atom_site_type_symbol
  _atom_site_label
  _atom_site_symmetry_multiplicity
  _atom_site_fract_x
  _atom_site_fract_y
  _atom_site_fract_z
  _atom_site_occupancy
  N   N1        1.0  0.6468378785226777  0.5786780273373509  0.5648319876468775  1.0000
  C   C1        1.0  0.5866895092533456  0.5786781206197511  0.5648319055558071  1.0000
  C   C2        1.0  0.511871471486415  0.5786782508922633  0.564831768030837  1.0000
  C   C3        1.0  0.4757349218134688  0.5070783447720325  0.6683709694297522  1.0000
  C   C4        1.0  0.4030647758155873  0.5069551803484285  0.6684577103221097  1.0000
  C   C5        1.0  0.3655392360841812  0.5786783536919703  0.5648315401490769  1.0000
  C   C6        1.0  0.40238937364195265  0.650401734778681  0.46120556425668907  1.0000
  C   C7        1.0  0.4750606655014778  0.6502783087598132  0.4612924280579711  1.0000
  C   C8        1.0  0.288334146109771  0.5786782662971441  0.5648314448398819  1.0000
  C   C9        1.0  0.2517726583478065  0.4528648503869654  0.6068946347790194  1.0000
  C   C10       1.0  0.17910139139454506  0.4529835917879086  0.606803116288982  1.0000
  C   C11       1.0  0.142001859897693  0.5786781228097587  0.564831505972559  1.0000
  C   C12       1.0  0.0671838233215611  0.5786779964868034  0.5648317548721005  1.0000
  N   N2        1.0  0.0070355066482713  0.5786779511630935  0.5648319634033585  1.0000
  C   C13       1.0  0.1778498388441699  0.7043727380600389  0.522859842631062  1.0000
  C   C14       1.0  0.2505199555201826  0.7044916795325833  0.5227681612192598  1.0000
  H   H1        1.0  0.5037106631701389  0.45164422513539687  0.7492107533846404  1.0000
  H   H2        1.0  0.3762275886252519  0.4524077741597536  0.7504119554146518  1.0000
  H   H3        1.0  0.37504002990448027  0.7049491710128664  0.3792512682607625  1.0000
  H   H4        1.0  0.502514696104367  0.7057123170518538  0.38045292012140264  1.0000
  H   H5        1.0  0.2793593888998591  0.35382818423620965  0.6382133398885093  1.0000
  H   H6        1.0  0.151874700888477  0.35494593270161423  0.6391535607710161  1.0000
  H   H7        1.0  0.14964670603680416  0.8024103698907539  0.49050941274235954  1.0000
  H   H8        1.0  0.27711970335126457  0.803528433633123  0.4914494112002945  1.0000
  C   C15       1.0  0.8290771662232643  0.15502410203923664  0.5654702742595294  1.0000
  C   C16       1.0  0.8413093226855161  0.23848364793872798  0.4480199216029852  1.0000
  C   C17       1.0  0.8469973718925422  0.17396470514414147  0.3305623097241426  1.0000
  C   C18       1.0  0.8405396053499742  0.023663630027975776  0.32755193223370815  1.0000
  C   C19       1.0  0.8295323761357766  0.9392411138196285  0.4445942884899272  1.0000
  C   C20       1.0  0.8248029312721096  0.002320786164888179  0.5642049175687234  1.0000
  N   N3        1.0  0.8456406910599811  0.9541079312316899  0.20766929188896485  1.0000
  C   C21       1.0  0.8572496894363899  0.031987102439564374  0.08090891190982408  1.0000
  H   H9        1.0  0.8432252933721262  0.4171979661358542  0.7787319987327654  1.0000
  H   H10       1.0  0.8448547073027438  0.35512932300477984  0.44642626229710625  1.0000
  H   H11       1.0  0.8557837028131949  0.2425547635223384  0.24232778166428884  1.0000
  H   H12       1.0  0.8262522831316105  0.8228397646314325  0.44254509175615087  1.0000
  H   H13       1.0  0.8503170764094374  0.8710020714261335  0.8805868605114291  1.0000
  H   H14       1.0  0.8407262706512632  0.8417411774458954  0.2103629235597433  1.0000
  H   H15       1.0  0.8141682515421947  0.11055758544777607  0.058339551452482714  1.0000
  H   H16       1.0  0.9075560474933241  0.08953887261633797  0.08111851490485367  1.0000
  H   H17       1.0  0.8590203680519175  0.9545399982705378  0.004008258131837918  1.0000
  C   C22       1.0  0.8270322038258645  0.5786203040567  0.18338450764000425  1.0000
  C   C23       1.0  0.7563969456415394  0.6182463223114161  0.17984343071195275  1.0000
  C   C24       1.0  0.7202084221797588  0.6385476574673901  0.06141282922080116  1.0000
  C   C25       1.0  0.7561231314617248  0.6183993788163656  0.9446204770953042  1.0000
  C   C26       1.0  0.8268479146970096  0.5787246301761512  0.9462906615574154  1.0000
  C   C27       1.0  0.8618405990720639  0.5590927621729421  0.06606126678677482  1.0000
  C   C28       1.0  0.6438113010498498  0.6814057331698882  0.06701507186951905  1.0000
  C   C29       1.0  0.5954452854336909  0.623378527419296  0.9668298951443642  1.0000
  C   C30       1.0  0.6153099981761333  0.7825391352731577  0.9554926954205247  1.0000
  H   H18       1.0  0.8542520391102781  0.563364220781188  0.5122863890220775  1.0000
  H   H19       1.0  0.7291279121950913  0.6335445009009515  0.26989873840594325  1.0000
  H   H20       1.0  0.7296107983742496  0.6332693503966911  0.8519911740428747  1.0000
  H   H21       1.0  0.9163370516647643  0.5285197390315872  0.06806593585075249  1.0000
  H   H22       1.0  0.9604245724520807  0.5037717409634546  0.7422300487071114  1.0000
  H   H23       1.0  0.6192561168145151  0.6951822632632607  0.16307178394868393  1.0000
  H   H24       1.0  0.6193115792393862  0.558262451457209  0.8924021556093784  1.0000
  H   H25       1.0  0.5415251812475896  0.6038578413816325  0.0019776358832293015  1.0000
  H   H26       1.0  0.6512433605474583  0.8141042451677615  0.8741791556421111  1.0000
  H   H27       1.0  0.572999321807748  0.8560412513178783  0.9840119243561  1.0000
  Zn  Zn1       1.0  0.7507831600945404  0.5786741547444905  0.564839476481281  1.0000
  Zn  Zn2       1.0  0.9030903006509223  0.5786700571534402  0.5648350933825674  1.0000
  C   C31       1.0  0.8269101848992275  0.5729575674716939  0.8020936430852112  1.0000
  C   C32       1.0  0.8269649298220795  0.5843884647034687  0.32758105150684735  1.0000
  C   C33       1.0  0.8256085372804995  0.842162983560432  0.559267762242039  1.0000
  C   C34       1.0  0.8282665341960145  0.31518131532159477  0.5704070041940017  1.0000
  O   O1        1.0  0.8847421498876921  0.5863164631539409  0.3759730749167276  1.0000
  O   O2        1.0  0.8847305659491274  0.571025370642267  0.7536979207016721  1.0000
  O   O3        1.0  0.8836786895406455  0.7884121489066958  0.55761430166957  1.0000
  O   O4        1.0  0.8857939742955308  0.3689296951978879  0.5720565965387561  1.0000
  O   O5        1.0  0.7680794344749736  0.7884145167030108  0.557617973319753  1.0000
  O   O6        1.0  0.7691313021532901  0.5710294717346858  0.7537015205025339  1.0000
  O   O7        1.0  0.7691428867689604  0.5863205137590466  0.3759751130474123  1.0000
  O   O8        1.0  0.7701947112024838  0.3689337354975854  0.5720587320741755  1.0000
