data_image0
_chemical_formula_structural       NC5NC4H6C10H6C9H8Zn2C4O8
_chemical_formula_sum              "N2 C32 H20 Zn2 O8"
_cell_length_a       13.854160002989762
_cell_length_b       9.275150299802176
_cell_length_c       9.273585224739815
_cell_angle_alpha    85.81607574140205
_cell_angle_beta     90.10207527117831
_cell_angle_gamma    89.48388968248379

_space_group_name_H-M_alt    "P 1"
_space_group_IT_number       1

loop_
  _space_group_symop_operation_xyz
  'x, y, z'

loop_
  _atom_site_type_symbol
  _atom_site_label
  _atom_site_symmetry_multiplicity
  _atom_site_fract_x
  _atom_site_fract_y
  _atom_site_fract_z
  _atom_site_occupancy
  N   N1        1.0  0.8975774882727605  0.5628586956253936  0.4013098984506014  1.0000
  C   C1        1.0  0.8250257458590459  0.5874821295951015  0.34213424374431667  1.0000
  C   C2        1.0  0.7347703533775064  0.6181143426359614  0.268517465068687  1.0000
  C   C3        1.0  0.6474583368266126  0.5893463598342472  0.3403912360168786  1.0000
  C   C4        1.0  0.5596279408935  0.6181143567361886  0.26851744182023585  1.0000
  C   C5        1.0  0.46991760548805545  0.5874819831464999  0.3421343361799378  1.0000
  N   N2        1.0  0.3978039180583355  0.5628586321027194  0.4013098987237804  1.0000
  C   C6        1.0  0.5591385549848765  0.6762571560133072  0.12478543083574277  1.0000
  C   C7        1.0  0.6464047358127304  0.7071750570307902  0.05279606019584681  1.0000
  C   C8        1.0  0.6458682503223904  0.7654426678449668  0.8975763310059159  1.0000
  C   C9        1.0  0.7342156439264331  0.676257153772658  0.12478534058582415  1.0000
  H   H1        1.0  0.6478630890142799  0.54423362666063  0.45163780364139305  1.0000
  H   H2        1.0  0.49107105715825256  0.697488247535522  0.06902521510979875  1.0000
  H   H3        1.0  0.7102839471996918  0.8333889493134801  0.8734089288895621  1.0000
  H   H4        1.0  0.5805754696033022  0.8333889518505874  0.873408993948768  1.0000
  H   H5        1.0  0.6463340897101963  0.6741577930580964  0.8265516239742157  1.0000
  H   H6        1.0  0.8018940154642612  0.6974883591974997  0.06902512906572111  1.0000
  C   C10       1.0  0.15024484479144967  0.13917757162312405  0.40372273542708176  1.0000
  C   C11       1.0  0.20088145017869546  0.22012493887269005  0.29468475364756586  1.0000
  C   C12       1.0  0.24323391496927702  0.15281454624130222  0.18010560313548485  1.0000
  C   C13       1.0  0.2353791821248887  0.0035759433500055465  0.17308860276799876  1.0000
  C   C14       1.0  0.18684912718414498  0.9211781727158584  0.281478843630395  1.0000
  C   C15       1.0  0.14514585561540438  0.9865287432923926  0.3989096290860965  1.0000
  C   C16       1.0  0.293879419994417  0.23747879309026576  0.06857457880098439  1.0000
  C   C17       1.0  0.33628251253282926  0.3083877576040017  0.9751998652527369  1.0000
  C   C18       1.0  0.38593456589545916  0.39142713802964857  0.8658621479598955  1.0000
  C   C19       1.0  0.4283294824512337  0.46233080173665786  0.7725053336879038  1.0000
  H   H7        1.0  0.1047342810186837  0.4038200641287761  0.6325892843857952  1.0000
  H   H8        1.0  0.20552161792986734  0.3365958599309038  0.2969112703080949  1.0000
  H   H9        1.0  0.26763478727998136  0.9505325531805399  0.0844284140301943  1.0000
  H   H10       1.0  0.1838901850720622  0.8051150725858424  0.2752564555675048  1.0000
  H   H11       1.0  0.08281397257538844  0.8595271900579504  0.7413433702002592  1.0000
  H   H12       1.0  0.46555575578772107  0.5245902397745034  0.690530339975616  1.0000
  C   C20       1.0  0.1472159136993605  0.5585624609680762  0.9780890290742112  1.0000
  C   C21       1.0  0.23354891427505675  0.5264287807778407  0.054228336522376575  1.0000
  C   C22       1.0  0.3211100703708014  0.5072806383794544  0.9820767368296881  1.0000
  C   C23       1.0  0.32154840873763874  0.5210773502205276  0.8299391432238625  1.0000
  C   C24       1.0  0.23626326797690966  0.5504983755800068  0.7528115248587666  1.0000
  C   C25       1.0  0.14817482104117455  0.5671438745544466  0.8245433258042167  1.0000
  C   C26       1.0  0.41077368503231704  0.47419411784317234  0.07377988957695858  1.0000
  C   C27       1.0  0.48684520976118306  0.3752010639068967  0.014104254005915747  1.0000
  C   C28       1.0  0.5058863100899016  0.5365197828347892  0.017091818218488042  1.0000
  H   H13       1.0  0.23313105144305551  0.5194659338969442  0.1714373954371526  1.0000
  H   H14       1.0  0.3870930469120113  0.5080411662104792  0.769078870947915  1.0000
  H   H15       1.0  0.003976322613677749  0.6696577667265675  0.5352908948767681  1.0000
  H   H16       1.0  0.40448566779062967  0.4648891625594774  0.19359459181568917  1.0000
  H   H17       1.0  0.47408608207772107  0.3380745178443527  0.9047373023398921  1.0000
  H   H18       1.0  0.5273109007313872  0.3076500847630992  0.0980092549255922  1.0000
  H   H19       1.0  0.5046504035710642  0.5972079273317732  0.9095279488461756  1.0000
  H   H20       1.0  0.557471533594567  0.5632786373260567  0.10274731897551857  1.0000
  Zn  Zn1       1.0  0.041932068659215935  0.5628548990265358  0.4013182522244514  1.0000
  Zn  Zn2       1.0  0.2534494233010902  0.5628507422820814  0.4013134484319085  1.0000
  C   C29       1.0  0.14802599561673113  0.5597741193629784  0.6645779901911795  1.0000
  C   C30       1.0  0.1473577953123219  0.5659333437559759  0.13805384152928735  1.0000
  C   C31       1.0  0.14609822301675468  0.8263031317642247  0.3940762169618752  1.0000
  C   C32       1.0  0.14928550625413112  0.2994025987196536  0.40855570144446535  1.0000
  O   O1        1.0  0.22767518370876846  0.5683992075448336  0.1917377066246322  1.0000
  O   O2        1.0  0.22824539129464272  0.5573040080741487  0.6108900704323041  1.0000
  O   O3        1.0  0.22668761016342276  0.7725295715217138  0.39245796620801965  1.0000
  O   O4        1.0  0.22923289247891854  0.35317365332409945  0.41016970272962827  1.0000
  O   O5        1.0  0.06614852730087704  0.7725319879874304  0.3924619979207813  1.0000
  O   O6        1.0  0.06770629790975445  0.5573081571778543  0.6108940154532423  1.0000
  O   O7        1.0  0.06713608872764931  0.5684032888044752  0.19173991915446775  1.0000
  O   O8        1.0  0.06869379767835904  0.35317772535982284  0.41017202337280234  1.0000
