data_image0
_chemical_formula_structural       NC9NC5H8C6NH7C6NH7Zn2C4O8
_chemical_formula_sum              "N4 C30 H22 Zn2 O8"
_cell_length_a       17.807436237873137
_cell_length_b       9.274771166103582
_cell_length_c       9.274774538082516
_cell_angle_alpha    84.9550519661537
_cell_angle_beta     89.72824813723155
_cell_angle_gamma    88.98784114054227

_space_group_name_H-M_alt    "P 1"
_space_group_IT_number       1

loop_
  _space_group_symop_operation_xyz
  'x, y, z'

loop_
  _atom_site_type_symbol
  _atom_site_label
  _atom_site_symmetry_multiplicity
  _atom_site_fract_x
  _atom_site_fract_y
  _atom_site_fract_z
  _atom_site_occupancy
  N   N1        1.0  0.7107697809008675  0.5552314432668572  0.3936126770053466  1.0000
  C   C1        1.0  0.6499313587627622  0.5162646176272293  0.38143761375714635  1.0000
  C   C2        1.0  0.5742550483259269  0.46779417795106326  0.36629315691399333  1.0000
  C   C3        1.0  0.5553668387733799  0.3895288366716405  0.2497601980635811  1.0000
  C   C4        1.0  0.4818880925744328  0.3423447833509943  0.234964322268795  1.0000
  C   C5        1.0  0.4262464444716117  0.3730071728932194  0.33666615224844176  1.0000
  C   C6        1.0  0.348158458453562  0.3229894728414564  0.3210329281881117  1.0000
  C   C7        1.0  0.2865661416435307  0.41351773495079314  0.3496826863282698  1.0000
  C   C8        1.0  0.21294391200958823  0.3661080880232579  0.3349024491540509  1.0000
  C   C9        1.0  0.1503190259113148  0.45962130624833497  0.36395083052162996  1.0000
  N   N2        1.0  0.09998156796858847  0.5347994532996665  0.38730493434522417  1.0000
  C   C10       1.0  0.2003288080894177  0.22788396154233026  0.2914448365736342  1.0000
  C   C11       1.0  0.2610636422163366  0.13734040024716698  0.2627857849459428  1.0000
  C   C12       1.0  0.334563352115861  0.1843139366352915  0.27734179395681935  1.0000
  C   C13       1.0  0.4458298072163324  0.4518193086646305  0.45344167367785637  1.0000
  C   C14       1.0  0.5193597331153812  0.49879347856536554  0.46806498827492776  1.0000
  H   H1        1.0  0.5973763430491968  0.3652680510712001  0.1701164742960215  1.0000
  H   H2        1.0  0.4683627050142696  0.2835525576440907  0.14293274480644835  1.0000
  H   H3        1.0  0.2957527372557004  0.5214603563079727  0.38156379311580557  1.0000
  H   H4        1.0  0.1436213521897828  0.19019398356332284  0.27974407688216574  1.0000
  H   H5        1.0  0.2511794762287838  0.030320278877955537  0.22956894405082418  1.0000
  H   H6        1.0  0.3807408310698914  0.11149688986254036  0.25631491161473585  1.0000
  H   H7        1.0  0.4045384338031204  0.4754687513938525  0.5345250847794181  1.0000
  H   H8        1.0  0.5334172158406358  0.5589513479433825  0.5589364248116186  1.0000
  C   C15       1.0  0.9030760237426325  0.12153278856372493  0.39128277077017454  1.0000
  C   C16       1.0  0.8853898968753301  0.2068935131018238  0.26250443624582753  1.0000
  C   C17       1.0  0.8747131622888307  0.14353526572171701  0.1327936439339985  1.0000
  C   C18       1.0  0.8817589798443837  0.9934450980727978  0.1309198351618104  1.0000
  C   C19       1.0  0.8980507952907074  0.9068535748019674  0.2579477911419228  1.0000
  C   C20       1.0  0.9076824882366205  0.9684865947626223  0.3896473038849837  1.0000
  N   N3        1.0  0.8574840117832495  0.23198384715191422  0.002589404781925037  1.0000
  H   H9        1.0  0.9885860877147897  0.19395457540587535  0.7057586346864735  1.0000
  H   H10       1.0  0.8816014414352342  0.3236899249638383  0.26201143607423716  1.0000
  H   H11       1.0  0.8738997625777309  0.9432403759537921  0.031114706445609874  1.0000
  H   H12       1.0  0.9013475800716249  0.7905524744374047  0.253760932581208  1.0000
  H   H13       1.0  0.9622397624778696  0.666685546217062  0.6036609015033225  1.0000
  H   H14       1.0  0.8523094529762383  0.34432979861929325  0.0026263885820978464  1.0000
  H   H15       1.0  0.8497029318730757  0.1857715691249362  0.905156525470361  1.0000
  C   C21       1.0  0.9040515011592112  0.5487688157009305  0.9666634282286419  1.0000
  C   C22       1.0  0.9577299508931236  0.6310763556384029  0.032373172357254454  1.0000
  C   C23       1.0  0.01471307945308476  0.7013278370483165  0.9505498254656937  1.0000
  C   C24       1.0  0.018477851569218544  0.6895798083527764  0.8015326770815161  1.0000
  C   C25       1.0  0.9650576286997593  0.6104364242039908  0.7341103309602148  1.0000
  C   C26       1.0  0.9067069924859874  0.5412504925790839  0.8142666134352864  1.0000
  N   N4        1.0  0.06925261045110265  0.7833894888989839  0.019251229478828288  1.0000
  H   H16       1.0  0.7902596343485564  0.27275644134899446  0.09494741709907073  1.0000
  H   H17       1.0  0.9564152831865851  0.6379868153439782  0.14840200323318764  1.0000
  H   H18       1.0  0.062468670450519286  0.743003403721755  0.7371862943807993  1.0000
  H   H19       1.0  0.9683847412158209  0.6062492455061104  0.6178907535588571  1.0000
  H   H20       1.0  0.8277815340422474  0.3598577083589806  0.549805752556694  1.0000
  H   H21       1.0  0.06712092463922681  0.7925473413557733  0.13063903327620907  1.0000
  H   H22       1.0  0.11215327160414801  0.8357359469582976  0.9592132888371646  1.0000
  Zn  Zn1       1.0  0.823087899239004  0.5493312903359042  0.39180075263299674  1.0000
  Zn  Zn2       1.0  0.9876634046696436  0.5406877458156604  0.38912874595308045  1.0000
  C   C27       1.0  0.9061721306854255  0.5369267418781085  0.6540625847801067  1.0000
  C   C28       1.0  0.9045809807227565  0.5530940181975885  0.12686702276298534  1.0000
  C   C29       1.0  0.9067898759500954  0.8084454812125981  0.3842054972469  1.0000
  C   C30       1.0  0.9039631701176646  0.28157354852758365  0.3967241914960829  1.0000
  O   O1        1.0  0.9672141913016751  0.5512591241739168  0.17961881210577268  1.0000
  O   O2        1.0  0.9684479134918439  0.5322003013833678  0.5992823908523954  1.0000
  O   O3        1.0  0.9689459133762751  0.7514551481268232  0.3813708941597058  1.0000
  O   O4        1.0  0.9667161349758666  0.33200429165585227  0.3975302014813409  1.0000
  O   O5        1.0  0.844035112771223  0.758014747446967  0.38339929800896644  1.0000
  O   O6        1.0  0.8435371220656559  0.538761633990281  0.6013107144059959  1.0000
  O   O7        1.0  0.8423033942160446  0.5578204219154332  0.18164540062703383  1.0000
  O   O8        1.0  0.841805338170055  0.3385655781232322  0.3995568982239549  1.0000
