data_image0
_chemical_formula_structural       NC5NC4H6C7NH5C6BrH4Zn2C4O8
_chemical_formula_sum              "N3 C26 H15 Br1 Zn2 O8"
_cell_length_a       13.854160002989762
_cell_length_b       9.275154477615127
_cell_length_c       9.27656775626242
_cell_angle_alpha    86.34818767424132
_cell_angle_beta     90.1862127555096
_cell_angle_gamma    89.43370676253429

_space_group_name_H-M_alt    "P 1"
_space_group_IT_number       1

loop_
  _space_group_symop_operation_xyz
  'x, y, z'

loop_
  _atom_site_type_symbol
  _atom_site_label
  _atom_site_symmetry_multiplicity
  _atom_site_fract_x
  _atom_site_fract_y
  _atom_site_fract_z
  _atom_site_occupancy
  N   N1        1.0  0.8951254625486224  0.5623849637631502  0.41683174612551044  1.0000
  C   C1        1.0  0.8225016006221647  0.5870125295423922  0.35791070912031175  1.0000
  C   C2        1.0  0.7321564888649358  0.6176498828956365  0.2846106819017342  1.0000
  C   C3        1.0  0.6449314282788561  0.5888761387586181  0.3561861678171075  1.0000
  C   C4        1.0  0.5570140763501118  0.6176498969946007  0.28461065879593606  1.0000
  C   C5        1.0  0.4673934604244178  0.5870123831577558  0.357910800118439  1.0000
  N   N2        1.0  0.3953518923701081  0.5623849002818064  0.416831745786963  1.0000
  C   C6        1.0  0.5563504533310287  0.6758038179198045  0.14148105634206098  1.0000
  C   C7        1.0  0.643528358019102  0.7067261177234203  0.06981070604514317  1.0000
  C   C8        1.0  0.6428062469291075  0.7650086880787876  0.9151979891295898  1.0000
  C   C9        1.0  0.7314275421849223  0.675803815711407  0.14148096609729377  1.0000
  H   H1        1.0  0.6454710998455443  0.5437548699818113  0.46696541068003117  1.0000
  H   H2        1.0  0.4882161044873229  0.6970400881893251  0.08594178277373499  1.0000
  H   H3        1.0  0.7071600091081797  0.8329189061622122  0.8916919833113192  1.0000
  H   H4        1.0  0.577451531574467  0.8329189086754679  0.8916920483756878  1.0000
  H   H5        1.0  0.6432533262968925  0.6738075729181701  0.8433153538581561  1.0000
  H   H6        1.0  0.7990390626459041  0.6970401998078424  0.08594169783030625  1.0000
  C   C10       1.0  0.14803291583018316  0.1389793043206291  0.4151643387834214  1.0000
  C   C11       1.0  0.1212702066547513  0.22091431609274914  0.28811740540571185  1.0000
  C   C12       1.0  0.08667064242692035  0.1536977198194216  0.16780033679691542  1.0000
  C   C13       1.0  0.07826528165392665  0.003629221164153984  0.17311320718093248  1.0000
  C   C14       1.0  0.10591647188239724  0.9204581765041484  0.29726420700111866  1.0000
  C   C15       1.0  0.1424537869469169  0.9857796008987381  0.41851164963527165  1.0000
  C   C16       1.0  0.05862055050396252  0.2391995497119741  0.03922215650102046  1.0000
  N   N3        1.0  0.03607605143718606  0.30792743741240725  0.9358782345478689  1.0000
  H   H7        1.0  0.1674956263610572  0.21911384957989188  0.7688610468235487  1.0000
  H   H8        1.0  0.1252030858573776  0.3378318497729329  0.283841977798462  1.0000
  H   H9        1.0  0.051159030944775585  0.9505971468538016  0.08064198340375883  1.0000
  H   H10       1.0  0.10084771830233016  0.8039893393797947  0.29713739666320116  1.0000
  H   H11       1.0  0.15965210194451648  0.6893299902509277  0.6554985051251638  1.0000
  C   C17       1.0  0.14434931331807688  0.5582359217145916  0.9936948414925859  1.0000
  C   C18       1.0  0.05834689196557205  0.5929463151227192  0.06444287584596009  1.0000
  C   C19       1.0  0.9765554308352866  0.6395333535847487  0.9859260294240241  1.0000
  C   C20       1.0  0.9792296471491676  0.6523535854299412  0.8354808622733629  1.0000
  C   C21       1.0  0.06335003750806623  0.6160856611874654  0.762999608727426  1.0000
  C   C22       1.0  0.14613741598343255  0.5665230069550782  0.8399811219913036  1.0000
  Br  Br1       1.0  0.8672755336753688  0.717274802216916  0.7284872484754916  1.0000
  H   H12       1.0  0.2779974192281202  0.4272753370267446  0.28401137578778757  1.0000
  H   H13       1.0  0.9113004666073738  0.6670234772846801  0.04235207496252991  1.0000
  H   H14       1.0  0.0631496004771943  0.6234507249766141  0.6459782584761715  1.0000
  H   H15       1.0  0.30505295177097014  0.5516345465745522  0.5605275522627471  1.0000
  Zn  Zn1       1.0  0.039480053295968265  0.5623811667900305  0.4168400608688898  1.0000
  Zn  Zn2       1.0  0.2509974055370996  0.562377014395159  0.4168352184745847  1.0000
  C   C23       1.0  0.14583508972718517  0.559212579370876  0.6799921732222167  1.0000
  C   C24       1.0  0.1446446671815793  0.5655474223919099  0.15368325468835153  1.0000
  C   C25       1.0  0.1434912564939187  0.8256600724229306  0.4121368537445198  1.0000
  C   C26       1.0  0.14698843981423537  0.2990981978050766  0.4215386441430993  1.0000
  O   O1        1.0  0.22501356492308922  0.5679933627450617  0.20737496514127862  1.0000
  O   O2        1.0  0.22600297444830275  0.5567623956709364  0.6262963684082861  1.0000
  O   O3        1.0  0.22410922056190014  0.771922130691868  0.4100013087600938  1.0000
  O   O4        1.0  0.22690724633671877  0.352833636981831  0.42366991679104404  1.0000
  O   O5        1.0  0.06357014031583105  0.7719245442062714  0.4100053625465103  1.0000
  O   O6        1.0  0.06546388262232661  0.5567665407230307  0.6263003522117312  1.0000
  O   O7        1.0  0.06447446983198324  0.56799744058841  0.20737721631342465  1.0000
  O   O8        1.0  0.06636815153786801  0.35283770557039107  0.42367227595569684  1.0000
