data_image0
_chemical_formula_structural       NC9NC5H8C6NO2H5C6SCNH5Zn2C4O8
_chemical_formula_sum              "N4 C31 H18 O10 S1 Zn2"
_cell_length_a       17.807436237873137
_cell_length_b       9.273392599741051
_cell_length_c       10.302218930750287
_cell_angle_alpha    85.67519561885129
_cell_angle_beta     89.41007646359061
_cell_angle_gamma    87.79638846343423

_space_group_name_H-M_alt    "P 1"
_space_group_IT_number       1

loop_
  _space_group_symop_operation_xyz
  'x, y, z'

loop_
  _atom_site_type_symbol
  _atom_site_label
  _atom_site_symmetry_multiplicity
  _atom_site_fract_x
  _atom_site_fract_y
  _atom_site_fract_z
  _atom_site_occupancy
  N   N1        1.0  0.6988099483852381  0.5418850732413425  0.560601874945159  1.0000
  C   C1        1.0  0.6384317590767322  0.5027962688428436  0.5495016952888965  1.0000
  C   C2        1.0  0.5633279276526485  0.4541741008587401  0.5356942771633828  1.0000
  C   C3        1.0  0.545646143109115  0.37486216378909776  0.4305571188981434  1.0000
  C   C4        1.0  0.472724845958977  0.3275299445562252  0.417068148807745  1.0000
  C   C5        1.0  0.416438876539063  0.3590902852044069  0.5086830459201241  1.0000
  C   C6        1.0  0.3389416603810255  0.30891596701440793  0.4944300758381095  1.0000
  C   C7        1.0  0.27627900793914817  0.3997307848839236  0.5205460865959823  1.0000
  C   C8        1.0  0.2032166280121524  0.35217301562554626  0.5070703384763247  1.0000
  C   C9        1.0  0.1394877870111734  0.4459774845768896  0.5335562033752064  1.0000
  N   N2        1.0  0.0882628220984844  0.5213897876340854  0.5548500993317006  1.0000
  C   C10       1.0  0.19223490058540235  0.21351385319468233  0.4674526570300827  1.0000
  C   C11       1.0  0.2540402648655536  0.12268364895714856  0.4413282275564734  1.0000
  C   C12       1.0  0.3269855453563826  0.1698031767100039  0.4546006017886878  1.0000
  C   C13       1.0  0.4348091364702457  0.43895135275709724  0.6140404892730246  1.0000
  C   C14       1.0  0.5077844199251849  0.4860721002145854  0.6273734197423353  1.0000
  H   H1        1.0  0.5881629218860013  0.3498980815986188  0.35881163855531967  1.0000
  H   H2        1.0  0.46011947649281737  0.2679124108880673  0.33404771424566415  1.0000
  H   H3        1.0  0.2841963572955896  0.5079952378035884  0.5496347446280805  1.0000
  H   H4        1.0  0.1359723659905793  0.17570654942225183  0.45678400026940114  1.0000
  H   H5        1.0  0.24541942385497406  0.015330446229633093  0.4110412961063037  1.0000
  H   H6        1.0  0.3740177758850601  0.09677320243541532  0.4354093470542521  1.0000
  H   H7        1.0  0.3930127141688448  0.46331637451033325  0.6870789376879272  1.0000
  H   H8        1.0  0.5209106156133707  0.5470457382156363  0.7093552250222958  1.0000
  C   C15       1.0  0.8958306291246376  0.10798818821499956  0.5568756839754074  1.0000
  C   C16       1.0  0.886238973995559  0.19184845019113464  0.4384159471164279  1.0000
  C   C17       1.0  0.8700163493330205  0.12761518878884748  0.32435766449026526  1.0000
  C   C18       1.0  0.8628484495041355  0.9775762802875243  0.3255788564127992  1.0000
  C   C19       1.0  0.8736121393841162  0.8924860401807101  0.4431159116957537  1.0000
  C   C20       1.0  0.8912493823629184  0.9552751923434887  0.5585874049343531  1.0000
  N   N3        1.0  0.8454557715120671  0.9119874608080034  0.20773080937036245  1.0000
  O   O1        1.0  0.8355741403794769  0.9956144484477745  0.09261098330254414  1.0000
  O   O2        1.0  0.8388382669306501  0.7784024453310104  0.20803581632030063  1.0000
  H   H9        1.0  0.8805859037865641  0.18524650587344899  0.8757577752042516  1.0000
  H   H10       1.0  0.8895234241592576  0.30851827082194233  0.43453149178189626  1.0000
  H   H11       1.0  0.8623213489394813  0.19594416662073688  0.23523724146938219  1.0000
  H   H12       1.0  0.8699825860839102  0.7760748288712394  0.4440937091026669  1.0000
  H   H13       1.0  0.8835455894124417  0.6575793067463425  0.7740625173382522  1.0000
  C   C21       1.0  0.8934695735134023  0.5317029663718291  0.17645756199509566  1.0000
  C   C22       1.0  0.9646099121871824  0.4607585195971569  0.17905516463822255  1.0000
  C   C23       1.0  0.9999783090534152  0.4250048166780581  0.06337006124512888  1.0000
  C   C24       1.0  0.9647941107606913  0.46057020227457657  0.9438978507124264  1.0000
  C   C25       1.0  0.8936104226644795  0.5315604350051288  0.9390055504054071  1.0000
  C   C26       1.0  0.8583265618273174  0.5666849328461487  0.055847665906085364  1.0000
  S   S1        1.0  0.09091544602864166  0.334997865908108  0.06812365204341408  1.0000
  C   C27       1.0  0.052558979966114146  0.16177325052081848  0.08061279637782114  1.0000
  N   N4        1.0  0.027390310317089595  0.04821775486314196  0.08880082795476539  1.0000
  H   H14       1.0  0.8664053720545166  0.5587695913377502  0.5027990738776256  1.0000
  H   H15       1.0  0.992798766424112  0.43273452792284384  0.27065917810481555  1.0000
  H   H16       1.0  0.9931092201534667  0.4324170629939719  0.8552325412438825  1.0000
  H   H17       1.0  0.8034586822226853  0.6213803621748559  0.05299754408814071  1.0000
  H   H18       1.0  0.7594718158957549  0.66550675752475  0.7225564440886378  1.0000
  Zn  Zn1       1.0  0.811197656101825  0.5359667256720599  0.5589495378943508  1.0000
  Zn  Zn2       1.0  0.9758751617412688  0.5272963734069761  0.5565130865791952  1.0000
  C   C28       1.0  0.8936132075374195  0.5258402208842277  0.7948560693258461  1.0000
  C   C29       1.0  0.8934613987602508  0.5374246037748003  0.3206066596539172  1.0000
  C   C30       1.0  0.8921105100857355  0.7951211106215348  0.5530900491113184  1.0000
  C   C31       1.0  0.8949640494036012  0.26814198369890785  0.562372746419531  1.0000
  O   O3        1.0  0.9559529444352619  0.5360481901872156  0.3680597803547432  1.0000
  O   O4        1.0  0.9561080840802051  0.5206349494521361  0.7455533625007371  1.0000
  O   O5        1.0  0.9548937946807039  0.7380827175398832  0.5503256061378397  1.0000
  O   O6        1.0  0.9571671775677019  0.3186004353964418  0.5632874402194537  1.0000
  O   O7        1.0  0.8299055840790314  0.7446626666429317  0.5521751850787073  1.0000
  O   O8        1.0  0.8311198640905062  0.5272166318541069  0.7474028757151341  1.0000
  O   O9        1.0  0.8309647244790088  0.5426298226050739  0.36990773245476455  1.0000
  O   O10       1.0  0.83217895768215  0.32518205747766477  0.5651354896422772  1.0000
