data_image0
_chemical_formula_structural       NC6NCNCH5C6BrH3C6ClH3Zn2C4O8
_chemical_formula_sum              "N3 C24 H11 Br1 Cl1 Zn2 O8"
_cell_length_a       14.933214217465613
_cell_length_b       9.276564384272257
_cell_length_c       10.302974078461048
_cell_angle_alpha    85.51203645114332
_cell_angle_beta     89.96595870270414
_cell_angle_gamma    90.62004099175812

_space_group_name_H-M_alt    "P 1"
_space_group_IT_number       1

loop_
  _space_group_symop_operation_xyz
  'x, y, z'

loop_
  _atom_site_type_symbol
  _atom_site_label
  _atom_site_symmetry_multiplicity
  _atom_site_fract_x
  _atom_site_fract_y
  _atom_site_fract_z
  _atom_site_occupancy
  N   N1        1.0  0.8532662277420926  0.5791162930935987  0.5659702292272819  1.0000
  C   C1        1.0  0.7757822985631533  0.5801130076256205  0.5650773646714737  1.0000
  C   C2        1.0  0.679391750764126  0.581355656041167  0.5639640730197604  1.0000
  C   C3        1.0  0.6309590810065152  0.4855895464401414  0.6497694593524517  1.0000
  C   C4        1.0  0.537432534510375  0.4866724547592036  0.64879921194009  1.0000
  C   C5        1.0  0.49143595529818623  0.5834666034884513  0.5620727467991495  1.0000
  C   C6        1.0  0.39484703347652195  0.5813578127850869  0.5639622062636696  1.0000
  N   N2        1.0  0.3173502179400579  0.5795986154465572  0.5655380967743107  1.0000
  C   C7        1.0  0.5399750718598773  0.6804419779144282  0.4751839877202022  1.0000
  N   N3        1.0  0.4953024143791355  0.7810482825871725  0.38504208402972595  1.0000
  C   C8        1.0  0.633975839612393  0.6783929055603923  0.477020038861009  1.0000
  H   H1        1.0  0.6654770824131758  0.41008440951572656  0.7174211972016435  1.0000
  H   H2        1.0  0.5008735644283887  0.41180247881212373  0.7158817374493951  1.0000
  H   H3        1.0  0.5321093286018059  0.85210612284617  0.3213749999805735  1.0000
  H   H4        1.0  0.4255949398379322  0.7864013960225427  0.380245817270219  1.0000
  H   H5        1.0  0.6716544612826796  0.7525095663639975  0.41061232754399324  1.0000
  C   C9        1.0  0.08261452238919853  0.15587367119052287  0.5660886752806824  1.0000
  C   C10       1.0  0.07113878355573133  0.23936104320478568  0.4474416367379055  1.0000
  C   C11       1.0  0.06799695052852739  0.17436891829932932  0.3298951609650924  1.0000
  C   C12       1.0  0.07631096025381683  0.024970397941669338  0.3287637216179107  1.0000
  C   C13       1.0  0.08620913204723825  0.939788057564662  0.4456179238782727  1.0000
  C   C14       1.0  0.08801041576335966  0.0028300813025983226  0.5654308662151761  1.0000
  Br  Br1       1.0  0.07267123677084908  0.9366088538170846  0.1674687939134285  1.0000
  H   H6        1.0  0.059949906062351184  0.24058079551032052  0.23947093307378564  1.0000
  H   H7        1.0  0.09035244212948883  0.8235523811978246  0.442815029773776  1.0000
  H   H8        1.0  0.13740975040567005  0.7049487406712789  0.767585818257261  1.0000
  C   C15       1.0  0.08531247515666875  0.5793519102615601  0.18451729923929383  1.0000
  C   C16       1.0  0.06878146581063671  0.42955474117519915  0.19388179470727707  1.0000
  C   C17       1.0  0.06057927574440749  0.35522946595136273  0.08157141071149998  1.0000
  C   C18       1.0  0.06878150637993019  0.4295548226603802  0.9587738956356295  1.0000
  C   C19       1.0  0.08531247239826213  0.5793518358193785  0.9470023183726521  1.0000
  C   C20       1.0  0.0934974120388577  0.6535202533078648  0.060527321879358276  1.0000
  Cl  Cl1       1.0  0.0399281207833069  0.16809721513816633  0.09477343298563423  1.0000
  H   H9        1.0  0.06220670954119781  0.3699769089733418  0.28813150293914935  1.0000
  H   H10       1.0  0.06220677198586833  0.3699768884607524  0.8729305368229606  1.0000
  H   H11       1.0  0.10624658244753099  0.7690483261780972  0.052376816909803114  1.0000
  Zn  Zn1       1.0  0.9871908185009795  0.5792516113953615  0.5658530331175582  1.0000
  Zn  Zn2       1.0  0.1834255371465808  0.5794514664973582  0.5656659634282861  1.0000
  C   C21       1.0  0.0852738620059799  0.5736068638770873  0.8028807597504818  1.0000
  C   C22       1.0  0.08534464811095568  0.5850980357715727  0.3286383607636416  1.0000
  C   C23       1.0  0.08698586465189462  0.8427373091891811  0.5603817894631904  1.0000
  C   C24       1.0  0.08363256746554407  0.3159658577833503  0.5711374016760276  1.0000
  O   O1        1.0  0.1598254586064186  0.5870960405405272  0.37693571848726637  1.0000
  O   O2        1.0  0.15973065546921772  0.571759456592265  0.7544410475839891  1.0000
  O   O3        1.0  0.16111211536505857  0.7890856937783195  0.5586214131490459  1.0000
  O   O4        1.0  0.1584439318146862  0.3697698136024292  0.572755255635643  1.0000
  O   O5        1.0  0.012172356867605316  0.7889332642236593  0.5587637409672086  1.0000
  O   O6        1.0  0.010790908005992247  0.5716087596471036  0.754583304834065  1.0000
  O   O7        1.0  0.010885710882622577  0.5869452933418935  0.3770764148932231  1.0000
  O   O8        1.0  0.00950418402151288  0.3696190560892084  0.572896049385174  1.0000
