data_image0
_chemical_formula_structural       NC8NC6H8C6OCH8C6H6Zn2C4O8
_chemical_formula_sum              "N2 C31 H22 O9 Zn2"
_cell_length_a       17.457602349358154
_cell_length_b       9.273888216677433
_cell_length_c       10.68112160042829
_cell_angle_alpha    85.7605498729626
_cell_angle_beta     92.87590736930572
_cell_angle_gamma    91.10627454168798

_space_group_name_H-M_alt    "P 1"
_space_group_IT_number       1

loop_
  _space_group_symop_operation_xyz
  'x, y, z'

loop_
  _atom_site_type_symbol
  _atom_site_label
  _atom_site_symmetry_multiplicity
  _atom_site_fract_x
  _atom_site_fract_y
  _atom_site_fract_z
  _atom_site_occupancy
  N   N1        1.0  0.7138456622519742  0.6127649048020825  0.6797877454915398  1.0000
  C   C1        1.0  0.6530389290678076  0.5617842183552804  0.6694179112772234  1.0000
  C   C2        1.0  0.5773927362086854  0.49837058781817445  0.6565270552048879  1.0000
  C   C3        1.0  0.5186269412190169  0.5429533258188158  0.7288658235043317  1.0000
  C   C4        1.0  0.4444063222413334  0.4818911370928827  0.7165736060157322  1.0000
  C   C5        1.0  0.38203638453958727  0.5289639417079759  0.7931827338264581  1.0000
  C   C6        1.0  0.30738066082794213  0.5494654946312689  0.739464831605599  1.0000
  C   C7        1.0  0.24861594911972018  0.5938440602035209  0.8119071632938409  1.0000
  C   C8        1.0  0.1725184923942604  0.6150181642939374  0.7560546999640708  1.0000
  N   N2        1.0  0.11134909136797257  0.6320350620016302  0.7111494465779684  1.0000
  C   C9        1.0  0.264013362605425  0.6179909784018893  0.938558455336419  1.0000
  C   C10       1.0  0.3378820852412898  0.5979212313055415  0.9926512391153833  1.0000
  C   C11       1.0  0.39663412876108783  0.5537425395407819  0.9206508006746481  1.0000
  C   C12       1.0  0.43024414442826286  0.3754942232688684  0.6305589208558586  1.0000
  C   C13       1.0  0.4889965755940615  0.3312208417007001  0.5586066759425665  1.0000
  C   C14       1.0  0.5624317653028558  0.39240777516032954  0.5714295240887246  1.0000
  H   H1        1.0  0.5305269396993274  0.6264249738669474  0.7933346416621083  1.0000
  H   H2        1.0  0.2951240637737256  0.532847516247525  0.6410414232590358  1.0000
  H   H3        1.0  0.2189700198893008  0.6522732169989552  0.9953822060572778  1.0000
  H   H4        1.0  0.3496157729056332  0.6162683399026585  0.09071924266936227  1.0000
  H   H5        1.0  0.4532082730343624  0.537100305883996  0.9650667092441644  1.0000
  H   H6        1.0  0.3740272071336074  0.32516811634312104  0.6201559718012983  1.0000
  H   H7        1.0  0.4776037939388891  0.2489885593250114  0.4929855843722668  1.0000
  H   H8        1.0  0.6074802877043467  0.35716010013202804  0.5150961150125042  1.0000
  C   C15       1.0  0.9148531277527724  0.19904720519250851  0.6943671317527309  1.0000
  C   C16       1.0  0.8969422361769148  0.2814416947616272  0.5811006513837202  1.0000
  C   C17       1.0  0.8725061772722569  0.21553243772780895  0.4722323629634763  1.0000
  C   C18       1.0  0.8658391613578675  0.0642283508113415  0.4762172086048401  1.0000
  C   C19       1.0  0.8845526805827885  0.9806776667049436  0.5871381672221938  1.0000
  C   C20       1.0  0.9103489978912519  0.04574198893457049  0.6965814417270308  1.0000
  O   O1        1.0  0.8550601531494464  0.3041165647231876  0.3626842148343552  1.0000
  C   C21       1.0  0.8294610215511015  0.25195095075296803  0.24542102268719823  1.0000
  H   H9        1.0  0.9211000316863551  0.27603464935942523  0.0030299462605702905  1.0000
  H   H10       1.0  0.900181693145634  0.39847430585303084  0.5776443961788036  1.0000
  H   H11       1.0  0.8469074326794087  0.009873621532609398  0.3937325298844994  1.0000
  H   H12       1.0  0.8805670338456303  0.8640160324690564  0.5864067242896656  1.0000
  H   H13       1.0  0.9177703749231445  0.7471711303621332  0.9038636175884807  1.0000
  H   H14       1.0  0.7744207997504321  0.19115870140540706  0.2555109547820087  1.0000
  H   H15       1.0  0.873496051933641  0.18147736832050515  0.21134525795403936  1.0000
  H   H16       1.0  0.8201327168268696  0.34518413988033214  0.17545033668982635  1.0000
  C   C22       1.0  0.9126010883014944  0.6223945796641615  0.32772905884594294  1.0000
  C   C23       1.0  0.8581279656321337  0.539553775462984  0.2617654785440364  1.0000
  C   C24       1.0  0.8581279172519352  0.5395538655814387  0.13088333505465477  1.0000
  C   C25       1.0  0.9126010276282074  0.6223946474106883  0.06321948994984283  1.0000
  C   C26       1.0  0.967029191176652  0.7051668102549722  0.12917874112062222  1.0000
  C   C27       1.0  0.9670291814822481  0.7051667874244181  0.2600710389509653  1.0000
  H   H17       1.0  0.9676878510734528  0.7061693690261432  0.6255790517356767  1.0000
  H   H18       1.0  0.8154293605064407  0.47461923804084016  0.31124279081023243  1.0000
  H   H19       1.0  0.8154293441264301  0.4746193051252765  0.08273876049832518  1.0000
  H   H20       1.0  0.0097333718037409  0.7701099019013407  0.07974622924587638  1.0000
  H   H21       1.0  0.009733333427456086  0.7701098494899306  0.3081705935491392  1.0000
  H   H22       1.0  0.9676880931329356  0.7061688783536495  0.7636500435955558  1.0000
  Zn  Zn1       1.0  0.8285565859464211  0.618321989806806  0.6888452754640924  1.0000
  Zn  Zn2       1.0  0.9966382163013658  0.626466156983732  0.7021021383936676  1.0000
  C   C28       1.0  0.912629900395469  0.6166512896071008  0.9241809123147402  1.0000
  C   C29       1.0  0.9125667276220003  0.6281387651289065  0.4667667739776476  1.0000
  C   C30       1.0  0.9111964402601717  0.8856984616961604  0.6911722779670291  1.0000
  C   C31       1.0  0.9140001396167883  0.3590898581881454  0.6997754660371478  1.0000
  O   O2        1.0  0.9763413320767222  0.6331509457748723  0.5184599952456599  1.0000
  O   O3        1.0  0.976425370021503  0.6178192558273234  0.8825489799319863  1.0000
  O   O4        1.0  0.975266972966437  0.8350782081914965  0.6943927952216771  1.0000
  O   O5        1.0  0.9774996717220562  0.41589200094460355  0.7066160815631299  1.0000
  O   O6        1.0  0.8476950731677108  0.8288961430682993  0.6843313277641299  1.0000
  O   O7        1.0  0.8488534610052663  0.6116389227781928  0.8724874502321507  1.0000
  O   O8        1.0  0.8487694233788171  0.6269705624900483  0.5083969597958844  1.0000
  O   O9        1.0  0.8499277630758636  0.40971160734824025  0.6965531399756943  1.0000
