data_image0
_chemical_formula_structural       NC9NC5H8C9H10C6NO2H2Zn2C4O8
_chemical_formula_sum              "N3 C33 H20 O10 Zn2"
_cell_length_a       17.807436237873137
_cell_length_b       9.272676604525724
_cell_length_c       9.273395971720356
_cell_angle_alpha    85.21432368177585
_cell_angle_beta     89.26497821809997
_cell_angle_gamma    88.94495835625186

_space_group_name_H-M_alt    "P 1"
_space_group_IT_number       1

loop_
  _space_group_symop_operation_xyz
  'x, y, z'

loop_
  _atom_site_type_symbol
  _atom_site_label
  _atom_site_symmetry_multiplicity
  _atom_site_fract_x
  _atom_site_fract_y
  _atom_site_fract_z
  _atom_site_occupancy
  N   N1        1.0  0.716850027875957  0.5572269651990831  0.4027274974019821  1.0000
  C   C1        1.0  0.6560793242268744  0.5182903537966603  0.39030592854891655  1.0000
  C   C2        1.0  0.5804872482123115  0.46985749733315757  0.37485484587442075  1.0000
  C   C3        1.0  0.5621215771712679  0.3917937308793482  0.25779493171026124  1.0000
  C   C4        1.0  0.4887250537828435  0.344646344953055  0.2427005493626362  1.0000
  C   C5        1.0  0.432643416529281  0.37514400554811944  0.34462821121007425  1.0000
  C   C6        1.0  0.3546423762158235  0.32516509658550663  0.3286785714474809  1.0000
  C   C7        1.0  0.29289120487175413  0.4156226068725722  0.35790114083722724  1.0000
  C   C8        1.0  0.2193512285667448  0.3682496704827951  0.3428209997829481  1.0000
  C   C9        1.0  0.1565645421970463  0.461690639491989  0.37246089065367394  1.0000
  N   N2        1.0  0.1060970029348924  0.5368107013165633  0.3962905275479265  1.0000
  C   C10       1.0  0.2069774704477421  0.23013313371480248  0.298488882827876  1.0000
  C   C11       1.0  0.2678712046420931  0.13966034301039576  0.26925692160643355  1.0000
  C   C12       1.0  0.34128978836952684  0.1865976416105342  0.28411004522215944  1.0000
  C   C13       1.0  0.45170298946040455  0.4537540327831482  0.4619341717997308  1.0000
  C   C14       1.0  0.5251515063855366  0.5006918617241567  0.47685462821862323  1.0000
  H   H1        1.0  0.6044757474078294  0.36766202013039795  0.17797280995272757  1.0000
  H   H2        1.0  0.4756110532097976  0.2860124152260904  0.1502715738369369  1.0000
  H   H3        1.0  0.3018979582268449  0.5234843546527468  0.39046445853106304  1.0000
  H   H4        1.0  0.1503351977403153  0.19247226462431377  0.28654972098010467  1.0000
  H   H5        1.0  0.2581720947439493  0.03272286473632824  0.23536314392181468  1.0000
  H   H6        1.0  0.38758657307486166  0.11383441722847111  0.26262311595220944  1.0000
  H   H7        1.0  0.41006116724571795  0.4772723795743077  0.5431926774947697  1.0000
  H   H8        1.0  0.538801889958406  0.5606928042153014  0.5681315531220745  1.0000
  C   C15       1.0  0.9093509268458047  0.1236608195885962  0.39770005706752687  1.0000
  C   C16       1.0  0.8791550604653202  0.18810882542171847  0.5177527394041859  1.0000
  C   C17       1.0  0.8558273150857121  0.10392414074383918  0.6412198750447027  1.0000
  C   C18       1.0  0.8619424657096569  0.9527748978808268  0.6487883922530564  1.0000
  C   C19       1.0  0.8909089533852097  0.8869531949262603  0.5276438500206388  1.0000
  C   C20       1.0  0.9136032339645059  0.9703652648212878  0.40133034974365334  1.0000
  C   C21       1.0  0.8359122301474167  0.8690920654441993  0.7878881451856481  1.0000
  C   C22       1.0  0.7979674937269774  0.7251362792629522  0.7741427674545542  1.0000
  C   C23       1.0  0.8772102732074007  0.7277926286803743  0.8339124836948375  1.0000
  H   H9        1.0  0.9262881935912664  0.42404089297148806  0.160869449241537  1.0000
  H   H10       1.0  0.8751920829023545  0.30484064578822867  0.5176795037569593  1.0000
  H   H11       1.0  0.8334777495526157  0.1576063314584899  0.7322908329730642  1.0000
  H   H12       1.0  0.8944906510738514  0.7703511521995139  0.5289251015119476  1.0000
  H   H13       1.0  0.9334784374824354  0.8961569116799623  0.04754032079152326  1.0000
  H   H14       1.0  0.8145512720028708  0.9293969248531847  0.8791307182666063  1.0000
  H   H15       1.0  0.7946019741641396  0.687198832308329  0.6641501357824138  1.0000
  H   H16       1.0  0.7543471426859001  0.6977820434654318  0.8581438009772049  1.0000
  H   H17       1.0  0.9219575357675728  0.6913406185028035  0.760312377629601  1.0000
  H   H18       1.0  0.8799015612005476  0.7019847511004748  0.9528651429799567  1.0000
  C   C24       1.0  0.9119267276249332  0.5514195284671097  0.975590402689329  1.0000
  C   C25       1.0  0.8451493314176157  0.5878365359259936  0.04742520692110253  1.0000
  C   C26       1.0  0.7780932397966005  0.6106327430691342  0.9721889182499353  1.0000
  C   C27       1.0  0.7759113749782816  0.5974989972055567  0.8228724745360219  1.0000
  C   C28       1.0  0.8426610405838371  0.5635543762370145  0.749611247485094  1.0000
  C   C29       1.0  0.9110273876481709  0.5426065689314643  0.8234400103524937  1.0000
  N   N3        1.0  0.706377975517779  0.6199445689731875  0.7459669684195385  1.0000
  O   O1        1.0  0.6412619718817875  0.6543510441974493  0.8179537882197803  1.0000
  O   O2        1.0  0.7039263395318885  0.6081890517047122  0.6129600419637877  1.0000
  H   H19       1.0  0.07546518513454578  0.38129056265829675  0.08860206027008832  1.0000
  H   H20       1.0  0.7276656725528547  0.6371894358365382  0.031510294209616374  1.0000
  Zn  Zn1       1.0  0.8291782673125341  0.5513313388603198  0.4008782593553508  1.0000
  Zn  Zn2       1.0  0.9937686736937309  0.5426944525781174  0.3981515831935061  1.0000
  C   C30       1.0  0.9111668779025988  0.538529195063636  0.6631536642152285  1.0000
  C   C31       1.0  0.911781869410957  0.5554983196196757  0.13587629804764734  1.0000
  C   C32       1.0  0.9128016725519041  0.8103801131879091  0.3948915432316358  1.0000
  C   C33       1.0  0.9101470098179749  0.28364567155009524  0.40413848950002795  1.0000
  O   O3        1.0  0.9741944235355454  0.5535832563164915  0.18863492239976942  1.0000
  O   O4        1.0  0.9736746288373161  0.5338879782518215  0.6083251355217199  1.0000
  O   O5        1.0  0.974993902592367  0.7534110612428035  0.3917015952048566  1.0000
  O   O6        1.0  0.9728750937835435  0.33406018771087576  0.40525835545084865  1.0000
  O   O7        1.0  0.8500717910561095  0.7599656066765557  0.393771488020902  1.0000
  O   O8        1.0  0.8487525260781231  0.5404442565798746  0.6103949587918722  1.0000
  O   O9        1.0  0.8492723224149978  0.5601395024442631  0.19070300982072563  1.0000
  O   O10       1.0  0.8479529924933347  0.34061642240227497  0.4073265510604833  1.0000
