data_image0
_chemical_formula_structural       NC10NC3NCH9C7OC4NC3H8C7OC4NC3H9Zn2C4O8
_chemical_formula_sum              "N5 C46 H26 O10 Zn2"
_cell_length_a       19.437513618241372
_cell_length_b       10.299371701877257
_cell_length_c       10.299375074045738
_cell_angle_alpha    85.55924318392921
_cell_angle_beta     90.34040482055526
_cell_angle_gamma    89.53225479237402

_space_group_name_H-M_alt    "P 1"
_space_group_IT_number       1

loop_
  _space_group_symop_operation_xyz
  'x, y, z'

loop_
  _atom_site_type_symbol
  _atom_site_label
  _atom_site_symmetry_multiplicity
  _atom_site_fract_x
  _atom_site_fract_y
  _atom_site_fract_z
  _atom_site_occupancy
  N   N1        1.0  0.6480651776295618  0.41102149807775973  0.5761808088516017  1.0000
  C   C1        1.0  0.5891335263660145  0.4280327412910833  0.5732121177467602  1.0000
  C   C2        1.0  0.5156951584060979  0.44928672149932836  0.5695272545349715  1.0000
  C   C3        1.0  0.4739233368387942  0.3481024970478362  0.5578230522463798  1.0000
  C   C4        1.0  0.3980344840783553  0.3581703826288658  0.5506057828278514  1.0000
  C   C5        1.0  0.3584666100496491  0.43898940670613035  0.6163868000111249  1.0000
  C   C6        1.0  0.28228372727797146  0.4303849309899528  0.6079385305114521  1.0000
  C   C7        1.0  0.24913622468915  0.3090389572877088  0.6125289112662069  1.0000
  C   C8        1.0  0.1774010661051867  0.3026704132181819  0.6053577260515925  1.0000
  C   C9        1.0  0.1378427323183173  0.41717499985875484  0.5939582013404374  1.0000
  C   C10       1.0  0.0639930710718479  0.41046835259699743  0.5866187686407931  1.0000
  N   N2        1.0  0.0046230415074335965  0.4050767980564904  0.5807183234359333  1.0000
  C   C11       1.0  0.1702735966764832  0.5382100716988272  0.590112995093574  1.0000
  C   C12       1.0  0.24199318344836462  0.5448325776670275  0.5973463159987453  1.0000
  C   C13       1.0  0.3871579930027645  0.5312333530939293  0.7063513857422277  1.0000
  N   N3        1.0  0.4441496280769183  0.5944546535084503  0.6859739657452739  1.0000
  C   C14       1.0  0.4879908278946717  0.5852447000078701  0.5728571082068812  1.0000
  H   H1        1.0  0.49629802317929694  0.2530524132224756  0.5456595986429971  1.0000
  H   H2        1.0  0.3733140878511171  0.2886850480969154  0.4922544640375763  1.0000
  H   H3        1.0  0.278577467456565  0.21912277132713798  0.6235108358692207  1.0000
  H   H4        1.0  0.1527980664607639  0.2084430762688674  0.6092037527152953  1.0000
  H   H5        1.0  0.1401469782893066  0.6274703064466658  0.5814430380412108  1.0000
  H   H6        1.0  0.2661147026541662  0.6394727182354949  0.5934850098709503  1.0000
  H   H7        1.0  0.3571557958200449  0.5515805365612323  0.7907308816184921  1.0000
  H   H8        1.0  0.5307503714999877  0.6555540155838071  0.5786516119626759  1.0000
  H   H9        1.0  0.4583276221323767  0.6133943584612789  0.4822196689143074  1.0000
  C   C15       1.0  0.8263114282404805  0.02667928015794252  0.5783221705437211  1.0000
  C   C16       1.0  0.8296627155278795  0.036016397700667765  0.4416964424394527  1.0000
  C   C17       1.0  0.8305718019849189  0.9235699172827593  0.3727138706590871  1.0000
  C   C18       1.0  0.8296712065408637  0.8007478193796058  0.4420139544583858  1.0000
  C   C19       1.0  0.8263833851102544  0.7894088373193946  0.5785883050772155  1.0000
  C   C20       1.0  0.8245415056314588  0.9029791789079422  0.6459340604653381  1.0000
  C   C21       1.0  0.8348330819985188  0.933273442344651  0.22851443616536324  1.0000
  O   O1        1.0  0.8679497861051679  0.8469954258327853  0.17398861015539002  1.0000
  C   C22       1.0  0.8015139425710913  0.04077346480062194  0.14617614499866138  1.0000
  C   C23       1.0  0.8309873488087275  0.08497209157447783  0.02657789437585123  1.0000
  C   C24       1.0  0.7994825380970436  0.1854306144120474  0.947384175576615  1.0000
  C   C25       1.0  0.8302908049863127  0.2307918701243161  0.8256167075164265  1.0000
  N   N4        1.0  0.8550592790803481  0.26725270639388676  0.7277333605165164  1.0000
  C   C26       1.0  0.7379907308632041  0.241618958806526  0.9867744967139345  1.0000
  C   C27       1.0  0.7079366468660973  0.1972200497741263  0.10462576347592911  1.0000
  C   C28       1.0  0.7392439186928522  0.09706229920957063  0.18380557049584764  1.0000
  H   H10       1.0  0.8323404741533679  0.13091564704931424  0.38884254722312  1.0000
  H   H11       1.0  0.830881953910658  0.7139103190830793  0.3890157505651062  1.0000
  H   H12       1.0  0.8219582844158312  0.8949770455142599  0.7512627634024867  1.0000
  H   H13       1.0  0.8256994250235747  0.4575828320181974  0.6311062100551325  1.0000
  H   H14       1.0  0.8787016888510796  0.042097458283667524  0.9956074112426719  1.0000
  H   H15       1.0  0.7131924551063655  0.31927160645501956  0.9262178896651303  1.0000
  H   H16       1.0  0.6601049015145865  0.24011326537791072  0.13444171694482399  1.0000
  H   H17       1.0  0.7143823162545991  0.06273255089598727  0.27364781335399124  1.0000
  C   C29       1.0  0.8263708060881136  0.4081860339820609  0.1970688264238138  1.0000
  C   C30       1.0  0.8793377279858428  0.5004140182784891  0.18933175622480536  1.0000
  C   C31       1.0  0.9055183826697034  0.5480203989210648  0.06816553585232676  1.0000
  C   C32       1.0  0.8792263126737797  0.5001781398232179  0.9541049394787544  1.0000
  C   C33       1.0  0.8263239827424642  0.40790212984604723  0.9598416876254201  1.0000
  C   C34       1.0  0.8000790076055787  0.3626933835087826  0.08180419686009309  1.0000
  C   C35       1.0  0.9619417179739405  0.6443986905443245  0.05993987037595105  1.0000
  O   O2        1.0  0.005907601985671421  0.6389806378718067  0.970862814487049  1.0000
  C   C36       1.0  0.9684782854366143  0.7469353715874607  0.15268524673673856  1.0000
  C   C37       1.0  0.033907821655943415  0.792405584018333  0.1852906501029541  1.0000
  C   C38       1.0  0.04058397639317147  0.8903062461806112  0.27162642560414296  1.0000
  C   C39       1.0  0.10777514224421636  0.935537759046543  0.30528528363439844  1.0000
  N   N5        1.0  0.16178926937339333  0.9718931825520735  0.3323394501843999  1.0000
  C   C40       1.0  0.9818370748463323  0.944136870093721  0.32509062165443064  1.0000
  C   C41       1.0  0.9166369242474348  0.9006744866917473  0.29198788369484946  1.0000
  C   C42       1.0  0.9098239642788577  0.8030460904059233  0.20592601987397496  1.0000
  H   H18       1.0  0.7271394065521861  0.23266532333719203  0.4191131686921321  1.0000
  H   H19       1.0  0.9008202764432606  0.5342572141796877  0.2778002856600812  1.0000
  H   H20       1.0  0.8997085094880084  0.5360725649738665  0.8606330352501818  1.0000
  H   H21       1.0  0.7592456095835882  0.29159167343107084  0.08696509651861528  1.0000
  H   H22       1.0  0.8063979609146734  0.3716475417986742  0.6346552735132747  1.0000
  H   H23       1.0  0.07964241061783262  0.7509228823847507  0.1444778452803559  1.0000
  H   H24       1.0  0.9864337965470018  0.01993834790978167  0.3918546973250418  1.0000
  H   H25       1.0  0.8712451960248876  0.9431301714469617  0.3326565734045719  1.0000
  H   H26       1.0  0.8587186266658533  0.7725045579617598  0.1799614224250139  1.0000
  Zn  Zn1       1.0  0.7509600797896686  0.4093024940451681  0.5774977456263211  1.0000
  Zn  Zn2       1.0  0.9017281438958487  0.406785128544086  0.5794120533003531  1.0000
  C   C43       1.0  0.8263308275556259  0.4027821073819697  0.8156594312999534  1.0000
  C   C44       1.0  0.8263590426592272  0.41330712629358207  0.3412505165749653  1.0000
  C   C45       1.0  0.8263665582212888  0.6452387166642448  0.5733625493760359  1.0000
  C   C46       1.0  0.8263232603955167  0.17084895753841423  0.5835474665430334  1.0000
  O   O3        1.0  0.8835707888044596  0.41406481881251644  0.3903656767145438  1.0000
  O   O4        1.0  0.8835485534619621  0.40011281311002755  0.7679968121858571  1.0000
  O   O5        1.0  0.8835766350485719  0.5958996037633737  0.5723403564195335  1.0000
  O   O6        1.0  0.8835426557777736  0.2182780383446676  0.5860220344517497  1.0000
  O   O7        1.0  0.7691455164580033  0.5978095851050567  0.5708877638148345  1.0000
  O   O8        1.0  0.7691174350197009  0.4020243547850718  0.7665441508769175  1.0000
  O   O9        1.0  0.7691396704994935  0.4159763158119633  0.38891145391806403  1.0000
  O   O10       1.0  0.7691115374631432  0.22018952601908712  0.5845679090242979  1.0000
