data_image0
_chemical_formula_structural       NC8NH4C6ClH5C9H8Zn2C4O8
_chemical_formula_sum              "N2 C27 H17 Cl1 Zn2 O8"
_cell_length_a       13.859017124695912
_cell_length_b       10.30297070629231
_cell_length_c       9.275155815604961
_cell_angle_alpha    86.05280978821669
_cell_angle_beta     90.3574901998649
_cell_angle_gamma    89.99834178165982

_space_group_name_H-M_alt    "P 1"
_space_group_IT_number       1

loop_
  _space_group_symop_operation_xyz
  'x, y, z'

loop_
  _atom_site_type_symbol
  _atom_site_label
  _atom_site_symmetry_multiplicity
  _atom_site_fract_x
  _atom_site_fract_y
  _atom_site_fract_z
  _atom_site_occupancy
  N   N1        1.0  0.9019208673938723  0.40850779152356864  0.4102630682738999  1.0000
  C   C1        1.0  0.8293323104940497  0.3874936875288  0.35410451101351315  1.0000
  C   C2        1.0  0.739036471699175  0.3613552095288475  0.2842504833231634  1.0000
  C   C3        1.0  0.651705091288488  0.38683756817705706  0.35234937163767244  1.0000
  C   C4        1.0  0.5638061493968165  0.3613563085723539  0.2842499040879265  1.0000
  C   C5        1.0  0.5634209097196095  0.31038577663430034  0.1480306447806352  1.0000
  C   C6        1.0  0.6505708223467616  0.2850013611541329  0.0801938873127368  1.0000
  C   C7        1.0  0.7382862735599659  0.3103836706952865  0.1480318230020139  1.0000
  C   C8        1.0  0.4740924696784742  0.38749451778768945  0.35410401305045935  1.0000
  N   N2        1.0  0.4019719920739884  0.4085080802751331  0.4102628522869618  1.0000
  H   H1        1.0  0.6521444790594257  0.42629073528332295  0.4577863418848296  1.0000
  H   H2        1.0  0.4959020973447993  0.290330183876355  0.09442936496808052  1.0000
  H   H3        1.0  0.6501323904250732  0.245628769368945  0.9749704447463808  1.0000
  H   H4        1.0  0.8053583231437842  0.2903261945260227  0.09443154230716685  1.0000
  C   C9        1.0  0.15195105585202318  0.027260548218045466  0.41026918683479313  1.0000
  C   C10       1.0  0.2517007026074325  0.024332832006375156  0.43802915566343364  1.0000
  C   C11       1.0  0.3011938145465685  0.9059233326728695  0.45180281052648685  1.0000
  C   C12       1.0  0.25170070155398333  0.789224862810803  0.438029087881604  1.0000
  C   C13       1.0  0.15195106649400025  0.7897454906705719  0.4102692693380521  1.0000
  C   C14       1.0  0.10256247747164471  0.9093567467761069  0.39652457059555424  1.0000
  Cl  Cl1       1.0  0.42580488888204693  0.9037694337495025  0.48648152619272705  1.0000
  H   H5        1.0  0.114377107601219  0.3556664797046649  0.3998116858789773  1.0000
  H   H6        1.0  0.29137356080657595  0.11369367166646606  0.44906984617901746  1.0000
  H   H7        1.0  0.29137352221631585  0.698492478035294  0.4490697426310786  1.0000
  H   H8        1.0  0.02563252266264304  0.9106863628793096  0.3751152037755587  1.0000
  H   H9        1.0  0.114377104032378  0.4626385151387528  0.3998119579881583  1.0000
  C   C15       1.0  0.1501831669158171  0.4052213935043328  0.9870379679122667  1.0000
  C   C16       1.0  0.07470055580240476  0.4684813556353731  0.05485287024948393  1.0000
  C   C17       1.0  0.005680818423966727  0.5403696634640172  0.9735681301065394  1.0000
  C   C18       1.0  0.010863720979146228  0.550503361763627  0.8229863309644262  1.0000
  C   C19       1.0  0.08440463726227422  0.48654586178625125  0.7534630645723945  1.0000
  C   C20       1.0  0.1537189558741312  0.4117845693506972  0.8335003923016955  1.0000
  C   C21       1.0  0.939893564482657  0.6254247949849194  0.7393889732956649  1.0000
  C   C22       1.0  0.8804688435269042  0.688161263795442  0.669360952894134  1.0000
  C   C23       1.0  0.8083676302931945  0.764281361170834  0.5843823139502988  1.0000
  H   H10       1.0  0.374143726173654  0.3004750360646  0.09999572530145871  1.0000
  H   H11       1.0  0.07036559869016967  0.4648825228014046  0.17164440991797053  1.0000
  H   H12       1.0  0.9487409272697432  0.5891664661600498  0.028381184078211327  1.0000
  H   H13       1.0  0.08618742811778835  0.4926507376240048  0.6363167681990354  1.0000
  H   H14       1.0  0.3031541974641847  0.33660082611278597  0.5599179443295297  1.0000
  H   H15       1.0  0.8279749885047815  0.7680115462943529  0.46838331855313564  1.0000
  H   H16       1.0  0.7365043926416222  0.7180500622853554  0.5994086212435427  1.0000
  H   H17       1.0  0.8059257008964887  0.8645289524325784  0.6208870453694915  1.0000
  Zn  Zn1       1.0  0.046224858071034484  0.408504473191224  0.41027133326655507  1.0000
  Zn  Zn2       1.0  0.2576680431385747  0.40850089970821085  0.4102664081908016  1.0000
  C   C24       1.0  0.15304847789958576  0.4053719899295709  0.6735009042024938  1.0000
  C   C25       1.0  0.15084673285398975  0.4116350221253229  0.14703697865940724  1.0000
  C   C26       1.0  0.15192212394506877  0.645575045009233  0.4045259686082169  1.0000
  C   C27       1.0  0.15197301497863158  0.17143040783706723  0.41601199109415754  1.0000
  O   O1        1.0  0.23131101843207236  0.4137804744247791  0.20073223923435354  1.0000
  O   O2        1.0  0.23306467559242838  0.4032228428118734  0.6198014907263916  1.0000
  O   O3        1.0  0.23215405509442855  0.5971898592089955  0.40260232721696804  1.0000
  O   O4        1.0  0.23222156632743873  0.21981346647824848  0.4179312946821119  1.0000
  O   O5        1.0  0.07167126272695712  0.5971919064237605  0.40260644676934443  1.0000
  O   O6        1.0  0.07258188289961898  0.40322644923780576  0.6198055334323938  1.0000
  O   O7        1.0  0.07082821856527977  0.4137840221736009  0.20073454914695024  1.0000
  O   O8        1.0  0.07173876690806624  0.2198170057790525  0.4179337126504736  1.0000
