data_image0
_chemical_formula_structural       NC6NC2H4C6BrH5C6NCH7Zn2C4O8
_chemical_formula_sum              "N3 C25 H16 Br1 Zn2 O8"
_cell_length_a       14.927258858638513
_cell_length_b       9.276564384272257
_cell_length_c       9.273390368590327
_cell_angle_alpha    86.11919172510322
_cell_angle_beta     89.9908392513429
_cell_angle_gamma    90.58593300640023

_space_group_name_H-M_alt    "P 1"
_space_group_IT_number       1

loop_
  _space_group_symop_operation_xyz
  'x, y, z'

loop_
  _atom_site_type_symbol
  _atom_site_label
  _atom_site_symmetry_multiplicity
  _atom_site_fract_x
  _atom_site_fract_y
  _atom_site_fract_z
  _atom_site_occupancy
  N   N1        1.0  0.8536489974466516  0.5613236148000442  0.4088728111069051  1.0000
  C   C1        1.0  0.776122506097464  0.5613235864032919  0.4088728217176596  1.0000
  C   C2        1.0  0.6796899992862271  0.5613237009700687  0.40887277176993786  1.0000
  C   C3        1.0  0.6324910938749739  0.5362874902432997  0.2822309955510496  1.0000
  C   C4        1.0  0.5387797826985969  0.5362875144610415  0.282230862096708  1.0000
  C   C5        1.0  0.49187393416558295  0.5613235236206695  0.40887279054546344  1.0000
  C   C6        1.0  0.39544136036282873  0.5613236381903475  0.408872740591816  1.0000
  N   N2        1.0  0.31791486901364124  0.5613236097935952  0.4088727512025707  1.0000
  C   C7        1.0  0.5390727725853187  0.5863597343503395  0.535514566758426  1.0000
  C   C8        1.0  0.6327840837616961  0.5863597101325981  0.5355147002127676  1.0000
  H   H1        1.0  0.6680732814661905  0.5168079053728385  0.1836964253116371  1.0000
  H   H2        1.0  0.5029696272106258  0.5168081028549645  0.18369642021068344  1.0000
  H   H3        1.0  0.5034906519129336  0.6058393100516126  0.6340492450710833  1.0000
  H   H4        1.0  0.6685942398624966  0.6058392202348537  0.6340492520246443  1.0000
  C   C9        1.0  0.08308717857029713  0.13784655400674437  0.4092413542633331  1.0000
  C   C10       1.0  0.07161094158520825  0.21994621059913852  0.2775117498061752  1.0000
  C   C11       1.0  0.0684718396861117  0.15357078244275635  0.14701256490094083  1.0000
  C   C12       1.0  0.07678914613468146  0.0041503668585522995  0.1457650741259644  1.0000
  C   C13       1.0  0.08668725820732792  0.9203362164746395  0.27550270465551674  1.0000
  C   C14       1.0  0.0884852089788014  0.9847896563199179  0.40851665497538714  1.0000
  Br  Br1       1.0  0.07315343341335571  0.9138899911947238  0.9666973914798547  1.0000
  H   H5        1.0  0.05681050603070606  0.4028886060649859  0.6435604660833589  1.0000
  H   H6        1.0  0.06719010710800521  0.33657638672715806  0.2750443068438253  1.0000
  H   H7        1.0  0.06042468950517299  0.21872432419306426  0.04661846987159724  1.0000
  H   H8        1.0  0.09083228669966004  0.8040632177096558  0.27239531323094024  1.0000
  H   H9        1.0  0.1378970904152409  0.6892420626404268  0.6329929866236108  1.0000
  C   C15       1.0  0.08579905167829388  0.5568211465572037  0.9856371044294407  1.0000
  C   C16       1.0  0.1680591761465743  0.5539558251894741  0.059242037623344235  1.0000
  C   C17       1.0  0.24896962114729126  0.5644960739681512  0.9838182267682036  1.0000
  C   C18       1.0  0.24967646815309674  0.5782923177426866  0.8321784338171052  1.0000
  C   C19       1.0  0.16794687394936547  0.578725657517317  0.757765979450356  1.0000
  C   C20       1.0  0.0857733534069609  0.5658151192179801  0.8321209435553842  1.0000
  N   N3        1.0  0.33211160629690184  0.5904929787955646  0.7513797191090505  1.0000
  C   C21       1.0  0.42056253015345524  0.5906629376190233  0.8183677669067806  1.0000
  H   H10       1.0  0.9439601492697008  0.48755040047242004  0.27153637633080724  1.0000
  H   H11       1.0  0.3106840393646475  0.5631691105754157  0.044940363368229486  1.0000
  H   H12       1.0  0.8762864817298822  0.45378097592339994  0.7367257283341737  1.0000
  H   H13       1.0  0.3292658520482039  0.6000502409707911  0.6384957084990077  1.0000
  H   H14       1.0  0.4269660857120343  0.6831703984636854  0.8877571502399503  1.0000
  H   H15       1.0  0.4308328893623387  0.48758096990670236  0.8840099039105453  1.0000
  H   H16       1.0  0.4731310738279548  0.6015648238498077  0.733467869572241  1.0000
  Zn  Zn1       1.0  0.9876260823844797  0.5613198376883902  0.4088811251697657  1.0000
  Zn  Zn2       1.0  0.18393771931417624  0.5613157004351299  0.4088762702140756  1.0000
  C   C22       1.0  0.08573957813873667  0.5583701223775999  0.67212229530489  1.0000
  C   C23       1.0  0.08582637886953531  0.5642672367487301  0.1456352399309524  1.0000
  C   C24       1.0  0.08746042651231473  0.8246383807319855  0.4029102896956971  1.0000
  C   C25       1.0  0.08410545246350835  0.29799724663148813  0.4148473238650072  1.0000
  O   O1        1.0  0.16033475315472978  0.5667583512573146  0.19933023875879186  1.0000
  O   O2        1.0  0.16022718701995642  0.5558747754843768  0.6184231977157729  1.0000
  O   O3        1.0  0.16161578951375158  0.7708897774716685  0.4010325972086391  1.0000
  O   O4        1.0  0.15894608374210428  0.3517433584392118  0.4167207311926804  1.0000
  O   O5        1.0  0.012617650965034654  0.7708921796872091  0.4010366641852352  1.0000
  O   O6        1.0  0.011229059512171354  0.5558789094656753  0.6184271863615809  1.0000
  O   O7        1.0  0.011336625438888252  0.56676241657428  0.19933249461042535  1.0000
  O   O8        1.0  0.00994795595357645  0.35174741458988934  0.4167230951116334  1.0000
