data_image0
_chemical_formula_structural       NC5NC4H6C6BrH5C6NCOH5Zn2C4O8
_chemical_formula_sum              "N3 C26 H16 Br1 O9 Zn2"
_cell_length_a       13.854160002989762
_cell_length_b       9.276564384272257
_cell_length_c       9.273733555595832
_cell_angle_alpha    86.1252681461469
_cell_angle_beta     90.01106291040419
_cell_angle_gamma    90.58592978602583

_space_group_name_H-M_alt    "P 1"
_space_group_IT_number       1

loop_
  _space_group_symop_operation_xyz
  'x, y, z'

loop_
  _atom_site_type_symbol
  _atom_site_label
  _atom_site_symmetry_multiplicity
  _atom_site_fract_x
  _atom_site_fract_y
  _atom_site_fract_z
  _atom_site_occupancy
  N   N1        1.0  0.9193928942802688  0.5611486711971497  0.40894364798063454  1.0000
  C   C1        1.0  0.8472208601583434  0.5857246989315257  0.3498902522204683  1.0000
  C   C2        1.0  0.7574378357028206  0.6162979369361213  0.2764255669961415  1.0000
  C   C3        1.0  0.6696792996106  0.5875869881193814  0.3481563407029711  1.0000
  C   C4        1.0  0.5822954234249818  0.6162979510156066  0.2764255438170786  1.0000
  C   C5        1.0  0.4921127178038919  0.5857245526086203  0.3498903439441179  1.0000
  N   N2        1.0  0.41961932324768647  0.5611486077050201  0.40894364794731985  1.0000
  C   C6        1.0  0.5827068732641207  0.6743264014526322  0.13298245419582977  1.0000
  C   C7        1.0  0.6704473767333385  0.7051861706723634  0.06114646025565662  1.0000
  C   C8        1.0  0.6708255012529627  0.7633324561437455  0.9062169259742395  1.0000
  C   C9        1.0  0.7577839622724172  0.6743263991587151  0.1329823639403751  1.0000
  H   H1        1.0  0.6693853881242691  0.542562812445293  0.45917875159668453  1.0000
  H   H2        1.0  0.5149717891037361  0.6955137655974502  0.07732793078818756  1.0000
  H   H3        1.0  0.7361416182477432  0.8312316906372422  0.8823787564267787  1.0000
  H   H4        1.0  0.6064331406151106  0.8312316932123082  0.8823788214944227  1.0000
  H   H5        1.0  0.6701912543895695  0.6720484745050355  0.8347559479849601  1.0000
  H   H6        1.0  0.8257947489385512  0.6955138771542171  0.07732784528787427  1.0000
  C   C10       1.0  0.16660270914096675  0.13767162769129618  0.40931221119437805  1.0000
  C   C11       1.0  0.15420634612030426  0.21975680899413777  0.277588458285283  1.0000
  C   C12       1.0  0.1507931775073427  0.1533670399218823  0.14709507157862922  1.0000
  C   C13       1.0  0.15975442027107545  0.003946486402921498  0.1458476375563169  1.0000
  C   C14       1.0  0.1704499498791407  0.920146592559865  0.2755795048000489  1.0000
  C   C15       1.0  0.1724186819717397  0.984614649817347  0.40858754496543015  1.0000
  Br  Br1       1.0  0.15579466658898022  0.9136664324288958  0.9667879111583874  1.0000
  H   H7        1.0  0.13834625192877414  0.40273943295278225  0.6436209069335501  1.0000
  H   H8        1.0  0.14944250330489228  0.3363867144093131  0.2751211242611111  1.0000
  H   H9        1.0  0.14209893235468152  0.21850954965763947  0.046705436256724735  1.0000
  H   H10       1.0  0.1749153026980667  0.803873251888114  0.2724722521098013  1.0000
  H   H11       1.0  0.22571103936861472  0.6890917200089687  0.633053909913053  1.0000
  C   C16       1.0  0.16942426171695207  0.5565996678954033  0.9857267845348456  1.0000
  C   C17       1.0  0.08065315959572025  0.5483226784597639  0.059685326672643584  1.0000
  C   C18       1.0  0.9928401105748967  0.5517322825127009  0.9847329226756768  1.0000
  C   C19       1.0  0.9938046247262493  0.5681064193102141  0.8333711785442562  1.0000
  C   C20       1.0  0.08110958531195828  0.574231532473232  0.7582104849271463  1.0000
  C   C21       1.0  0.16959712137657348  0.5656866185137495  0.8321730424874816  1.0000
  N   N3        1.0  0.9038050397526541  0.5466744292949763  0.06475173392385702  1.0000
  C   C22       1.0  0.816387864748677  0.4802679254857325  0.01802612525991254  1.0000
  O   O1        1.0  0.8153562417205584  0.403951901496433  0.910740587799356  1.0000
  H   H12       1.0  0.3975660282060556  0.6567335783774693  0.08195456431308368  1.0000
  H   H13       1.0  0.9272091961176228  0.5777078886225593  0.7727483495832588  1.0000
  H   H14       1.0  0.3239737122673862  0.627033352097826  0.547014320219771  1.0000
  H   H15       1.0  0.9037226673703082  0.5850180410750396  0.1681379262913405  1.0000
  H   H16       1.0  0.750498359710096  0.49236199797886737  0.07843661704943417  1.0000
  Zn  Zn1       1.0  0.06374741693674268  0.5611448814438831  0.4089519829488352  1.0000
  Zn  Zn2       1.0  0.2752647231476  0.5611407237950266  0.4089471593820069  1.0000
  C   C23       1.0  0.1695228450357615  0.5582240851462779  0.672181471611458  1.0000
  C   C24       1.0  0.16949161733471263  0.5640633411105926  0.14571781056551303  1.0000
  C   C25       1.0  0.17131319470374295  0.8244627582204884  0.4029814286403814  1.0000
  C   C26       1.0  0.16770118360869835  0.2978229362821414  0.4149179318579592  1.0000
  O   O2        1.0  0.24978389466811712  0.5665603489031146  0.19941043530165525  1.0000
  O   O3        1.0  0.2497673013837559  0.5557228294438405  0.618484771955851  1.0000
  O   O4        1.0  0.25121194961459903  0.7707139411080317  0.40110383136353195  1.0000
  O   O5        1.0  0.24833917430951685  0.35156924639624165  0.41679126782552145  1.0000
  O   O6        1.0  0.09067289359435882  0.7707163588455757  0.40110787449938456  1.0000
  O   O7        1.0  0.0892282572410823  0.5557269789385318  0.6184887367643985  1.0000
  O   O8        1.0  0.08924484989068393  0.5665644295430472  0.19941266739302455  1.0000
  O   O9        1.0  0.0878001294793746  0.3515733178817628  0.4167936079794081  1.0000
