data_image0
_chemical_formula_structural       NC8NH4C9H8C6NCOH5Zn2C4O8
_chemical_formula_sum              "N3 C28 H17 O9 Zn2"
_cell_length_a       13.859017124695912
_cell_length_b       9.275152443626249
_cell_length_c       9.273733555595829
_cell_angle_alpha    85.97646638804791
_cell_angle_beta     90.01104731116409
_cell_angle_gamma    90.57357307376715

_space_group_name_H-M_alt    "P 1"
_space_group_IT_number       1

loop_
  _space_group_symop_operation_xyz
  'x, y, z'

loop_
  _atom_site_type_symbol
  _atom_site_label
  _atom_site_symmetry_multiplicity
  _atom_site_fract_x
  _atom_site_fract_y
  _atom_site_fract_z
  _atom_site_occupancy
  N   N1        1.0  0.9188460950344641  0.5616636522675608  0.4048777115420401  1.0000
  C   C1        1.0  0.8463271208489211  0.5381949454029019  0.3488008853916713  1.0000
  C   C2        1.0  0.7561178367446596  0.5090032976438597  0.2790485192891099  1.0000
  C   C3        1.0  0.6687020811125779  0.5374621828208876  0.34704829792032466  1.0000
  C   C4        1.0  0.5808875249825471  0.5090045175972586  0.279047935840274  1.0000
  C   C5        1.0  0.5806710789686036  0.4520802407880981  0.14302691861775885  1.0000
  C   C6        1.0  0.6679050409500276  0.4237307400842586  0.07528888989165683  1.0000
  C   C7        1.0  0.7555364223367214  0.45207790331190795  0.14302810491186735  1.0000
  C   C8        1.0  0.4910872882393514  0.5381958668734567  0.34880038424655324  1.0000
  N   N2        1.0  0.41889722274110563  0.561663972650285  0.40487749444917  1.0000
  H   H1        1.0  0.6690108241746469  0.5815237749174043  0.45233182114584786  1.0000
  H   H2        1.0  0.5132186926639687  0.4296819973013947  0.08950364200790517  1.0000
  H   H3        1.0  0.6675969942059664  0.3797591312729434  0.970218580992944  1.0000
  H   H4        1.0  0.8226748799019014  0.4296775692265397  0.0895058346403792  1.0000
  C   C9        1.0  0.16603019420762566  0.13804733282970047  0.4063489689943327  1.0000
  C   C10       1.0  0.13119774332044765  0.21947182021582698  0.28391189970303143  1.0000
  C   C11       1.0  0.10533390865091707  0.15269095007993316  0.1591824992339792  1.0000
  C   C12       1.0  0.11389631059582439  0.003297877080307591  0.15442056269711846  1.0000
  C   C13       1.0  0.14684172482300273  0.9201741290373122  0.2758228807587999  1.0000
  C   C14       1.0  0.1717222903858211  0.9852693867046778  0.4034187220331231  1.0000
  C   C15       1.0  0.08772847558341512  0.9347612068998834  0.025255423840039093  1.0000
  C   C16       1.0  0.06581902656040839  0.877344322580748  0.9170998717041662  1.0000
  C   C17       1.0  0.03923624040925212  0.8076670877884669  0.785872077532416  1.0000
  H   H5        1.0  0.304734861747858  0.22278991157678063  0.6941735254038699  1.0000
  H   H6        1.0  0.12611491120533236  0.3359844341579744  0.2834585683600592  1.0000
  H   H7        1.0  0.07951727628487992  0.2179282962313629  0.0658430384381481  1.0000
  H   H8        1.0  0.15090341901374682  0.8038209254922776  0.27180246214138726  1.0000
  H   H9        1.0  0.26201547974570216  0.6920842137253829  0.6002810569574251  1.0000
  H   H10       1.0  0.056878178346310836  0.6910898640068923  0.7993359876317561  1.0000
  H   H11       1.0  0.960698752085969  0.8200377125214776  0.7661421778805133  1.0000
  H   H12       1.0  0.07996533898255612  0.8590138145898389  0.6925852158293315  1.0000
  C   C18       1.0  0.16879049066116858  0.5571133609728898  0.9816725780517759  1.0000
  C   C19       1.0  0.08005169007893587  0.5488335705995637  0.05565271628575785  1.0000
  C   C20       1.0  0.9922689255954587  0.5522442238243997  0.9806914739751423  1.0000
  C   C21       1.0  0.9932307461275809  0.5686237547092916  0.8292870882361503  1.0000
  C   C22       1.0  0.0805042285700719  0.5747509587964408  0.7541104030734695  1.0000
  C   C23       1.0  0.16896198248520933  0.5662033047757935  0.8280951718917202  1.0000
  N   N3        1.0  0.9032657857157705  0.5471846297586844  0.060723498240404794  1.0000
  C   C24       1.0  0.815888800304452  0.48075617958351735  0.014170864614395646  1.0000
  O   O1        1.0  0.8148685176960709  0.4044150179278703  0.9070840681055166  1.0000
  H   H13       1.0  0.3968378970342461  0.6572804452667775  0.07763948509418328  1.0000
  H   H14       1.0  0.9266572753426779  0.5782283305060858  0.7686392863629488  1.0000
  H   H15       1.0  0.3232756450243286  0.6275703744820793  0.5427766199382504  1.0000
  H   H16       1.0  0.9031779260631437  0.5855408710011141  0.16400983707588201  1.0000
  H   H17       1.0  0.7500206471033215  0.4928541801629518  0.07454989198184392  1.0000
  Zn  Zn1       1.0  0.0631500276117245  0.5616599827092132  0.40488598914381213  1.0000
  Zn  Zn2       1.0  0.2745932058627778  0.5616560016370886  0.4048810778863916  1.0000
  C   C25       1.0  0.1688888057405813  0.5587383133535615  0.6681230348116454  1.0000
  C   C26       1.0  0.1688567489442092  0.5645794926124577  0.141644167321352  1.0000
  C   C27       1.0  0.17064022668073675  0.8250646810227478  0.39822965824945067  1.0000
  C   C28       1.0  0.16710524422461148  0.2982513926185588  0.4115376267147508  1.0000
  O   O2        1.0  0.24912052774784677  0.5670773904123532  0.19533025200851073  1.0000
  O   O3        1.0  0.24910549937185  0.5562363013016018  0.6144328114945703  1.0000
  O   O4        1.0  0.25051871253945235  0.7712982274646814  0.39649199521757605  1.0000
  O   O5        1.0  0.24770724247644774  0.35201547340954775  0.4132709601932376  1.0000
  O   O6        1.0  0.09003591884288409  0.771300510939602  0.3964961068310562  1.0000
  O   O7        1.0  0.08862271729955351  0.5562403171040822  0.6144368402709366  1.0000
  O   O8        1.0  0.08863774505091904  0.5670813373373951  0.1953325482470083  1.0000
  O   O9        1.0  0.08722445972814574  0.3520194111771626  0.41327336451809327  1.0000
