data_image0
_chemical_formula_structural       NC6NCNCH5C9H8C6NCOH5Zn2C4O8
_chemical_formula_sum              "N4 C28 H18 O9 Zn2"
_cell_length_a       14.933214217465613
_cell_length_b       9.275152443626249
_cell_length_c       9.273733555595832
_cell_angle_alpha    85.97646638804791
_cell_angle_beta     89.97675588165802
_cell_angle_gamma    90.60755784757023

_space_group_name_H-M_alt    "P 1"
_space_group_IT_number       1

loop_
  _space_group_symop_operation_xyz
  'x, y, z'

loop_
  _atom_site_type_symbol
  _atom_site_label
  _atom_site_symmetry_multiplicity
  _atom_site_fract_x
  _atom_site_fract_y
  _atom_site_fract_z
  _atom_site_occupancy
  N   N1        1.0  0.8527560265971381  0.5625400358102899  0.40399437299010166  1.0000
  C   C1        1.0  0.7752717779491102  0.5635264339794475  0.4030006228225307  1.0000
  C   C2        1.0  0.6788808318291799  0.5647562191234285  0.40176153963466543  1.0000
  C   C3        1.0  0.630478860856948  0.46998153111556745  0.49726210734622334  1.0000
  C   C4        1.0  0.5369519672292545  0.47105322891000023  0.49618223125343897  1.0000
  C   C5        1.0  0.4909243596903389  0.5668453136328495  0.39965651161279636  1.0000
  C   C6        1.0  0.3943361138639176  0.5647583543224077  0.4017594617622964  1.0000
  N   N2        1.0  0.3168398621866652  0.5630173651816295  0.40351341366914006  1.0000
  C   C7        1.0  0.5394323898487738  0.6628167488890337  0.302950160144678  1.0000
  N   N3        1.0  0.4947274820606904  0.7623815266148188  0.2026230897131367  1.0000
  C   C8        1.0  0.6334338144738149  0.6607888908681201  0.30499366705806175  1.0000
  H   H1        1.0  0.6650210661832443  0.3952580629810331  0.5725578394330433  1.0000
  H   H2        1.0  0.5004169974356726  0.3969583448576118  0.5708444358283054  1.0000
  H   H3        1.0  0.5315116179734745  0.8327037379610536  0.131762239107452  1.0000
  H   H4        1.0  0.4250182915387966  0.767679222545441  0.19728489086523116  1.0000
  H   H5        1.0  0.6710886773075261  0.7341382567315817  0.23108252460306167  1.0000
  C   C9        1.0  0.08216085444373357  0.1391594773749638  0.40522799843263146  1.0000
  C   C10       1.0  0.049833805794660374  0.22055074201913658  0.2828244155400792  1.0000
  C   C11       1.0  0.025830285504870435  0.15374520329164865  0.15811987943339179  1.0000
  C   C12       1.0  0.033776817465037925  0.004360297000453933  0.15334971137682807  1.0000
  C   C13       1.0  0.06435255880277713  0.9212679718682084  0.2747203571544854  1.0000
  C   C14       1.0  0.08744353382405401  0.9863869602977887  0.4022922793384687  1.0000
  C   C15       1.0  0.009491162739592161  0.9357986682768336  0.02420972913478203  1.0000
  C   C16       1.0  0.9891576000300605  0.8783608870080808  0.916075239787419  1.0000
  C   C17       1.0  0.964486840458196  0.8086582978975642  0.7848730011466256  1.0000
  H   H6        1.0  0.21088887734255107  0.22403435084320455  0.6929192102256607  1.0000
  H   H7        1.0  0.045116567791724266  0.3370585080216344  0.2823759706101683  1.0000
  H   H8        1.0  0.001870572386913015  0.21895792587243212  0.06480523762169033  1.0000
  H   H9        1.0  0.06812210651927653  0.8049186423146544  0.27069603380146545  1.0000
  H   H10       1.0  0.17124218280718687  0.6932879077967797  0.5990678103294784  1.0000
  H   H11       1.0  0.9808598423983251  0.6920979007686285  0.7983199510564463  1.0000
  H   H12       1.0  0.8915983373199531  0.8209540145881665  0.7652186040098701  1.0000
  H   H13       1.0  0.002286407169040051  0.8600438715873248  0.6915469842649418  1.0000
  C   C18       1.0  0.08472261037726136  0.5582281382532742  0.9805489538614802  1.0000
  C   C19       1.0  0.0023665472689318127  0.5498637099576096  0.054614401707191895  1.0000
  C   C20       1.0  0.9208977552164014  0.5531906371149968  0.9797375499169076  1.0000
  C   C21       1.0  0.92179039464721  0.5695710853718943  0.8283322395256132  1.0000
  C   C22       1.0  0.0027865359130245823  0.5757815297798574  0.7530716534441395  1.0000
  C   C23       1.0  0.0848817672668134  0.5673182456228651  0.8269713828366663  1.0000
  N   N4        1.0  0.8382963660080973  0.5480461530035345  0.05985513791816843  1.0000
  C   C24       1.0  0.7572041664568795  0.481534363787758  0.013386504714191894  1.0000
  O   O1        1.0  0.7562572699659099  0.4051922289997312  0.9063006890605037  1.0000
  H   H14       1.0  0.2963671950203448  0.6586127312191661  0.07629662607576093  1.0000
  H   H15       1.0  0.860005370223522  0.5791121642517478  0.767748438483018  1.0000
  H   H16       1.0  0.2280960731529101  0.6288324977082229  0.541504480459825  1.0000
  H   H17       1.0  0.838214825858254  0.5864023104465619  0.16314156121808243  1.0000
  H   H18       1.0  0.6960737280661273  0.49356954017305626  0.07382885485068935  1.0000
  Zn  Zn1       1.0  0.9866805748233676  0.5626740014798064  0.40386392308622243  1.0000
  Zn  Zn2       1.0  0.1829152277329773  0.562871692181272  0.4036557395812481  1.0000
  C   C25       1.0  0.08481385392384388  0.5598531844055992  0.6669993161055208  1.0000
  C   C26       1.0  0.0847841028845269  0.5656943330891369  0.14052047943323287  1.0000
  C   C27       1.0  0.08643929998047639  0.8261812225574665  0.3971042558036384  1.0000
  C   C28       1.0  0.08315857907447644  0.29936456253264887  0.41041562264686116  1.0000
  O   O2        1.0  0.15927472918434735  0.5682687854450137  0.19412940202488405  1.0000
  O   O3        1.0  0.1592607817580367  0.5574276820003912  0.6132319759585689  1.0000
  O   O4        1.0  0.16057234639552287  0.7724909560679452  0.3952898010800856  1.0000
  O   O5        1.0  0.1579630976292925  0.35320552046896236  0.4120714688804181  1.0000
  O   O6        1.0  0.01163263796180436  0.7723401731261426  0.3954481938505092  1.0000
  O   O7        1.0  0.01032108411248833  0.5572786313972358  0.6133902858807039  1.0000
  O   O8        1.0  0.010335030959095489  0.5681196659638239  0.19428597940975156  1.0000
  O   O9        1.0  0.009023399356361317  0.3530563918302967  0.4122281543516919  1.0000
