data_image0
_chemical_formula_structural       NC8NC6H8C6NH7C7NH5Zn2C4O8
_chemical_formula_sum              "N4 C31 H20 Zn2 O8"
_cell_length_a       17.457602349358154
_cell_length_b       9.274771166103582
_cell_length_c       10.302823150593486
_cell_angle_alpha    85.45577553533455
_cell_angle_beta     92.87590926728866
_cell_angle_gamma    92.29117059398062

_space_group_name_H-M_alt    "P 1"
_space_group_IT_number       1

loop_
  _space_group_symop_operation_xyz
  'x, y, z'

loop_
  _atom_site_type_symbol
  _atom_site_label
  _atom_site_symmetry_multiplicity
  _atom_site_fract_x
  _atom_site_fract_y
  _atom_site_fract_z
  _atom_site_occupancy
  N   N1        1.0  0.731400406605723  0.614128326990887  0.6249972705982888  1.0000
  C   C1        1.0  0.6700387540697829  0.563104547172242  0.6144462987467209  1.0000
  C   C2        1.0  0.593702310584463  0.4996373138417447  0.601330421069926  1.0000
  C   C3        1.0  0.5354217951159854  0.5442577305372194  0.6761507511982402  1.0000
  C   C4        1.0  0.46053652070841933  0.48314392665138217  0.6636462855147056  1.0000
  C   C5        1.0  0.3986789667071108  0.5302565143945448  0.7428840238249386  1.0000
  C   C6        1.0  0.324246399159817  0.5507754030464356  0.6871134339138839  1.0000
  C   C7        1.0  0.2659647445802655  0.5951914747139208  0.7620419295296158  1.0000
  C   C8        1.0  0.1900977646255337  0.6163834832682327  0.7040557683419184  1.0000
  N   N2        1.0  0.1291135898363296  0.6334147701784205  0.6574350542764376  1.0000
  C   C9        1.0  0.2816249969314817  0.6193587913816265  0.8932490469879394  1.0000
  C   C10       1.0  0.3552752635687665  0.5992720735272513  0.9494065925482159  1.0000
  C   C11       1.0  0.4135464255723822  0.5550560445765824  0.8749354329625041  1.0000
  C   C12       1.0  0.44521622262214444  0.37665708345455995  0.5748899282289891  1.0000
  C   C13       1.0  0.5034867415845528  0.33234628465331006  0.5004691025083012  1.0000
  C   C14       1.0  0.5775879445656406  0.39358493866565203  0.513523194065187  1.0000
  H   H1        1.0  0.5482303744799106  0.6277999312541391  0.742659888238471  1.0000
  H   H2        1.0  0.3118089154381272  0.5341433875464059  0.5851411896359591  1.0000
  H   H3        1.0  0.23695481365005377  0.653670003175931  0.9520250128287293  1.0000
  H   H4        1.0  0.3672086592861745  0.6176346809273832  0.051003611667228985  1.0000
  H   H5        1.0  0.469939421776582  0.5383997384750956  0.9210473674279162  1.0000
  H   H6        1.0  0.3884514910011646  0.32628843648256023  0.5643020625381048  1.0000
  H   H7        1.0  0.49119886938363777  0.25004449737574963  0.4327605300431723  1.0000
  H   H8        1.0  0.6222527988720941  0.3583074742968315  0.45525935449899524  1.0000
  C   C15       1.0  0.9279046007392876  0.2000609064511205  0.6417319467241613  1.0000
  C   C16       1.0  0.9102453310488415  0.28251330598228797  0.5241918668868861  1.0000
  C   C17       1.0  0.899751178411496  0.2169550283949082  0.4064995765681705  1.0000
  C   C18       1.0  0.9069565279656717  0.06756882930760777  0.4055043906679152  1.0000
  C   C19       1.0  0.9231967065634878  0.9837281853660259  0.5213338568964387  1.0000
  C   C20       1.0  0.9326166789668113  0.04747144938195747  0.6407122453824223  1.0000
  N   N3        1.0  0.8825634075966098  0.30252979047300177  0.2877219487107707  1.0000
  H   H9        1.0  0.01427127748884338  0.28390941554110927  0.9329079488895761  1.0000
  H   H10       1.0  0.9063759006265859  0.3989183727226614  0.5233775679312502  1.0000
  H   H11       1.0  0.8992455531042733  0.015707679230327017  0.314981671507939  1.0000
  H   H12       1.0  0.9265787338302496  0.8677281757465936  0.5178914903362044  1.0000
  H   H13       1.0  0.9876776863317575  0.7530752190260297  0.8385133368048145  1.0000
  H   H14       1.0  0.8772759730009858  0.4143472866764184  0.28724853378461  1.0000
  H   H15       1.0  0.8749246786149278  0.2546893514929722  0.19934020683586295  1.0000
  C   C21       1.0  0.9302606441627499  0.6237661784465964  0.25997400458116227  1.0000
  C   C22       1.0  0.849900235659899  0.6303243791950373  0.25157296577599486  1.0000
  C   C23       1.0  0.8099201742793409  0.6335870274427362  0.13029086217428443  1.0000
  C   C24       1.0  0.8499002202135835  0.6303242842550911  0.01627197082373954  1.0000
  C   C25       1.0  0.9302606436628488  0.6237661709284126  0.022470171167737082  1.0000
  C   C26       1.0  0.9700209727850998  0.620521303167094  0.14483373235543362  1.0000
  C   C27       1.0  0.727539000105743  0.6403099121162823  0.12280766384808373  1.0000
  N   N4        1.0  0.6613314542548117  0.6457130912563451  0.1167935825576758  1.0000
  H   H16       1.0  0.960699498139938  0.6212824285516252  0.5904783694011286  1.0000
  H   H17       1.0  0.8182071135318022  0.6329108487203932  0.3391183414515737  1.0000
  H   H18       1.0  0.8182071433772038  0.6329107439596529  0.922968807564069  1.0000
  H   H19       1.0  0.03199202534433776  0.6154638795699103  0.15046296785682967  1.0000
  H   H20       1.0  0.9606994711400336  0.6212821956842749  0.6974956672751595  1.0000
  Zn  Zn1       1.0  0.8461718187247151  0.6196901085111426  0.6343656150219305  1.0000
  Zn  Zn2       1.0  0.014342097685822184  0.6278411586523625  0.6480773532469313  1.0000
  C   C28       1.0  0.9302269520932649  0.6180179716276843  0.8783488357881206  1.0000
  C   C29       1.0  0.9302888108547362  0.6295152050940656  0.404094407447805  1.0000
  C   C30       1.0  0.9317220365550285  0.8872925959759442  0.6357311134310872  1.0000
  C   C31       1.0  0.9287936593687944  0.3602388444276112  0.6467121964287201  1.0000
  O   O1        1.0  0.9941179732903778  0.6345316172177118  0.45766607197787107  1.0000
  O   O2        1.0  0.9940351341410953  0.619186929461563  0.8351836908850638  1.0000
  O   O3        1.0  0.995241573431176  0.8366295523662204  0.6392680915686296  1.0000
  O   O4        1.0  0.9929114766725691  0.4170890018533363  0.6535815692591833  1.0000
  O   O5        1.0  0.8676023823497148  0.8304422625301857  0.6288613943237042  1.0000
  O   O6        1.0  0.8663959526955575  0.6130013731637389  0.8247769223302827  1.0000
  O   O7        1.0  0.8664787916163342  0.6283460106418868  0.4472577425818038  1.0000
  O   O8        1.0  0.8652722949379992  0.4109033849572461  0.643173337212264  1.0000
