data_image0
_chemical_formula_structural       NC8NC6H8C6FH4C6NCH8Zn2C4O8
_chemical_formula_sum              "N3 C31 H20 F1 Zn2 O8"
_cell_length_a       17.457602349358154
_cell_length_b       9.275642734913903
_cell_length_c       9.273390368590327
_cell_angle_alpha    86.08531418249576
_cell_angle_beta     92.8511133753594
_cell_angle_gamma    92.2944494432906

_space_group_name_H-M_alt    "P 1"
_space_group_IT_number       1

loop_
  _space_group_symop_operation_xyz
  'x, y, z'

loop_
  _atom_site_type_symbol
  _atom_site_label
  _atom_site_symmetry_multiplicity
  _atom_site_fract_x
  _atom_site_fract_y
  _atom_site_fract_z
  _atom_site_occupancy
  N   N1        1.0  0.7315028306672028  0.5977186549909403  0.474193916445  1.0000
  C   C1        1.0  0.6701394080193647  0.5465764379566525  0.4624607070142917  1.0000
  C   C2        1.0  0.5938007625118027  0.4829619804101162  0.44787517806570243  1.0000
  C   C3        1.0  0.5355200128621816  0.5284596973503837  0.5309537710160359  1.0000
  C   C4        1.0  0.4606326146877117  0.4672056036756372  0.5170479244047115  1.0000
  C   C5        1.0  0.39877480694592643  0.5152473044364128  0.6050314389177627  1.0000
  C   C6        1.0  0.3243445817829005  0.5351059143578767  0.5431264473273483  1.0000
  C   C7        1.0  0.26606268184620924  0.5804005862756587  0.6263250382323984  1.0000
  C   C8        1.0  0.19019813160549803  0.6009061022814686  0.5619607208243496  1.0000
  N   N2        1.0  0.12921591001631497  0.6173854519006737  0.5102119839268489  1.0000
  C   C9        1.0  0.2817203435421316  0.606112742689386  0.771992713493751  1.0000
  C   C10       1.0  0.35536827470260135  0.5866908170237486  0.8343274503991944  1.0000
  C   C11       1.0  0.41363967770147975  0.5416015588594306  0.7516366450672771  1.0000
  C   C12       1.0  0.44531043557227035  0.35968437284752547  0.41847395532843157  1.0000
  C   C13       1.0  0.503581190342201  0.3145009497410432  0.3358389901234655  1.0000
  C   C14       1.0  0.5776845071898116  0.37588636208135306  0.3503550471353323  1.0000
  H   H1        1.0  0.5483301528006441  0.6127765692704195  0.6048211676463111  1.0000
  H   H2        1.0  0.3119091981661911  0.5172730183885073  0.42991651983954426  1.0000
  H   H3        1.0  0.23704994643256036  0.6411132151296319  0.8372557593211087  1.0000
  H   H4        1.0  0.36729965027020717  0.6062496746425581  0.9471215097959558  1.0000
  H   H5        1.0  0.4700307496445354  0.5254911443537005  0.8028207141401573  1.0000
  H   H6        1.0  0.38854396125030355  0.30919677617551056  0.40670004752838396  1.0000
  H   H7        1.0  0.49129184015620514  0.23141019663349538  0.2606405438058568  1.0000
  H   H8        1.0  0.6223495224603348  0.33992579199670203  0.285660150728263  1.0000
  C   C15       1.0  0.9279898789960557  0.18389748476583498  0.4926080867161592  1.0000
  C   C16       1.0  0.9131388598886531  0.2650923346394436  0.36105974619989145  1.0000
  C   C17       1.0  0.9055268428759906  0.1980599975632038  0.2306115955093484  1.0000
  C   C18       1.0  0.9127085004938166  0.04910472050448234  0.22941332035742534  1.0000
  C   C19       1.0  0.926172548572594  0.9662303719652121  0.3588198741015307  1.0000
  C   C20       1.0  0.9327361501871655  0.03119597956328191  0.49181093458039293  1.0000
  F   F1        1.0  0.8920594780097233  0.2781687022419552  0.1047241409560411  1.0000
  H   H9        1.0  0.007283667292113725  0.2703853976659557  0.8217203095725498  1.0000
  H   H10       1.0  0.9092205349149475  0.38150435237045405  0.35886032768408826  1.0000
  H   H11       1.0  0.9071076820248642  0.9972952584267379  0.12810672740740991  1.0000
  H   H12       1.0  0.9296383020336093  0.8501997336817598  0.35517262688029905  1.0000
  C   C21       1.0  0.9303733742615311  0.6030496332471391  0.06897120123442037  1.0000
  C   C22       1.0  0.0008410433015328917  0.6036685084791116  0.14895960019630827  1.0000
  C   C23       1.0  0.07015444194403808  0.617637785476588  0.07980677008023251  1.0000
  C   C24       1.0  0.07076194990004336  0.6314660359354056  0.9282138123973547  1.0000
  C   C25       1.0  0.0007484088353435487  0.6284372891076437  0.8474604618717527  1.0000
  C   C26       1.0  0.9303526558147859  0.6120438627905791  0.9154478297441037  1.0000
  N   N3        1.0  0.14138171518028544  0.6471605612054593  0.8538034021787726  1.0000
  C   C27       1.0  0.2171531658336517  0.6510774194658547  0.9276534421198583  1.0000
  H   H13       1.0  0.8088571897645754  0.527760079492811  0.34390668222632526  1.0000
  H   H14       1.0  0.0023953726461019044  0.5967834055141985  0.26615857113395447  1.0000
  H   H15       1.0  0.12302186680571149  0.6189249111296813  0.1457175284297758  1.0000
  H   H16       1.0  0.0013594696065286666  0.6355742723200246  0.7303778744276369  1.0000
  H   H17       1.0  0.7508797207491456  0.49111887545818056  0.803865446878367  1.0000
  H   H18       1.0  0.1389452787875971  0.6565987039984781  0.7406930721057284  1.0000
  H   H19       1.0  0.22265209711780234  0.7438699806623847  0.9974859595683232  1.0000
  H   H20       1.0  0.2259364090439122  0.5484150940048347  0.9941521538533161  1.0000
  Zn  Zn1       1.0  0.8462742124484716  0.6033902873130623  0.4845962780309454  1.0000
  Zn  Zn2       1.0  0.014444447437484072  0.6117021165156462  0.49982143331131534  1.0000
  C   C28       1.0  0.9303226494879191  0.6045963214310298  0.7554508796285233  1.0000
  C   C29       1.0  0.930397857005004  0.6104979949740873  0.2289671377200495  1.0000
  C   C30       1.0  0.9318351802819627  0.8709773101681874  0.48621793072270747  1.0000
  C   C31       1.0  0.9288852591149811  0.3441152709094666  0.49820015990141414  1.0000
  O   O1        1.0  0.9942257661327406  0.6161457351219142  0.2884411085892171  1.0000
  O   O2        1.0  0.9941320514360927  0.6052559745635895  0.7075320354654393  1.0000
  O   O3        1.0  0.9953525788236757  0.8203619652185103  0.49012444505540054  1.0000
  O   O4        1.0  0.9930051814205062  0.40103975080280174  0.505848585729078  1.0000
  O   O5        1.0  0.8677134210772107  0.8140526501909768  0.478569120410002  1.0000
  O   O6        1.0  0.8664929033973685  0.598948392028589  0.6959766323413115  1.0000
  O   O7        1.0  0.8665866179058914  0.6098380839034954  0.2768839726946022  1.0000
  O   O8        1.0  0.8653660331300698  0.39473209041364493  0.49429155790146023  1.0000
