data_image0
_chemical_formula_structural       NC9NC5H8C6NO2H5C6NCOCH9Zn2C4O8
_chemical_formula_sum              "N4 C32 H22 O11 Zn2"
_cell_length_a       17.807436237873137
_cell_length_b       9.273392599741051
_cell_length_c       10.300272075376752
_cell_angle_alpha    85.66434630960563
_cell_angle_beta     89.39000598542044
_cell_angle_gamma    87.79638846343423

_space_group_name_H-M_alt    "P 1"
_space_group_IT_number       1

loop_
  _space_group_symop_operation_xyz
  'x, y, z'

loop_
  _atom_site_type_symbol
  _atom_site_label
  _atom_site_symmetry_multiplicity
  _atom_site_fract_x
  _atom_site_fract_y
  _atom_site_fract_z
  _atom_site_occupancy
  N   N1        1.0  0.6990961249853151  0.5421679259852612  0.5603054060014088  1.0000
  C   C1        1.0  0.6387201425795549  0.5030813028569885  0.5492029400711258  1.0000
  C   C2        1.0  0.5636190563028393  0.4544618481361822  0.5353926780689973  1.0000
  C   C3        1.0  0.5459581747978539  0.3751705713225076  0.43023386498726396  1.0000
  C   C4        1.0  0.4730395594822492  0.3278410027754576  0.4167421166101321  1.0000
  C   C5        1.0  0.4167353754771446  0.3593833403954423  0.5083758833954015  1.0000
  C   C6        1.0  0.3392409930497117  0.3092118230231088  0.4941199776676389  1.0000
  C   C7        1.0  0.2765731483048599  0.40002150889670585  0.5202413674697035  1.0000
  C   C8        1.0  0.20351344758364684  0.35246638772593264  0.5067628437866059  1.0000
  C   C9        1.0  0.13977934074645837  0.44626565200218904  0.5332541639075379  1.0000
  N   N2        1.0  0.08855014224846652  0.5216737706459167  0.5545524457102637  1.0000
  C   C10       1.0  0.1925395968194977  0.21381501047257445  0.4671370023935306  1.0000
  C   C11       1.0  0.254350155076406  0.12298993988530116  0.4410071921417493  1.0000
  C   C12       1.0  0.3272927967956076  0.17010685951507765  0.4542823000490335  1.0000
  C   C13       1.0  0.4350846885733923  0.43922370440446  0.6137550269363203  1.0000
  C   C14       1.0  0.508057321217104  0.4863418318391049  0.6270907035533051  1.0000
  H   H1        1.0  0.5884892177850917  0.3502205876678166  0.35847360742165124  1.0000
  H   H2        1.0  0.46045069587731474  0.2682397832578527  0.3337045825533973  1.0000
  H   H3        1.0  0.2844847143459618  0.50828024567252  0.5493360168141228  1.0000
  H   H4        1.0  0.1362791833333977  0.1760098031728199  0.456466148238434  1.0000
  H   H5        1.0  0.24573533561811153  0.015642688771531077  0.41071402257411954  1.0000
  H   H6        1.0  0.3743288428690852  0.09708065646887022  0.43508709254369893  1.0000
  H   H7        1.0  0.39327374499780154  0.4635743735437896  0.686808518883153  1.0000
  H   H8        1.0  0.5211672175410658  0.5472993597882035  0.709089394404252  1.0000
  C   C15       1.0  0.896117546554263  0.108271773183952  0.5565784475581683  1.0000
  C   C16       1.0  0.8865494432168326  0.19215531340467476  0.4380943118671683  1.0000
  C   C17       1.0  0.8703494952626796  0.1279444653275448  0.32401253696462406  1.0000
  C   C18       1.0  0.863181352640264  0.9779053168526658  0.32523398041275997  1.0000
  C   C19       1.0  0.8739216741732404  0.8927919798152526  0.44279524448550284  1.0000
  C   C20       1.0  0.8915359594735762  0.9555584409461763  0.5582905210756561  1.0000
  N   N3        1.0  0.8458121048256021  0.9123396554160043  0.20736166052640237  1.0000
  O   O1        1.0  0.8359533614541198  0.9959892649823402  0.09221812353896763  1.0000
  O   O2        1.0  0.8391945396036642  0.778754580002812  0.20766673029779836  1.0000
  H   H9        1.0  0.8808094220835206  0.18546742807181582  0.8755262180699864  1.0000
  H   H10       1.0  0.8898346656757017  0.3088258973606741  0.4342090564618646  1.0000
  H   H11       1.0  0.8626722135108511  0.19629095600438773  0.23487375805094168  1.0000
  H   H12       1.0  0.8702919264704343  0.7763805763611105  0.4437732432867069  1.0000
  H   H13       1.0  0.8837893264401534  0.657820212840916  0.773810014306421  1.0000
  C   C21       1.0  0.8938321244754472  0.5320613064122  0.1760819718848481  1.0000
  C   C22       1.0  0.8167382773318709  0.5702359936611447  0.17384795406215647  1.0000
  C   C23       1.0  0.7781068052660638  0.5914093257704927  0.05530822773798039  1.0000
  C   C24       1.0  0.8167476516047575  0.5699066785392031  0.9387132182919068  1.0000
  C   C25       1.0  0.893821402672431  0.5317688908651224  0.938787055555471  1.0000
  C   C26       1.0  0.932017691836401  0.5135818692527292  0.057981668602631535  1.0000
  N   N4        1.0  0.6989240866072426  0.6282834681795021  0.051559734551967384  1.0000
  C   C27       1.0  0.6611339896030166  0.7200532578652773  0.13974419080511158  1.0000
  O   O3        1.0  0.6980175070332727  0.795251149088448  0.21161189558919877  1.0000
  C   C28       1.0  0.5773069688221877  0.7350723461813007  0.13989062596522683  1.0000
  H   H14       1.0  0.9229075735963865  0.5154834196003035  0.504500474719616  1.0000
  H   H15       1.0  0.7864388022834755  0.5806869391479448  0.2644558632245595  1.0000
  H   H16       1.0  0.7863716508921653  0.584317981129739  0.8478175472809566  1.0000
  H   H17       1.0  0.9914821908552444  0.4841777108016594  0.058893110847959125  1.0000
  H   H18       1.0  0.9227886609400433  0.5152184946736256  0.6115541001071945  1.0000
  H   H19       1.0  0.667721186983536  0.5939580764210839  0.9749940433227424  1.0000
  H   H20       1.0  0.5529366150565651  0.6285723226086455  0.12766560393629334  1.0000
  H   H21       1.0  0.5565084290367669  0.7746910044842201  0.2333177362626353  1.0000
  H   H22       1.0  0.5588347028637543  0.8131249901150783  0.05845068161796152  1.0000
  Zn  Zn1       1.0  0.8114841612143482  0.5362499031128509  0.558652728623201  1.0000
  Zn  Zn2       1.0  0.9761621512613659  0.5275800296290905  0.5562157754787491  1.0000
  C   C29       1.0  0.8938528104566398  0.526077040886751  0.7946078490857507  1.0000
  C   C30       1.0  0.8937952904528729  0.5377546174146453  0.32026075954394284  1.0000
  C   C31       1.0  0.8923981801633567  0.795405439496701  0.5527920329770919  1.0000
  C   C32       1.0  0.895249873924591  0.2684244884530336  0.5620766422173948  1.0000
  O   O4        1.0  0.9562774016479384  0.536368878925795  0.36772365403585994  1.0000
  O   O5        1.0  0.9563574892082572  0.5208814578137495  0.7452949875152919  1.0000
  O   O6        1.0  0.9551820143761672  0.7383675896492424  0.550027020618761  1.0000
  O   O7        1.0  0.9574528202321524  0.31888276040623764  0.5629915244143284  1.0000
  O   O8        1.0  0.8301934360470374  0.7449471752958785  0.5518769805124075  1.0000
  O   O9        1.0  0.8313689015041681  0.5274627767722229  0.7471448816689301  1.0000
  O   O10       1.0  0.8312888142876711  0.5429501482069281  0.36957198675358405  1.0000
  O   O11       1.0  0.8324642329232369  0.32546401933161007  0.5648399544749001  1.0000
