data_image0
_chemical_formula_structural       NC9NC5H8C7OCH10C6OCH7Zn2C4O8
_chemical_formula_sum              "N2 C33 H25 O10 Zn2"
_cell_length_a       17.807436237873137
_cell_length_b       10.30083208314754
_cell_length_c       9.273891588657152
_cell_angle_alpha    86.0566932857514
_cell_angle_beta     89.08663702953788
_cell_angle_gamma    88.38439813745397

_space_group_name_H-M_alt    "P 1"
_space_group_IT_number       1

loop_
  _space_group_symop_operation_xyz
  'x, y, z'

loop_
  _atom_site_type_symbol
  _atom_site_label
  _atom_site_symmetry_multiplicity
  _atom_site_fract_x
  _atom_site_fract_y
  _atom_site_fract_z
  _atom_site_occupancy
  N   N1        1.0  0.7119944098707297  0.3744113993291726  0.3979821946223614  1.0000
  C   C1        1.0  0.6514443733623162  0.33912368401148507  0.3857596967294097  1.0000
  C   C2        1.0  0.5761267830045447  0.29522965208648566  0.3705562364346582  1.0000
  C   C3        1.0  0.5583782268062505  0.2228584213441156  0.2540369832052578  1.0000
  C   C4        1.0  0.48524900508525143  0.18012845332915917  0.23918373302493467  1.0000
  C   C5        1.0  0.4288197462475433  0.20939192165339682  0.3408138598877879  1.0000
  C   C6        1.0  0.3511019637145814  0.1640966296520916  0.3251197551916418  1.0000
  C   C7        1.0  0.288837447080588  0.24608345183133948  0.3538792827676862  1.0000
  C   C8        1.0  0.21556588731171358  0.2031505886838214  0.33904129465966326  1.0000
  C   C9        1.0  0.1522499605511856  0.2878318651543714  0.3682037111015659  1.0000
  N   N2        1.0  0.1013569463900181  0.3559097628675187  0.3916494897805418  1.0000
  C   C10       1.0  0.2039753951172688  0.07797271339832368  0.29541574013996685  1.0000
  C   C11       1.0  0.26538256976394886  0.9959719632293922  0.2666469057942018  1.0000
  C   C12       1.0  0.3385353727623787  0.03850846321857126  0.2812602389693608  1.0000
  C   C13       1.0  0.44725897241828355  0.28225948523260525  0.4575762564327695  1.0000
  C   C14       1.0  0.5204415782863056  0.32479764879297823  0.4722568165412524  1.0000
  H   H1        1.0  0.6010058849211497  0.19971789438666177  0.17444901606029561  1.0000
  H   H2        1.0  0.4726070613351003  0.12569086058889134  0.14716776878207405  1.0000
  H   H3        1.0  0.2972364118198689  0.3438045436303452  0.3858939729040429  1.0000
  H   H4        1.0  0.1475464165080723  0.04384251412510686  0.2836690109343354  1.0000
  H   H5        1.0  0.2562890914597359  0.8990598979326725  0.23329952653346983  1.0000
  H   H6        1.0  0.385241259616159  0.972594553600185  0.2601426747313409  1.0000
  H   H7        1.0  0.4053440445639581  0.3048728737972561  0.538601236733798  1.0000
  H   H8        1.0  0.5336151683819297  0.38044617474008247  0.563116180334543  1.0000
  C   C15       1.0  0.9066998002911133  0.9838239398901881  0.39496672306923486  1.0000
  C   C16       1.0  0.8862118893702108  0.9930212513888174  0.24894108869657483  1.0000
  C   C17       1.0  0.8750174829297325  0.8805504667593832  0.17586087575908893  1.0000
  C   C18       1.0  0.8861587621295444  0.7577617415222886  0.24856111761069832  1.0000
  C   C19       1.0  0.9066587198553079  0.7464870196714171  0.39467738785735595  1.0000
  C   C20       1.0  0.9166325371814946  0.860063434411872  0.4671083235894664  1.0000
  C   C21       1.0  0.8552530397918727  0.8914773801512273  0.018520733890805777  1.0000
  O   O1        1.0  0.922222265476291  0.8935400714451106  0.9350324999462529  1.0000
  C   C22       1.0  0.9044255821086656  0.9038068793953036  0.7870290259351327  1.0000
  H   H9        1.0  0.9154014848086887  0.3076859486616734  0.4504510721723751  1.0000
  H   H10       1.0  0.8788920137603198  0.08758523860333867  0.19143803291207528  1.0000
  H   H11       1.0  0.8788017319044609  0.6711779523967742  0.1907972228068393  1.0000
  H   H12       1.0  0.9324400961634738  0.8522068759106186  0.5797252781557576  1.0000
  H   H13       1.0  0.9461556388040083  0.5179557553308696  0.6698616868885208  1.0000
  H   H14       1.0  0.8207326941378085  0.9821927581561792  0.9949858830412593  1.0000
  H   H15       1.0  0.8207638184771675  0.8070991226030707  0.9946548708337418  1.0000
  H   H16       1.0  0.9575369459509645  0.9053058652025662  0.7228548859035695  1.0000
  H   H17       1.0  0.8725117457837112  0.9959867996228086  0.7574899422071919  1.0000
  H   H18       1.0  0.8725258404576101  0.8185012075408525  0.7571325316822195  1.0000
  C   C23       1.0  0.9079102366630795  0.3616578054607546  0.9715279971286089  1.0000
  C   C24       1.0  0.9694344276624208  0.4135830627225736  0.03908020091916198  1.0000
  C   C25       1.0  0.026696473851375524  0.4754075683736272  0.9583145913381294  1.0000
  C   C26       1.0  0.0226390865838535  0.4856224777902351  0.8069361571678306  1.0000
  C   C27       1.0  0.9626933632240567  0.4328359301818287  0.738016382080831  1.0000
  C   C28       1.0  0.9054482423388015  0.3686531108239283  0.8181160642970875  1.0000
  O   O2        1.0  0.08616896033188204  0.5258314776268576  0.03253368009977531  1.0000
  C   C29       1.0  0.1480336320528317  0.591233179741804  0.9644251438310242  1.0000
  H   H19       1.0  0.7292098492699284  0.2903916663410533  0.0854819754023124  1.0000
  H   H20       1.0  0.0659157131141146  0.5331532053758807  0.74129130676977  1.0000
  H   H21       1.0  0.9620867857858967  0.4395574183630219  0.6209425262462571  1.0000
  H   H22       1.0  0.7862791036804516  0.3154705271017577  0.5446339779629898  1.0000
  H   H23       1.0  0.1278615094837241  0.6800672627393665  0.9003242298335822  1.0000
  H   H24       1.0  0.17936353530901705  0.5252964632364587  0.8935274309867536  1.0000
  H   H25       1.0  0.18649075449803781  0.6204450455626807  0.048631412897267356  1.0000
  Zn  Zn1       1.0  0.8243560019668358  0.3690688305961001  0.39616305059189827  1.0000
  Zn  Zn2       1.0  0.9889953022050946  0.36124184424460676  0.39348048815393044  1.0000
  C   C30       1.0  0.9059122272375923  0.3621577265823521  0.6580948002078741  1.0000
  C   C31       1.0  0.9074408742906305  0.36815450243739645  0.13154885010205497  1.0000
  C   C32       1.0  0.9066793025496459  0.6022801863563936  0.38898802438804236  1.0000
  C   C33       1.0  0.9066737426592895  0.12803048579907816  0.4006557042794603  1.0000
  O   O3        1.0  0.9697631087115902  0.36735888750077117  0.18423529385302673  1.0000
  O   O4        1.0  0.968547413462885  0.35701185691433585  0.6033719390642893  1.0000
  O   O5        1.0  0.9691659898625768  0.5509138323707652  0.386066326825969  1.0000
  O   O6        1.0  0.9691444764454644  0.17345692311153635  0.401540798923816  1.0000
  O   O7        1.0  0.8442067715431748  0.5568537544014881  0.3881027407298574  1.0000
  O   O8        1.0  0.8435881952794797  0.3629533384816528  0.605408275518448  1.0000
  O   O9        1.0  0.8448038956205063  0.3733003094934044  0.18626989727297816  1.0000
  O   O10       1.0  0.8441852630375237  0.1793983367092919  0.4035755104191425  1.0000
