data_image0
_chemical_formula_structural       NC6NCNCH5C6NCH9C9H8Zn2C4O8
_chemical_formula_sum              "N4 C28 H22 Zn2 O8"
_cell_length_a       14.933214217465613
_cell_length_b       9.273386996610927
_cell_length_c       9.275155815604963
_cell_angle_alpha    85.96204841331945
_cell_angle_beta     90.32327604629522
_cell_angle_gamma    89.43266693644959

_space_group_name_H-M_alt    "P 1"
_space_group_IT_number       1

loop_
  _space_group_symop_operation_xyz
  'x, y, z'

loop_
  _atom_site_type_symbol
  _atom_site_label
  _atom_site_symmetry_multiplicity
  _atom_site_fract_x
  _atom_site_fract_y
  _atom_site_fract_z
  _atom_site_occupancy
  N   N1        1.0  0.8268506498630016  0.5660068219947494  0.4068145662392144  1.0000
  C   C1        1.0  0.7493500996241627  0.5669953794753965  0.4058225965318578  1.0000
  C   C2        1.0  0.6529388291103013  0.568227857005926  0.40458573311927015  1.0000
  C   C3        1.0  0.6061032140898089  0.473245657644399  0.499915231599549  1.0000
  C   C4        1.0  0.5125586084591102  0.4743197018824894  0.4988372899319676  1.0000
  C   C5        1.0  0.4649478304349123  0.5703215254939589  0.4024844759339002  1.0000
  C   C6        1.0  0.3683940761340066  0.5682299967237951  0.40458365910166405  1.0000
  N   N2        1.0  0.290926596653754  0.5664851964347608  0.40633446850264776  1.0000
  C   C7        1.0  0.5118697263021293  0.6665030921351138  0.3059513538386973  1.0000
  N   N3        1.0  0.4655192970414359  0.766285868644439  0.2058039987994824  1.0000
  C   C8        1.0  0.6059046660938324  0.6644707938234371  0.3079912004498109  1.0000
  H   H1        1.0  0.6418803855870298  0.39835858085406795  0.5750760871010643  1.0000
  H   H2        1.0  0.4772482156433039  0.4000625857472267  0.5733657525206544  1.0000
  H   H3        1.0  0.5011412067173978  0.8367620521729799  0.13507008046708946  1.0000
  H   H4        1.0  0.3957225509501359  0.7715951638488907  0.2004753623448197  1.0000
  H   H5        1.0  0.6423472726186675  0.7379807597924524  0.23421245431183071  1.0000
  C   C9        1.0  0.0616492787224554  0.14260094909573032  0.407279896142281  1.0000
  C   C10       1.0  0.07687466650986302  0.22496945833052817  0.2769520568964645  1.0000
  C   C11       1.0  0.08366864281017672  0.15935071910256426  0.14662488416345143  1.0000
  C   C12       1.0  0.07533480705838946  0.00901268650018894  0.1432934663769012  1.0000
  C   C13       1.0  0.061685749811121404  0.9256789873488657  0.27316699999107574  1.0000
  C   C14       1.0  0.05613662892219721  0.9898800271862288  0.40588167470410563  1.0000
  N   N4        1.0  0.08136150948845855  0.9383335493631813  0.01027649905504391  1.0000
  C   C15       1.0  0.09574166199158302  0.015033084477162898  0.8696199853874576  1.0000
  H   H6        1.0  0.08084801673665992  0.4068041632810179  0.6438756020343215  1.0000
  H   H7        1.0  0.08143526174994076  0.3416048175939317  0.27517916228175565  1.0000
  H   H8        1.0  0.0945873947293841  0.22712060131952172  0.04871668684773733  1.0000
  H   H9        1.0  0.05745037832017366  0.8092539626809518  0.27089778075112325  1.0000
  H   H10       1.0  0.09044848329197053  0.8615779406247405  0.7568744437134267  1.0000
  H   H11       1.0  0.07504206402217206  0.8259856633113221  0.013271640866816542  1.0000
  H   H12       1.0  0.04013316557120984  0.09333357402202024  0.8446366184845845  1.0000
  H   H13       1.0  0.16055694823340394  0.07265364338121903  0.8697855025865633  1.0000
  H   H14       1.0  0.09767307251429114  0.9368633385003288  0.7842961065515889  1.0000
  C   C16       1.0  0.05727597257709041  0.5625922591953318  0.9833572514897688  1.0000
  C   C17       1.0  0.9867664469358681  0.6328150639340169  0.05112858049188329  1.0000
  C   C18       1.0  0.9221924547001631  0.7126319305194702  0.9697782419519125  1.0000
  C   C19       1.0  0.9269292184144124  0.7238975282687194  0.8191728854668048  1.0000
  C   C20       1.0  0.9956417836970854  0.6528977580876298  0.7496963349052681  1.0000
  C   C21       1.0  0.06050993538570192  0.5698886904802745  0.829804246954605  1.0000
  C   C22       1.0  0.8605231970064138  0.8070829627739187  0.7355062388039829  1.0000
  C   C23       1.0  0.8049200933603897  0.8767394070577853  0.6654201953639145  1.0000
  C   C24       1.0  0.7374557206654376  0.9612557252456887  0.5803711546610733  1.0000
  H   H15       1.0  0.2658814367878455  0.4464113792252646  0.09629217730054453  1.0000
  H   H16       1.0  0.9827693787469395  0.6288118695117046  0.16793087984380017  1.0000
  H   H17       1.0  0.8689961965728183  0.7668008857295812  0.0245564515669674  1.0000
  H   H18       1.0  0.9972521778077789  0.6596832472272383  0.6325371322972408  1.0000
  H   H19       1.0  0.1997379239784527  0.4864867779566948  0.5562162711879189  1.0000
  H   H20       1.0  0.7556254977952719  0.9654194778645012  0.4643465027731924  1.0000
  H   H21       1.0  0.6710967864886885  0.9098144577953459  0.5955512055328032  1.0000
  H   H22       1.0  0.7344646948459007  0.07264928595655641  0.6166943907238904  1.0000
  Zn  Zn1       1.0  0.9607730011378752  0.5661410713580208  0.4066843581883317  1.0000
  Zn  Zn2       1.0  0.15700435293811899  0.5663392139397012  0.4064765314306742  1.0000
  C   C25       1.0  0.059934055673856804  0.5627623419839813  0.6698171619571491  1.0000
  C   C26       1.0  0.05784542993969269  0.5697197669635399  0.143343863844122  1.0000
  C   C27       1.0  0.05715210025867837  0.8296767486814767  0.4004028116657967  1.0000
  C   C28       1.0  0.06062732996551534  0.30280362759279517  0.412758293904228  1.0000
  O   O1        1.0  0.132505361321811  0.572180723948108  0.1969579736611287  1.0000
  O   O2        1.0  0.1342091853195897  0.5604506787295045  0.6160449033608977  1.0000
  O   O3        1.0  0.13196172299005893  0.7759874496354333  0.39849090793711084  1.0000
  O   O4        1.0  0.13475275621086347  0.35664396236314255  0.41451186107742566  1.0000
  O   O5        1.0  0.9830245309009618  0.7758363228684684  0.3986490286049176  1.0000
  O   O6        1.0  0.9852719816556796  0.5603012845696778  0.6162029443232881  1.0000
  O   O7        1.0  0.983568151424263  0.5720312645789667  0.19711428194460323  1.0000
  O   O8        1.0  0.9858155467896251  0.356494493606927  0.41466827743172785  1.0000
