data_image0
_chemical_formula_structural       NC10NC3NH7C12OCH12C12NCOCH12Zn2C4O8
_chemical_formula_sum              "N4 C44 H31 O10 Zn2"
_cell_length_a       19.210446455230148
_cell_length_b       10.29979075500242
_cell_length_c       10.299158637457994
_cell_angle_alpha    85.57636928067032
_cell_angle_beta     89.9723271520695
_cell_angle_gamma    89.92936594805748

_space_group_name_H-M_alt    "P 1"
_space_group_IT_number       1

loop_
  _space_group_symop_operation_xyz
  'x, y, z'

loop_
  _atom_site_type_symbol
  _atom_site_label
  _atom_site_symmetry_multiplicity
  _atom_site_fract_x
  _atom_site_fract_y
  _atom_site_fract_z
  _atom_site_occupancy
  N   N1        1.0  0.6554772069349025  0.4196752825110306  0.567252682052118  1.0000
  C   C1        1.0  0.5952480767661019  0.4218828340559364  0.5674837436262121  1.0000
  C   C2        1.0  0.5204429171138666  0.4246197936525875  0.5677700000021408  1.0000
  C   C3        1.0  0.48480094107086313  0.5408531898100892  0.5828772406705949  1.0000
  C   C4        1.0  0.41213543169825684  0.5410047063927605  0.582824636922957  1.0000
  C   C5        1.0  0.3752759735328577  0.4253287761972473  0.5678564554049046  1.0000
  C   C6        1.0  0.2979542053022681  0.42397227535928556  0.5677059166054244  1.0000
  C   C7        1.0  0.26018371520436523  0.5275195380646719  0.504339617411947  1.0000
  C   C8        1.0  0.18740572601967162  0.5261172969332402  0.5042305984410786  1.0000
  C   C9        1.0  0.1513967593453101  0.42142528081878383  0.5674368712612685  1.0000
  C   C10       1.0  0.07646758473060451  0.4201231776212653  0.5673000936633594  1.0000
  N   N2        1.0  0.0162300101521966  0.4190762424542729  0.5671901593525084  1.0000
  C   C11       1.0  0.1884435643572184  0.3180036998277185  0.6307781568230098  1.0000
  C   C12       1.0  0.2612234633410679  0.31913169504752315  0.630937432898735  1.0000
  C   C13       1.0  0.4135273141025012  0.31091569841942657  0.5530373083826243  1.0000
  N   N3        1.0  0.4842966260312375  0.31336068245591825  0.5532027745126011  1.0000
  H   H1        1.0  0.512877759570501  0.6302891449070973  0.5949221671999797  1.0000
  H   H2        1.0  0.384842079436797  0.6310229832099765  0.5962642717895872  1.0000
  H   H3        1.0  0.2868981176472848  0.6087542507256827  0.4533454431969446  1.0000
  H   H4        1.0  0.159246447162719  0.6065247663272679  0.45456685854290857  1.0000
  H   H5        1.0  0.16108976734754182  0.23663281854460777  0.6803424499750115  1.0000
  H   H6        1.0  0.28873762795730207  0.23884389113055213  0.6820389027323219  1.0000
  H   H7        1.0  0.3872866953494826  0.22003450170165695  0.5395514606961171  1.0000
  C   C14       1.0  0.8359194824961301  0.03800792677826824  0.5672603619857413  1.0000
  C   C15       1.0  0.8157471644362009  0.026920713413052466  0.6987035431241435  1.0000
  C   C16       1.0  0.8054704638535722  0.9041665330606614  0.7652736605266928  1.0000
  C   C17       1.0  0.8156221173500589  0.7916386051150449  0.698637778899037  1.0000
  C   C18       1.0  0.8357944046692388  0.8007336034408945  0.567193665239738  1.0000
  C   C19       1.0  0.8458317540302361  0.9243598496306056  0.5022416259262041  1.0000
  C   C20       1.0  0.7841335346798565  0.8934909862524804  0.9043344212980876  1.0000
  C   C21       1.0  0.7333354791080176  0.8027246647891949  0.9494093351680039  1.0000
  C   C22       1.0  0.7133164356562521  0.79295064581193  0.0801534590638372  1.0000
  C   C23       1.0  0.7436448432230865  0.8732757293253425  0.16749744698852187  1.0000
  C   C24       1.0  0.7946278932684909  0.9646514745570895  0.12429422980770433  1.0000
  C   C25       1.0  0.8144312306139706  0.9740644823168734  0.9930234371294224  1.0000
  O   O1        1.0  0.8267895155673409  0.04732693508407016  0.20815811580397114  1.0000
  C   C26       1.0  0.8118427396184285  0.048375462863484035  0.34349847149268153  1.0000
  H   H8        1.0  0.8436364596597118  0.3696840650173098  0.5171961546257782  1.0000
  H   H9        1.0  0.8070578601201122  0.11397864626335186  0.7491344298546854  1.0000
  H   H10       1.0  0.8086739687234809  0.6967675018155071  0.7500074885625658  1.0000
  H   H11       1.0  0.8613943808584159  0.9321447689466803  0.4008387650356533  1.0000
  H   H12       1.0  0.8434463334076913  0.4767478011776747  0.5170918335941199  1.0000
  H   H13       1.0  0.708449230786657  0.7405144537327942  0.8832033071545482  1.0000
  H   H14       1.0  0.6739970764760757  0.7230573413922523  0.11383948541077049  1.0000
  H   H15       1.0  0.7271312719984598  0.8635878813324568  0.26816813363489655  1.0000
  H   H16       1.0  0.8543119793768083  0.043531158881513266  0.9608501896628319  1.0000
  H   H17       1.0  0.8238585635989323  0.951843675038809  0.39411959053426454  1.0000
  H   H18       1.0  0.8446835526494303  0.12297429761739931  0.3857076120326022  1.0000
  H   H19       1.0  0.756271279863214  0.07338330434015705  0.3579437657605744  1.0000
  C   C27       1.0  0.8359222173601494  0.41923270386523254  0.18585394554360568  1.0000
  C   C28       1.0  0.8375171372091367  0.5559328934888093  0.17452817543566446  1.0000
  C   C29       1.0  0.8382711271950748  0.6253817285843966  0.051628218232864675  1.0000
  C   C30       1.0  0.8373838233792295  0.5562929834914652  0.9392166884987023  1.0000
  C   C31       1.0  0.8357916498239429  0.4195088806783138  0.9486001593137567  1.0000
  C   C32       1.0  0.8350736940279816  0.3518197892270405  0.07230660240046127  1.0000
  C   C33       1.0  0.8399591908779506  0.7699937534218569  0.04062048164336573  1.0000
  C   C34       1.0  0.8826725766134269  0.8377565237923248  0.12317453186617741  1.0000
  C   C35       1.0  0.8842668065736807  0.9738440565924985  0.11268481294028265  1.0000
  C   C36       1.0  0.8436207003019951  0.04489669572257515  0.018536096051025235  1.0000
  C   C37       1.0  0.8000782841561416  0.9774956888227475  0.9377652373787511  1.0000
  C   C38       1.0  0.7985126280655888  0.8414360179395604  0.9479939620556848  1.0000
  N   N4        1.0  0.843331901557903  0.18494271655323047  0.007288525876054889  1.0000
  C   C39       1.0  0.9029583310602233  0.26383135578625655  0.030502853566082958  1.0000
  O   O2        1.0  0.9629829582423306  0.21431917304519565  0.03901290361122144  1.0000
  C   C40       1.0  0.8947694407297266  0.4076596581260339  0.03509426105536595  1.0000
  H   H20       1.0  0.8372041815339193  0.6087504972427389  0.2614744677015415  1.0000
  H   H21       1.0  0.8388842413351458  0.6093039308423185  0.8442401858429678  1.0000
  H   H22       1.0  0.8338458779866416  0.24637973522947407  0.08032753594068542  1.0000
  H   H23       1.0  0.8332090976823644  0.16131996310736388  0.7590186814016544  1.0000
  H   H24       1.0  0.9152605266795238  0.785475532062728  0.19536598954237117  1.0000
  H   H25       1.0  0.9163798245488322  0.023130161583062133  0.1797064511088906  1.0000
  H   H26       1.0  0.7675100104880965  0.03065165249966561  0.8661429903755211  1.0000
  H   H27       1.0  0.7641191276986469  0.7921069197158761  0.884656965086879  1.0000
  H   H28       1.0  0.7982010665287602  0.23247250467436675  0.9723454655648034  1.0000
  H   H29       1.0  0.8458193172034791  0.4294555507034418  0.08651864843673085  1.0000
  H   H30       1.0  0.8928902657971758  0.45432997532048836  0.9343717120504537  1.0000
  H   H31       1.0  0.9391723426252178  0.44835344426811974  0.08773776266186695  1.0000
  Zn  Zn1       1.0  0.7595826716988096  0.4194989511619384  0.5672421388036208  1.0000
  Zn  Zn2       1.0  0.9121245293633192  0.4192419951362605  0.5672113394194533  1.0000
  C   C41       1.0  0.8358156234322562  0.41428299592640044  0.8044252196879644  1.0000
  C   C42       1.0  0.8358932430916354  0.42445958622698177  0.3300283855234405  1.0000
  C   C43       1.0  0.8358153326924584  0.6565603712728787  0.5620310825981507  1.0000
  C   C44       1.0  0.8358934820236202  0.1821806506950518  0.5724225919994963  1.0000
  O   O3        1.0  0.8937723599968166  0.4261105964976193  0.37840295691975995  1.0000
  O   O4        1.0  0.8937122471407997  0.4124359821227255  0.756026898507193  1.0000
  O   O5        1.0  0.8937112317643192  0.6080780285340485  0.5602919178679995  1.0000
  O   O6        1.0  0.8937733233362394  0.23046855942891975  0.5741378401929167  1.0000
  O   O7        1.0  0.7779338256708405  0.6082723869583775  0.5603156380338365  1.0000
  O   O8        1.0  0.7779348408000852  0.41263190082160434  0.7560505492904659  1.0000
  O   O9        1.0  0.777994953977109  0.4263064693752698  0.37842504628919177  1.0000
  O   O10       1.0  0.777995917298541  0.23066442305304544  0.5741600269320646  1.0000
