data_image0
_chemical_formula_structural       NC12NC2H8C12SCH12C12OCH12Zn2C4O8
_chemical_formula_sum              "N2 C44 H32 S1 O9 Zn2"
_cell_length_a       19.240039667572717
_cell_length_b       10.299776766347529
_cell_length_c       10.299794127170987
_cell_angle_alpha    85.57877721711455
_cell_angle_beta     89.99328814946612
_cell_angle_gamma    89.97991714870845

_space_group_name_H-M_alt    "P 1"
_space_group_IT_number       1

loop_
  _space_group_symop_operation_xyz
  'x, y, z'

loop_
  _atom_site_type_symbol
  _atom_site_label
  _atom_site_symmetry_multiplicity
  _atom_site_fract_x
  _atom_site_fract_y
  _atom_site_fract_z
  _atom_site_occupancy
  N   N1        1.0  0.6543003398512965  0.42084586377208577  0.5675985820993878  1.0000
  C   C1        1.0  0.5941519710233996  0.42084594772882494  0.5675985001710688  1.0000
  C   C2        1.0  0.5193339338688456  0.4208460649736962  0.5675983628794903  1.0000
  C   C3        1.0  0.48286582654211957  0.3564112390894108  0.6710018345018436  1.0000
  C   C4        1.0  0.4101950938164505  0.3563003839276209  0.6710883662787583  1.0000
  C   C5        1.0  0.37300169892843393  0.4208461574723068  0.5675981352137309  1.0000
  C   C6        1.0  0.41018398238033654  0.4853921180573608  0.4641080986912449  1.0000
  C   C7        1.0  0.48285468625489153  0.48528102743388635  0.46419475294928647  1.0000
  C   C8        1.0  0.2957966085095546  0.4208460787845094  0.5675980397979805  1.0000
  C   C9        1.0  0.2586274241322127  0.30759855152200477  0.6094600280832492  1.0000
  C   C10       1.0  0.18595672142055777  0.30770542432892944  0.6093687133036658  1.0000
  C   C11       1.0  0.1494643216067732  0.4208459496305341  0.5675981006976827  1.0000
  C   C12       1.0  0.0746462844575584  0.42084583596040476  0.5675983493400969  1.0000
  N   N2        1.0  0.014497967600039593  0.4208457951972276  0.5675985577473062  1.0000
  C   C13       1.0  0.1859194326386923  0.5339865507437336  0.5258274352079544  1.0000
  C   C14       1.0  0.25859011450545816  0.5340936036229242  0.5257359578521701  1.0000
  H   H1        1.0  0.5105849907041138  0.306524590094025  0.7517363529801979  1.0000
  H   H2        1.0  0.3831058654937544  0.30721213203356323  0.7529383876931788  1.0000
  H   H3        1.0  0.3830866799130193  0.5344803969889416  0.38225802643238427  1.0000
  H   H4        1.0  0.5105652935574848  0.5351675762471104  0.3834605102475108  1.0000
  H   H5        1.0  0.2857354720481046  0.21845307528466382  0.6406208310141099  1.0000
  H   H6        1.0  0.1582564186299056  0.21945941536021119  0.6415624890336749  1.0000
  H   H7        1.0  0.1581899119852457  0.6222325351800395  0.4936336740262277  1.0000
  H   H8        1.0  0.2856685453947292  0.6232391590231685  0.4945751101566183  1.0000
  C   C15       1.0  0.8344680241109703  0.03948070283532834  0.5675969585743605  1.0000
  C   C16       1.0  0.8386360966512443  0.027958777795034966  0.7041037883326786  1.0000
  C   C17       1.0  0.84068117569403  0.904981907234671  0.7732782438327463  1.0000
  C   C18       1.0  0.8385031970152159  0.7926710058603774  0.7041189778978523  1.0000
  C   C19       1.0  0.8343369807667663  0.8022009831710506  0.5676113987959086  1.0000
  C   C20       1.0  0.8323423247516686  0.9260449029927528  0.5001145204192159  1.0000
  C   C21       1.0  0.8450828667654059  0.8938569167241787  0.9176870675290846  1.0000
  C   C22       1.0  0.8053006373515699  0.8004181032934733  0.9917259321440504  1.0000
  C   C23       1.0  0.809464017712264  0.7901826401928589  0.12762820413827103  1.0000
  C   C24       1.0  0.8532362273625562  0.8731079494871995  0.1912981903629799  1.0000
  C   C25       1.0  0.8931842323796316  0.9659733768491606  0.11863231950108222  1.0000
  C   C26       1.0  0.8891227665152475  0.9765587256605761  0.9827196330259267  1.0000
  S   S1        1.0  0.8586550605913305  0.859513904447464  0.36567950291778994  1.0000
  C   C27       1.0  0.7888128247273017  0.9755814349964014  0.38520721844509875  1.0000
  H   H9        1.0  0.8329071426913971  0.37132456125600277  0.5155816598750138  1.0000
  H   H10       1.0  0.839343246313375  0.1148053136635736  0.7570593792007982  1.0000
  H   H11       1.0  0.8410225699445186  0.6976726766059921  0.756878442247781  1.0000
  H   H12       1.0  0.8291273092108689  0.9341650899668145  0.3948053055096656  1.0000
  H   H13       1.0  0.8327147637544104  0.4783785688072982  0.5156007656290658  1.0000
  H   H14       1.0  0.7703162034040248  0.7364402785754305  0.9446142475792219  1.0000
  H   H15       1.0  0.7783866542220238  0.7181366337582086  0.1833468226414512  1.0000
  H   H16       1.0  0.9274288564603836  0.030007541265616666  0.16733285648212726  1.0000
  H   H17       1.0  0.9210772471573131  0.04823619389276466  0.9284139839686464  1.0000
  H   H18       1.0  0.8027293202933622  0.07189686506326341  0.3363320878025825  1.0000
  H   H19       1.0  0.7807527904554131  0.9862915743725932  0.49048104889661487  1.0000
  H   H20       1.0  0.7399087951835508  0.9400366363546246  0.3430873179088261  1.0000
  C   C28       1.0  0.8344259532394812  0.4207273713081623  0.18625273300828415  1.0000
  C   C29       1.0  0.7663288821584829  0.3716053008774052  0.18905846284651995  1.0000
  C   C30       1.0  0.7318044274334891  0.3468173471006133  0.0733332824355033  1.0000
  C   C31       1.0  0.7662815919763429  0.37183176492316156  0.9537535754974988  1.0000
  C   C32       1.0  0.8343790521272044  0.4209543427758064  0.9489555838338517  1.0000
  C   C33       1.0  0.8680706216463917  0.4451241998609147  0.06572484547476898  1.0000
  C   C34       1.0  0.6597635747925507  0.29484188421654456  0.07735628241846104  1.0000
  C   C35       1.0  0.6099995152974578  0.3435083891680968  0.9862088912554152  1.0000
  C   C36       1.0  0.5422923172183357  0.29457896089636004  0.9902592431725847  1.0000
  C   C37       1.0  0.5233649308144156  0.19664624178488888  0.08494409685372495  1.0000
  C   C38       1.0  0.5724435563894499  0.1465751571146836  0.17695404391866143  1.0000
  C   C39       1.0  0.6402451219746262  0.19614412368292533  0.17245232834495194  1.0000
  O   O1        1.0  0.5561010615635887  0.048003477437995365  0.2737738411989936  1.0000
  C   C40       1.0  0.4894902168033933  0.988730647005873  0.2898099406978205  1.0000
  H   H21       1.0  0.8603831123593496  0.43938667660040487  0.512641186865501  1.0000
  H   H22       1.0  0.739630351581806  0.3541766832988664  0.2813351624782219  1.0000
  H   H23       1.0  0.7402314266517874  0.3512375714457914  0.8644216633602312  1.0000
  H   H24       1.0  0.9206049422476921  0.483018972030216  0.06279195147176697  1.0000
  H   H25       1.0  0.8603131003609729  0.4397334414761713  0.619669970538828  1.0000
  H   H26       1.0  0.6232041447739602  0.42057355714644645  0.9128916393351529  1.0000
  H   H27       1.0  0.5042856239419446  0.3329738919969081  0.9199220998404631  1.0000
  H   H28       1.0  0.47056987335288203  0.16061248001378026  0.08577188020013815  1.0000
  H   H29       1.0  0.6779457453287512  0.15599919421217945  0.24261567240966087  1.0000
  H   H30       1.0  0.47517329556312127  0.9402754940344173  0.20094849606541484  1.0000
  H   H31       1.0  0.4912889424098053  0.9142557241984279  0.37348042386337443  1.0000
  H   H32       1.0  0.4498920769437628  0.06298808950883616  0.31008841235820017  1.0000
  Zn  Zn1       1.0  0.7582456038291775  0.4208423790432232  0.5676060630889717  1.0000
  Zn  Zn2       1.0  0.9105527235615489  0.4208386897045633  0.5676016749714903  1.0000
  C   C41       1.0  0.8343872359747878  0.41573779625201945  0.8047883303403389  1.0000
  C   C42       1.0  0.8344127543155301  0.425944911096751  0.33041953516378886  1.0000
  C   C43       1.0  0.8343584731058044  0.6580290808094533  0.5624337167489639  1.0000
  C   C44       1.0  0.8344414654765997  0.18365206627406147  0.5727742179626227  1.0000
  O   O2        1.0  0.8922080837928816  0.4276888993425543  0.378801565572362  1.0000
  O   O3        1.0  0.8921894864188011  0.4139900280595087  0.7564025956047122  1.0000
  O   O4        1.0  0.8921654807868772  0.6096433049518215  0.560699530478552  1.0000
  O   O5        1.0  0.8922320374570971  0.23203563171265684  0.5745045333299905  1.0000
  O   O6        1.0  0.7765662379586845  0.6096454370378004  0.5607032047251388  1.0000
  O   O7        1.0  0.7765902433235775  0.4139937204134134  0.7564062006385064  1.0000
  O   O8        1.0  0.7766088408477192  0.42769254597635054  0.3788036092761804  1.0000
  O   O9        1.0  0.7766327945046986  0.23203926908670813  0.5745066743970078  1.0000
