data_image0
_chemical_formula_structural       NC5NC3H4C6ClH5C6BrH2Zn2C4O8
_chemical_formula_sum              "N2 C24 H11 Cl1 Br1 Zn2 O8"
_cell_length_a       13.859018345313864
_cell_length_b       9.276545438789551
_cell_length_c       9.275428193871797
_cell_angle_alpha    86.19890630967393
_cell_angle_beta     89.94092420878668
_cell_angle_gamma    89.40960550048821

_space_group_name_H-M_alt    "P 1"
_space_group_IT_number       1

loop_
  _space_group_symop_operation_xyz
  'x, y, z'

loop_
  _atom_site_type_symbol
  _atom_site_label
  _atom_site_symmetry_multiplicity
  _atom_site_fract_x
  _atom_site_fract_y
  _atom_site_fract_z
  _atom_site_occupancy
  N   N1        1.0  0.8989184468591443  0.5612169470902664  0.4114533611637843  1.0000
  C   C1        1.0  0.8267975268784453  0.5222229374696744  0.4626669633351257  1.0000
  C   C2        1.0  0.7370833196292094  0.4737196129357546  0.5263698722065935  1.0000
  C   C3        1.0  0.6491848813713785  0.5210046772601313  0.4642673375756785  1.0000
  C   C4        1.0  0.5618530172577855  0.4737193211950699  0.5263697465276163  1.0000
  C   C5        1.0  0.47155764810487527  0.5222228237648456  0.4626668659893649  1.0000
  N   N2        1.0  0.3989695445880933  0.5612169124643567  0.411453292140753  1.0000
  C   C6        1.0  0.5626021545975216  0.37913491818015443  0.6505932710213109  1.0000
  C   C7        1.0  0.6503169610746358  0.3320318762818071  0.7124568202295178  1.0000
  C   C8        1.0  0.7374674959596651  0.3791352154649033  0.6505934747829798  1.0000
  H   H1        1.0  0.6487462352265206  0.5942155854234341  0.3681149883160113  1.0000
  H   H2        1.0  0.4955296514726852  0.3419167305997808  0.6994737816120542  1.0000
  H   H3        1.0  0.6507546537555977  0.2589696015354286  0.8084141543292394  1.0000
  H   H4        1.0  0.8049859091601467  0.34191726500110503  0.6994742070854669  1.0000
  C   C9        1.0  0.15186087867213915  0.13777924739866876  0.41121580379121214  1.0000
  C   C10       1.0  0.15231835225645174  0.2200206485527776  0.2782131572228317  1.0000
  C   C11       1.0  0.1439953682712427  0.15356188139619498  0.14810533742809495  1.0000
  C   C12       1.0  0.13501707554955078  0.003980209184465626  0.14899848732384813  1.0000
  C   C13       1.0  0.13604994835617967  0.9201745106844722  0.27955986855441384  1.0000
  C   C14       1.0  0.14603641816917734  0.9846436448469745  0.41170335414958004  1.0000
  Cl  Cl1       1.0  0.14336185895702114  0.25843919547571703  0.9835960448689985  1.0000
  H   H5        1.0  0.20105218026604002  0.4031401100353982  0.6377669551896465  1.0000
  H   H6        1.0  0.1568415364287476  0.3367109669983357  0.2753601989935639  1.0000
  H   H7        1.0  0.1281559389360567  0.9521914428384857  0.048339309017846104  1.0000
  H   H8        1.0  0.13133454430178193  0.8038859538779572  0.276910130675454  1.0000
  H   H9        1.0  0.11352940239457854  0.6883784169819037  0.6447142708163498  1.0000
  C   C15       1.0  0.1492709370071985  0.5567251598665786  0.9883032981027594  1.0000
  C   C16       1.0  0.2381358454542677  0.5594096170880716  0.061350159551080585  1.0000
  C   C17       1.0  0.3246047125781988  0.5752528865089361  0.984822536079311  1.0000
  C   C18       1.0  0.3235701480392088  0.5888318784403981  0.83427311046561  1.0000
  C   C19       1.0  0.23640576151472062  0.5840671526343773  0.7597179045992095  1.0000
  C   C20       1.0  0.14862636226542295  0.5656977042755152  0.8346158527003356  1.0000
  Br  Br1       1.0  0.44420162996188695  0.5807654171038388  0.08638963010826028  1.0000
  H   H10       1.0  0.9166528842276453  0.6281753348443047  0.08690980556137107  1.0000
  H   H11       1.0  0.3904743212246358  0.6017176659567711  0.7747006541077246  1.0000
  Zn  Zn1       1.0  0.04322241066237219  0.5612131549645221  0.41146166965316944  1.0000
  Zn  Zn2       1.0  0.254665629631722  0.5612089959958497  0.4114568122371889  1.0000
  C   C21       1.0  0.14878553410554685  0.5582573038360381  0.6746413459359237  1.0000
  C   C22       1.0  0.14910480252106995  0.564166667954092  0.14827727838200722  1.0000
  C   C23       1.0  0.14713675346083233  0.8245073353564818  0.4058689604086487  1.0000
  C   C24       1.0  0.15075352287154997  0.29791490483000294  0.41704973973883663  1.0000
  O   O1        1.0  0.2292906891889232  0.56665623701098  0.2019641605584761  1.0000
  O   O2        1.0  0.22908016596985892  0.5557634860246969  0.6209503616577807  1.0000
  O   O3        1.0  0.22774767191120437  0.7707637695752694  0.4039147596232868  1.0000
  O   O4        1.0  0.23062311110767927  0.35165596263137844  0.41899965455635924  1.0000
  O   O5        1.0  0.06726485703121665  0.7707661883319024  0.4039188273280778  1.0000
  O   O6        1.0  0.06859733922890722  0.5557676363878838  0.6209543535270952  1.0000
  O   O7        1.0  0.06880786417729888  0.5666603187583444  0.20196641991236008  1.0000
  O   O8        1.0  0.07014028608075495  0.35166003521068023  0.41900202194093267  1.0000
