data_image0
_chemical_formula_structural       NC6NC2H4C6ClH5C6OCH7Zn2C4O8
_chemical_formula_sum              "N2 C25 H16 Cl1 O9 Zn2"
_cell_length_a       14.927258858638513
_cell_length_b       9.276545438789551
_cell_length_c       9.27389158865715
_cell_angle_alpha    86.10611493905307
_cell_angle_beta     89.68012649256188
_cell_angle_gamma    89.40960950127158

_space_group_name_H-M_alt    "P 1"
_space_group_IT_number       1

loop_
  _space_group_symop_operation_xyz
  'x, y, z'

loop_
  _atom_site_type_symbol
  _atom_site_label
  _atom_site_symmetry_multiplicity
  _atom_site_fract_x
  _atom_site_fract_y
  _atom_site_fract_z
  _atom_site_occupancy
  N   N1        1.0  0.8390666571371893  0.5637224018701105  0.4109981476259398  1.0000
  C   C1        1.0  0.7615401661147857  0.5637223734590753  0.4109981581967763  1.0000
  C   C2        1.0  0.6651076580091171  0.5637224880949068  0.41099810840961104  1.0000
  C   C3        1.0  0.6186536922247314  0.5388914299112155  0.28431176541330627  1.0000
  C   C4        1.0  0.5249423811875515  0.5388914543403237  0.28431163198443454  1.0000
  C   C5        1.0  0.47729159508890684  0.5637223107323455  0.4109981269325598  1.0000
  C   C6        1.0  0.38085901999170446  0.5637224253710873  0.41099807713947345  1.0000
  N   N2        1.0  0.3033325289693006  0.5637223969600524  0.4109980877103099  1.0000
  C   C7        1.0  0.5237454938817581  0.5885533689189476  0.5376844699229428  1.0000
  C   C8        1.0  0.617456804918938  0.5885533444898392  0.5376846033518149  1.0000
  H   H1        1.0  0.6548154852939028  0.5195714654912867  0.18574251969756772  1.0000
  H   H2        1.0  0.489711828535017  0.5195716629627625  0.18574251487895355  1.0000
  H   H3        1.0  0.487583767485414  0.6078733239975246  0.6362538237062493  1.0000
  H   H4        1.0  0.6526873565579469  0.6078732341781914  0.6362538305317191  1.0000
  C   C9        1.0  0.07390842070641628  0.14028510342330014  0.41076051930376023  1.0000
  C   C10       1.0  0.07470804567376436  0.22273626840777072  0.2777197603801522  1.0000
  C   C11       1.0  0.06734741006171174  0.1564826986119045  0.1475746578522752  1.0000
  C   C12       1.0  0.059009114073627085  0.0068996168342330124  0.14846806378520738  1.0000
  C   C13       1.0  0.059600062832458896  0.9228880048775089  0.27906685780136153  1.0000
  C   C14       1.0  0.06849940225848822  0.9871487313243414  0.41124820943754425  1.0000
  Cl  Cl1       1.0  0.06722293282770497  0.261619466796009  0.9830182246163283  1.0000
  H   H5        1.0  0.11894087028913308  0.40528866836696165  0.637376589127456  1.0000
  H   H6        1.0  0.07891557841164913  0.33943108684299395  0.2748659845747876  1.0000
  H   H7        1.0  0.05292270575508388  0.9552696033747645  0.04778004133544456  1.0000
  H   H8        1.0  0.0552295763022872  0.8066036265827825  0.2764163606848433  1.0000
  H   H9        1.0  0.03766190926356927  0.6905160092263022  0.6443258965259313  1.0000
  C   C15       1.0  0.07269587093198382  0.559898007810949  0.9877268266619295  1.0000
  C   C16       1.0  0.14567025846723658  0.6208023849216491  0.056335595002427796  1.0000
  C   C17       1.0  0.21349442468731075  0.6924740608396194  0.9765671181768751  1.0000
  C   C18       1.0  0.20858606415125147  0.7036026753815627  0.8251329142131585  1.0000
  C   C19       1.0  0.1374993270140728  0.6418252022385178  0.7551814450858805  1.0000
  C   C20       1.0  0.06971191080851669  0.5675357333892439  0.8342818658009863  1.0000
  O   O1        1.0  0.2840336491076067  0.7516030760881296  0.05180777204051478  1.0000
  C   C21       1.0  0.3573191901645622  0.82748974513074  0.9847750967390456  1.0000
  H   H10       1.0  0.8601786520965436  0.47133472904517765  0.09869307835310526  1.0000
  H   H11       1.0  0.2598395026304025  0.7586645279609705  0.7602424832936809  1.0000
  H   H12       1.0  0.1367290231834204  0.649256778492842  0.6381045485361656  1.0000
  H   H13       1.0  0.9280312533009686  0.5021936435145835  0.5588015981609984  1.0000
  H   H14       1.0  0.33264887387537434  0.9250672956678607  0.9204357111583202  1.0000
  H   H15       1.0  0.39512910777025123  0.755926298047003  0.9143212161505971  1.0000
  H   H16       1.0  0.40295633110812323  0.8619559258509782  0.06963848673657713  1.0000
  Zn  Zn1       1.0  0.9730437623542977  0.5637186118066773  0.4110064568549585  1.0000
  Zn  Zn2       1.0  0.1693554683959123  0.5637144827209466  0.411001595642293  1.0000
  C   C22       1.0  0.07031064949941679  0.5603477006011458  0.6742615469472837  1.0000
  C   C23       1.0  0.07209071284924673  0.5670872145318488  0.14774664801832693  1.0000
  C   C24       1.0  0.06953743936280699  0.8270216236047208  0.40541214381919866  1.0000
  C   C25       1.0  0.07286386679272461  0.30041155980502876  0.416596126997697  1.0000
  O   O2        1.0  0.14638692580399126  0.5694921202914368  0.20144891343719107  1.0000
  O   O3        1.0  0.145010487497024  0.5579385694227674  0.6205551764261052  1.0000
  O   O4        1.0  0.14438510096446477  0.7732811483435555  0.40345738213431237  1.0000
  O   O5        1.0  0.14701224566372334  0.35414955071200066  0.41854659966141594  1.0000
  O   O6        1.0  0.9953869180949527  0.7732835438185337  0.40346145282991364  1.0000
  O   O7        1.0  0.9960122938291098  0.5579426966239012  0.6205591712644998  1.0000
  O   O8        1.0  0.9973887386250248  0.5694961816091679  0.20145117526369605  1.0000
  O   O9        1.0  0.9980140581660498  0.35415360269129015  0.41854896954956744  1.0000
