data_image0
_chemical_formula_structural       NC9NC4H8C8H5C7F3H5Zn2C4O8
_chemical_formula_sum              "N2 C32 H18 F3 Zn2 O8"
_cell_length_a       16.32274767691083
_cell_length_b       9.27514070457351
_cell_length_c       9.272721663655245
_cell_angle_alpha    86.0082858104151
_cell_angle_beta     89.98655041730063
_cell_angle_gamma    90.11802364943966

_space_group_name_H-M_alt    "P 1"
_space_group_IT_number       1

loop_
  _space_group_symop_operation_xyz
  'x, y, z'

loop_
  _atom_site_type_symbol
  _atom_site_label
  _atom_site_symmetry_multiplicity
  _atom_site_fract_x
  _atom_site_fract_y
  _atom_site_fract_z
  _atom_site_occupancy
  N   N1        1.0  0.7724589841763623  0.558918860788836  0.4013811799438196  1.0000
  C   C1        1.0  0.7195114546952701  0.5059198341544666  0.3409808742963574  1.0000
  C   C2        1.0  0.6536977299358376  0.44009463038571256  0.2659632117287039  1.0000
  C   C3        1.0  0.6642107927134474  0.35005747213508864  0.16334763359929766  1.0000
  C   C4        1.0  0.5843378256312853  0.3061188829487913  0.11327463469510501  1.0000
  C   C5        1.0  0.526147348650449  0.37042204076574553  0.18656363638358497  1.0000
  C   C6        1.0  0.4360136337487613  0.35342731555139656  0.16719792939757627  1.0000
  C   C7        1.0  0.3812831603767364  0.42837675398667957  0.25261278550962635  1.0000
  C   C8        1.0  0.2964069371808034  0.41385224348125715  0.23606162569023506  1.0000
  C   C9        1.0  0.24129113945916794  0.4911057608373089  0.32410143937004865  1.0000
  N   N2        1.0  0.1969968305560816  0.553204874115409  0.3948705391745862  1.0000
  C   C10       1.0  0.26520675293441653  0.3242570820758285  0.13395816405118866  1.0000
  C   C11       1.0  0.31861645622031143  0.24940692171988088  0.048656825070776406  1.0000
  C   C12       1.0  0.4033293651843913  0.26354020809534623  0.06476199927315962  1.0000
  C   C13       1.0  0.564984058253694  0.46418310771542093  0.29342047356929135  1.0000
  H   H1        1.0  0.7227140341242617  0.3150462533438778  0.12344276744619644  1.0000
  H   H2        1.0  0.575192869735488  0.2325316246052318  0.02940684548645911  1.0000
  H   H3        1.0  0.40420315209766866  0.4983208822823504  0.33232186861820456  1.0000
  H   H4        1.0  0.1996768551974867  0.31229189575191124  0.12032369076433083  1.0000
  H   H5        1.0  0.2943077383555958  0.180096712480303  0.9696704467298618  1.0000
  H   H6        1.0  0.4424193154281191  0.20366490029283393  0.9965268567491844  1.0000
  H   H7        1.0  0.5485618072205037  0.42622470090975867  0.40602395524235996  1.0000
  H   H8        1.0  0.5487579239006735  0.5795847423758795  0.2690792940910949  1.0000
  C   C14       1.0  0.9822381804561993  0.1326489994414468  0.39715562121479  1.0000
  C   C15       1.0  0.9932580791542711  0.21521019316438264  0.2654508968260328  1.0000
  C   C16       1.0  0.011448444476869655  0.1489471672190903  0.1388043326674795  1.0000
  C   C17       1.0  0.01905713683917853  0.9989301055277859  0.14142891153204995  1.0000
  C   C18       1.0  0.006975921619495113  0.9147891994646979  0.2707866683712126  1.0000
  C   C19       1.0  0.9872254625603314  0.9794635614081442  0.39910846361930663  1.0000
  C   C20       1.0  0.038344359752518375  0.930878978994282  0.010734998014034996  1.0000
  C   C21       1.0  0.05449329558387705  0.8738878929914415  0.9013161428446518  1.0000
  H   H9        1.0  0.9974616416822282  0.2109221334001075  0.751230781569292  1.0000
  H   H10       1.0  0.02038228440307832  0.21501282569579286  0.03898274642666544  1.0000
  H   H11       1.0  0.011104483803971107  0.7981254080871377  0.27054522569870554  1.0000
  H   H12       1.0  0.9943320772505332  0.6821707894655938  0.6377182962729597  1.0000
  H   H13       1.0  0.06866859267493197  0.8238599945092138  0.8052693674683173  1.0000
  C   C22       1.0  0.9825506245879422  0.5537468460926955  0.9747166454157684  1.0000
  C   C23       1.0  0.01672057041697328  0.43534175489923244  0.05663234017324648  1.0000
  C   C24       1.0  0.058120922999766116  0.32541651873191113  0.9898303600244003  1.0000
  C   C25       1.0  0.0628300593075386  0.331993275864342  0.8386242338079728  1.0000
  C   C26       1.0  0.028156941489375857  0.44740292410818566  0.755740759743178  1.0000
  C   C27       1.0  0.9869130577364191  0.558365734610023  0.8215473804078669  1.0000
  C   C28       1.0  0.09242851794238627  0.19747308981126244  0.07934610941264686  1.0000
  F   F1        1.0  0.12026286027536082  0.23900766132753626  0.21125261939096784  1.0000
  F   F2        1.0  0.15737541935739263  0.13695481073117713  0.009087261261031768  1.0000
  F   F3        1.0  0.031675930896496896  0.09449729743368551  0.10306479844086949  1.0000
  H   H14       1.0  0.9326467838675156  0.8977933444368009  0.052524145828683144  1.0000
  H   H15       1.0  0.012600068726297044  0.43027431718873194  0.17352888948539616  1.0000
  H   H16       1.0  0.0926093226142983  0.2468859006292683  0.7840567112976626  1.0000
  H   H17       1.0  0.03166993737022114  0.44781682642636006  0.6390333727315787  1.0000
  H   H18       1.0  0.8413399056587045  0.8035363508772254  0.7030717961057338  1.0000
  Zn  Zn1       1.0  0.8949714624306482  0.5572661032369439  0.399510667604547  1.0000
  Zn  Zn2       1.0  0.07448434964066529  0.5548458642485208  0.39675283639359527  1.0000
  C   C29       1.0  0.9860527906115685  0.5517486234076077  0.6614650384350043  1.0000
  C   C30       1.0  0.9834049931784817  0.5603651376895438  0.13479858116285914  1.0000
  C   C31       1.0  0.9862489608606417  0.8193662997778528  0.3929936280804389  1.0000
  C   C32       1.0  0.9832087518677515  0.2927457302467511  0.4032700653359367  1.0000
  O   O1        1.0  0.051815895192165895  0.5616615383659028  0.18747694408817606  1.0000
  O   O2        1.0  0.0538880078004591  0.5486142273439478  0.6066931278609788  1.0000
  O   O3        1.0  0.054045507134013564  0.7647189060591792  0.3899005820858406  1.0000
  O   O4        1.0  0.05165833410684373  0.3455568702012885  0.40426938271779866  1.0000
  O   O5        1.0  0.9177974167055015  0.7665550981116136  0.3919941222138755  1.0000
  O   O6        1.0  0.9176399271746359  0.5504521512963668  0.6087865951040337  1.0000
  O   O7        1.0  0.9155678053946094  0.5634994026171085  0.18956867766719876  1.0000
  O   O8        1.0  0.9154102448020868  0.3473947247293141  0.4063612243758698  1.0000
