data_image0
_chemical_formula_structural       NC8NC6H8C8NH7C6SCNH5Zn2C4O8
_chemical_formula_sum              "N4 C33 H20 S1 Zn2 O8"
_cell_length_a       17.457602349358154
_cell_length_b       9.274263428431858
_cell_length_c       10.302218930750287
_cell_angle_alpha    85.51116070618167
_cell_angle_beta     92.89432631333469
_cell_angle_gamma    92.30649601595262

_space_group_name_H-M_alt    "P 1"
_space_group_IT_number       1

loop_
  _space_group_symop_operation_xyz
  'x, y, z'

loop_
  _atom_site_type_symbol
  _atom_site_label
  _atom_site_symmetry_multiplicity
  _atom_site_fract_x
  _atom_site_fract_y
  _atom_site_fract_z
  _atom_site_occupancy
  N   N1        1.0  0.7314199159534271  0.6143226574854548  0.6265463258482877  1.0000
  C   C1        1.0  0.6700475623311156  0.5633018153746912  0.615941719981538  1.0000
  C   C2        1.0  0.5936978095601937  0.4998382348056534  0.6027591289735241  1.0000
  C   C3        1.0  0.5354388980690389  0.544445055501992  0.6776320297880307  1.0000
  C   C4        1.0  0.46054083124589534  0.48333474790525993  0.6650633353773181  1.0000
  C   C5        1.0  0.3987061323870056  0.5304329401831729  0.7443566011956382  1.0000
  C   C6        1.0  0.3242666640876858  0.5509607363828588  0.6886023943808648  1.0000
  C   C7        1.0  0.2660065987112758  0.5953631985290384  0.763583258881184  1.0000
  C   C8        1.0  0.1901324195582303  0.6165644717369068  0.7056139848810759  1.0000
  N   N2        1.0  0.1291424554304574  0.6336032075634288  0.6590068408042755  1.0000
  C   C9        1.0  0.2816954820895466  0.619507906559629  0.8948266851507514  1.0000
  C   C10       1.0  0.3553527956747586  0.5994122062472025  0.9509683276074221  1.0000
  C   C11       1.0  0.4136024880884403  0.555209705371293  0.8764450453554206  1.0000
  C   C12       1.0  0.4451857407137279  0.3768652548266491  0.5761892773066322  1.0000
  C   C13       1.0  0.5034347832659801  0.3325679778004269  0.5017162353440263  1.0000
  C   C14       1.0  0.5775489026386242  0.3938030402775323  0.514834732124956  1.0000
  H   H1        1.0  0.5482741901421112  0.6279741695198144  0.7442332368717965  1.0000
  H   H2        1.0  0.3118072967447901  0.5343462429260735  0.586604153485113  1.0000
  H   H3        1.0  0.23704214328091316  0.6538084547623255  0.9536431829650514  1.0000
  H   H4        1.0  0.3673083011038024  0.6177573152044487  0.052593099126048704  1.0000
  H   H5        1.0  0.4700012428130293  0.5385460273305482  0.9225437533348779  1.0000
  H   H6        1.0  0.38841041322620945  0.32649953681960686  0.5655484513549143  1.0000
  H   H7        1.0  0.4911201866916268  0.25027945056305945  0.43391677090470143  1.0000
  H   H8        1.0  0.6221968427356427  0.3585361754489782  0.45652940641654394  1.0000
  C   C15       1.0  0.9278563782810932  0.2002618695521774  0.6428545962453387  1.0000
  C   C16       1.0  0.9179161768414095  0.28316181205570157  0.523384070920714  1.0000
  C   C17       1.0  0.9155033171199465  0.21815540872906622  0.40560202642753523  1.0000
  C   C18       1.0  0.9235948191471868  0.06876617449009448  0.4044281096198879  1.0000
  C   C19       1.0  0.9314752864526836  0.9842619268701434  0.5229346370548054  1.0000
  C   C20       1.0  0.9327132704332399  0.04765325854186298  0.642710418136609  1.0000
  C   C21       1.0  0.919848439171224  0.9986203258959331  0.27744121653325693  1.0000
  C   C22       1.0  0.8402174734569372  0.9558290573743102  0.24208589066877864  1.0000
  N   N3        1.0  0.7773664517376682  0.9220534740720135  0.21418927185200953  1.0000
  H   H9        1.0  0.9941364942086207  0.2816859584073299  0.9476039546969381  1.0000
  H   H10       1.0  0.9136734115048966  0.3995754298853525  0.5209112988126481  1.0000
  H   H11       1.0  0.9080397284187636  0.2847382282804747  0.3150148033043201  1.0000
  H   H12       1.0  0.9347886622923128  0.8679333054151072  0.5214948287801793  1.0000
  H   H13       1.0  0.9743510941829513  0.752138973729579  0.8494046680491463  1.0000
  H   H14       1.0  0.955305958051144  0.9012229932322827  0.2853596750324565  1.0000
  H   H15       1.0  0.9424980972193082  0.07454635124089304  0.19849065151783285  1.0000
  C   C23       1.0  0.9302136554244743  0.6240216533992491  0.2615014786471015  1.0000
  C   C24       1.0  0.002108098302828541  0.5602975467008762  0.27119079344158714  1.0000
  C   C25       1.0  0.03784597459839545  0.5281332089873068  0.15903223366140096  1.0000
  C   C26       1.0  0.0022941973486370042  0.5601279213617341  0.036051849258113  1.0000
  C   C27       1.0  0.9303559743062766  0.6238934160225444  0.024063511215403288  1.0000
  C   C28       1.0  0.8946973960413096  0.6554367604896838  0.13738841494184184  1.0000
  S   S1        1.0  0.12975471894328128  0.44735632002340897  0.1728498760795758  1.0000
  C   C29       1.0  0.08861103166165578  0.27009588432715836  0.18186654497469945  1.0000
  N   N4        1.0  0.061614694778456165  0.1538922468948698  0.18777583073343762  1.0000
  H   H16       1.0  0.9028634333264897  0.6483414677061292  0.5851449345584543  1.0000
  H   H17       1.0  0.03059674308136362  0.5351346224649869  0.3656047026531728  1.0000
  H   H18       1.0  0.030910399142444204  0.5348486615115748  0.9502090268149521  1.0000
  H   H19       1.0  0.8392476635739388  0.7045633974258736  0.12906875654387817  1.0000
  H   H20       1.0  0.7947974604082743  0.744225551902644  0.7942423388902093  1.0000
  Zn  Zn1       1.0  0.8461940288212343  0.6198827372089031  0.6359212266776093  1.0000
  Zn  Zn2       1.0  0.014368262493808848  0.6280312963147805  0.649642572064907  1.0000
  C   C30       1.0  0.9302944260405321  0.6181696222781506  0.8799238010408762  1.0000
  C   C31       1.0  0.9302697121900768  0.6297463207139922  0.4056402746655894  1.0000
  C   C32       1.0  0.9317902942598825  0.8874788904552979  0.637563354024818  1.0000
  C   C33       1.0  0.9287737766618643  0.3604353162470597  0.6480007865171662  1.0000
  O   O1        1.0  0.9941097345058323  0.6347536124304454  0.45922175146977784  1.0000
  O   O2        1.0  0.994094749486953  0.6193458099684737  0.8367561343206746  1.0000
  O   O3        1.0  0.9953018219029924  0.8368164079888911  0.6410482881632633  1.0000
  O   O4        1.0  0.9929026047443062  0.4172830219672916  0.6549294955910419  1.0000
  O   O5        1.0  0.867659629181133  0.8306310087772601  0.6306342984622229  1.0000
  O   O6        1.0  0.8664525666843506  0.6131621442674959  0.8263420750948643  1.0000
  O   O7        1.0  0.8664675511747224  0.6285698967150073  0.4488061312158648  1.0000
  O   O8        1.0  0.8652604213690783  0.41109929591545846  0.6445139726840252  1.0000
