data_image0
_chemical_formula_structural       NC12NC2H8C13OH12C12NH11Zn2C4O8
_chemical_formula_sum              "N3 C43 H31 O9 Zn2"
_cell_length_a       17.80743265337812
_cell_length_b       10.29915010939255
_cell_length_c       10.299774167527172
_cell_angle_alpha    85.55710761189597
_cell_angle_beta     91.52767882299842
_cell_angle_gamma    89.41750150667457

_space_group_name_H-M_alt    "P 1"
_space_group_IT_number       1

loop_
  _space_group_symop_operation_xyz
  'x, y, z'

loop_
  _atom_site_type_symbol
  _atom_site_label
  _atom_site_symmetry_multiplicity
  _atom_site_fract_x
  _atom_site_fract_y
  _atom_site_fract_z
  _atom_site_occupancy
  N   N1        1.0  0.7072443226714723  0.40634241284422906  0.6009294776120525  1.0000
  C   C1        1.0  0.6564231262802662  0.43588109113608964  0.5322247693339666  1.0000
  C   C2        1.0  0.593196543066983  0.4726250639936176  0.4467647604396179  1.0000
  C   C3        1.0  0.6049207588486823  0.5266086225051502  0.3201341642716466  1.0000
  C   C4        1.0  0.5436016656708259  0.5618496669546189  0.2370705105680246  1.0000
  C   C5        1.0  0.4704040441468668  0.5433704223552844  0.27997750067187277  1.0000
  C   C6        1.0  0.4577030491688033  0.4892682050602264  0.4070762513010266  1.0000
  C   C7        1.0  0.5198794588231681  0.4540304093463426  0.49012339322111215  1.0000
  C   C8        1.0  0.3799372572781367  0.46967568140319865  0.4528437427948946  1.0000
  C   C9        1.0  0.36113893542522746  0.49690633027950215  0.5798707080146186  1.0000
  C   C10       1.0  0.287911357775928  0.47846867593082953  0.6228182440643752  1.0000
  C   C11       1.0  0.2325391325178593  0.4325463564385557  0.539576819107473  1.0000
  C   C12       1.0  0.1571749738545944  0.41355629284486795  0.5839253866444365  1.0000
  N   N2        1.0  0.09658752727857643  0.39828955886498996  0.6195785840691064  1.0000
  C   C13       1.0  0.2506459621726174  0.40514696034775866  0.4130928480295881  1.0000
  C   C14       1.0  0.3238206964373532  0.42359931673608564  0.3698894358515661  1.0000
  H   H1        1.0  0.6613855849579869  0.5414222485206308  0.28569418068995667  1.0000
  H   H2        1.0  0.552797326488591  0.6039179366312599  0.1392829530973216  1.0000
  H   H3        1.0  0.42376280929040694  0.5729867447862733  0.21438051713513429  1.0000
  H   H4        1.0  0.5113824531351288  0.410576672114513  0.5877869944210241  1.0000
  H   H5        1.0  0.4028045355489273  0.5341104763063749  0.6454267903722946  1.0000
  H   H6        1.0  0.2744582880518947  0.500348543688099  0.7208134030064868  1.0000
  H   H7        1.0  0.20826321729336972  0.3692103408586347  0.34794925382048486  1.0000
  H   H8        1.0  0.3367456485142046  0.4001838716280479  0.27219812717769387  1.0000
  C   C15       1.0  0.9019903181789702  0.020914855409051247  0.6104016935236394  1.0000
  C   C16       1.0  0.9005973081295519  0.009178946337244932  0.7471391392144612  1.0000
  C   C17       1.0  0.8998256719940202  0.886095266947225  0.8162011145749084  1.0000
  C   C18       1.0  0.9004524875253479  0.7739264921141478  0.7467688249221653  1.0000
  C   C19       1.0  0.9018487243397844  0.7837069531790424  0.6101179286178657  1.0000
  C   C20       1.0  0.9026115463965781  0.9076619063914849  0.5427330391444839  1.0000
  C   C21       1.0  0.8983454810982667  0.8746618655766575  0.9607633967062691  1.0000
  C   C22       1.0  0.8521455467279424  0.7827568023561395  0.026568625538702872  1.0000
  C   C23       1.0  0.8507277989524926  0.7720799071895854  0.16260039636520296  1.0000
  C   C24       1.0  0.8959771023590893  0.852140485396311  0.23530969247896172  1.0000
  C   C25       1.0  0.9414582437681294  0.9450142354181  0.17011257513258582  1.0000
  C   C26       1.0  0.9428934304402254  0.9558665668422067  0.03408135090848974  1.0000
  C   C27       1.0  0.8928740055792365  0.843054347955207  0.38124032431652577  1.0000
  O   O1        1.0  0.8367206694494068  0.9274027893500935  0.4187893753021199  1.0000
  H   H9        1.0  0.9041316099818654  0.25036986471739997  0.3522799786667332  1.0000
  H   H10       1.0  0.8990677527486359  0.09599792044913034  0.8000719111314996  1.0000
  H   H11       1.0  0.900877571870574  0.6788090132014369  0.7996201674319495  1.0000
  H   H12       1.0  0.9036863798222677  0.9159221212016568  0.43733001208259664  1.0000
  H   H13       1.0  0.9023352007225343  0.45999443937353723  0.5575547792736171  1.0000
  H   H14       1.0  0.8162210852023328  0.7204776416951204  0.9727416925547847  1.0000
  H   H15       1.0  0.8141791998009873  0.701519325531264  0.2112229092705453  1.0000
  H   H16       1.0  0.9759988359924499  0.00887518305840351  0.22461939244058857  1.0000
  H   H17       1.0  0.9794671466854052  0.02687227179615294  0.9862666456669756  1.0000
  H   H18       1.0  0.9481319570552262  0.8697510704682762  0.424055192524453  1.0000
  H   H19       1.0  0.8806626695579057  0.7412954513433466  0.4184661851588271  1.0000
  H   H20       1.0  0.8369924363024317  0.9177450494288095  0.5154244402674182  1.0000
  C   C28       1.0  0.9019451029118898  0.4021958691094066  0.22890897576795385  1.0000
  C   C29       1.0  0.8283772788295624  0.35441161669950216  0.22822383669528845  1.0000
  C   C30       1.0  0.7910735545631451  0.33031532930241414  0.11072754899257542  1.0000
  C   C31       1.0  0.8283256234727194  0.35464400488621295  0.9929165674254724  1.0000
  C   C32       1.0  0.9018939258490396  0.4024260207258475  0.9916105858546094  1.0000
  C   C33       1.0  0.9382915822387627  0.42593488384030925  0.11010634740897984  1.0000
  C   C34       1.0  0.7132430603367108  0.2797629264902288  0.11105605999949941  1.0000
  C   C35       1.0  0.6921477722757142  0.1817373992370872  0.2053801177313281  1.0000
  C   C36       1.0  0.618890211511906  0.13421307865982368  0.2055554200609899  1.0000
  C   C37       1.0  0.5655691273595781  0.18384553519924118  0.11167918103530239  1.0000
  C   C38       1.0  0.586168736577179  0.28149112233759316  0.01749088727817538  1.0000
  C   C39       1.0  0.6594037199484793  0.32911717994154066  0.017048186640210353  1.0000
  N   N3        1.0  0.49064365535332005  0.1351795654210326  0.11199521974529025  1.0000
  H   H21       1.0  0.9299905987633794  0.42034992211109024  0.5566282777312443  1.0000
  H   H22       1.0  0.7995377086309953  0.3375035498196577  0.31913449696165963  1.0000
  H   H23       1.0  0.8001941232146511  0.3345486291541335  0.9022461966891822  1.0000
  H   H24       1.0  0.9950459346654699  0.4627973443142038  0.10986692168045509  1.0000
  H   H25       1.0  0.9299154973055411  0.42068845269563027  0.6636547805096424  1.0000
  H   H26       1.0  0.7325671993199965  0.14062995272574844  0.27798060280583287  1.0000
  H   H27       1.0  0.603749403620114  0.05847343074413636  0.27867616062281786  1.0000
  H   H28       1.0  0.5454359955654359  0.3209396039776167  0.9446059465363436  1.0000
  H   H29       1.0  0.6736661171021954  0.4057415611096584  0.9442170744241314  1.0000
  H   H30       1.0  0.45050398572764216  0.17156908156099338  0.0423951244813805  1.0000
  H   H31       1.0  0.4747584440897998  0.06240082342093478  0.18183209968370107  1.0000
  Zn  Zn1       1.0  0.8196003647250973  0.4040150678234638  0.6063186947599839  1.0000
  Zn  Zn2       1.0  0.98423148398705  0.40060631272946484  0.6141999634112192  1.0000
  C   C40       1.0  0.9019028933227359  0.3972084100830216  0.8474455252431504  1.0000
  C   C41       1.0  0.9019307528433669  0.4074145720425848  0.3730733458419859  1.0000
  C   C42       1.0  0.9018719681953974  0.6395215671327874  0.604996436460237  1.0000
  C   C43       1.0  0.9019616220786251  0.16509985574276326  0.6155225017514594  1.0000
  O   O2        1.0  0.9644025896587044  0.4078667454080567  0.42444712788422984  1.0000
  O   O3        1.0  0.9643822669293791  0.3941680905565448  0.8020530702832743  1.0000
  O   O4        1.0  0.9643564521922192  0.5898390471881766  0.6062736749017669  1.0000
  O   O5        1.0  0.9644283482232228  0.21219579920122988  0.6202264232028889  1.0000
  O   O6        1.0  0.8394034443084034  0.5924255825163518  0.6002922322719926  1.0000
  O   O7        1.0  0.8394292587571229  0.39675618629942844  0.796071557830619  1.0000
  O   O8        1.0  0.8394495816495535  0.4104547954190501  0.41846405412418614  1.0000
  O   O9        1.0  0.8394753402061924  0.21478383995207118  0.6142434468093723  1.0000
