data_image0
_chemical_formula_structural       NC5NC4H6C9H8C9H10Zn2C4O8
_chemical_formula_sum              "N2 C31 H24 Zn2 O8"
_cell_length_a       13.854160002989762
_cell_length_b       9.275152443626249
_cell_length_c       10.297187173949778
_cell_angle_alpha    85.37052444745348
_cell_angle_beta     89.97408711938004
_cell_angle_gamma    90.57354205828562

_space_group_name_H-M_alt    "P 1"
_space_group_IT_number       1

loop_
  _space_group_symop_operation_xyz
  'x, y, z'

loop_
  _atom_site_type_symbol
  _atom_site_label
  _atom_site_symmetry_multiplicity
  _atom_site_fract_x
  _atom_site_fract_y
  _atom_site_fract_z
  _atom_site_occupancy
  N   N1        1.0  0.9199711677762822  0.5785967845981033  0.5622689544391162  1.0000
  C   C1        1.0  0.8478253549502531  0.6038085008161161  0.5089846770313925  1.0000
  C   C2        1.0  0.7580749508308544  0.6351725595316442  0.44269699657257533  1.0000
  C   C3        1.0  0.6702844016426237  0.605689862190419  0.5074174795081594  1.0000
  C   C4        1.0  0.5829325385626748  0.6351725738622263  0.44269697564754495  1.0000
  C   C5        1.0  0.4927172125704959  0.6038083534672258  0.5089847600481139  1.0000
  N   N2        1.0  0.42019759675277035  0.5785967210836591  0.5622689545581188  1.0000
  C   C6        1.0  0.5834079188081056  0.69474454195311  0.3132712226220167  1.0000
  C   C7        1.0  0.6711801819159394  0.7263779439017283  0.24845085778187073  1.0000
  C   C8        1.0  0.6716280019966443  0.786189729855489  0.10867175201971004  1.0000
  C   C9        1.0  0.7584850078621613  0.6947445406165305  0.3132711412774598  1.0000
  H   H1        1.0  0.6699410250087637  0.5594709914940681  0.6075909811039406  1.0000
  H   H2        1.0  0.5156978282697172  0.7165303021227112  0.2630584044812621  1.0000
  H   H3        1.0  0.7369464360173623  0.8543662733835845  0.08702632211290084  1.0000
  H   H4        1.0  0.6072379583516097  0.8543662752688082  0.0870263807542706  1.0000
  H   H5        1.0  0.6710427437296057  0.6956317915107672  0.04447609890948879  1.0000
  H   H6        1.0  0.8265207881316625  0.7165304146269831  0.2630583271554232  1.0000
  C   C10       1.0  0.16724118504810948  0.15496463695868568  0.5635951465954474  1.0000
  C   C11       1.0  0.13245815390471938  0.23768895281624358  0.45323893911184077  1.0000
  C   C12       1.0  0.10664803712467202  0.17223223907953258  0.34081658873659576  1.0000
  C   C13       1.0  0.11521583793415167  0.022889711824369177  0.33652451649405735  1.0000
  C   C14       1.0  0.1481116917185643  0.938477121886063  0.44594807095074507  1.0000
  C   C15       1.0  0.17293675178697798  0.0022177936857983157  0.5609540297510217  1.0000
  C   C16       1.0  0.08910384706153995  0.9557242883548752  0.22010410230145627  1.0000
  C   C17       1.0  0.06724115945453744  0.8994556081582118  0.12262025884187323  1.0000
  C   C18       1.0  0.04071511025167273  0.8311715176958393  0.004340711542331951  1.0000
  H   H7        1.0  0.30584959725899874  0.236651536207666  0.8230200868646538  1.0000
  H   H8        1.0  0.127373768026515  0.3542063836528053  0.452830335877928  1.0000
  H   H9        1.0  0.08086933837026389  0.23846050418129885  0.2566869299357044  1.0000
  H   H10       1.0  0.15217683364001613  0.8221665958984808  0.44232434909897655  1.0000
  H   H11       1.0  0.26316250141055564  0.7069426423763077  0.7383919786284241  1.0000
  H   H12       1.0  0.058356455803244105  0.7144513453342397  0.016476143852421913  1.0000
  H   H13       1.0  0.9621600194587867  0.8437516626647728  0.9865575298484739  1.0000
  H   H14       1.0  0.08150544580094166  0.88350854871989  0.9202584898234202  1.0000
  C   C19       1.0  0.17021621954899602  0.5785390518098245  0.1808216137972325  1.0000
  C   C20       1.0  0.07266509531973252  0.618163036824979  0.1772161807831767  1.0000
  C   C21       1.0  0.022686777513973855  0.6384633303048405  0.05875260816514438  1.0000
  C   C22       1.0  0.07228693550463317  0.6183160854765566  0.9419929785892567  1.0000
  C   C23       1.0  0.16996171917833217  0.5786433725761121  0.9437275982804136  1.0000
  C   C24       1.0  0.21828849920383098  0.5590125118983442  0.0635300873633795  1.0000
  C   C25       1.0  0.9171782035498334  0.6813192069286176  0.0642852455864622  1.0000
  C   C26       1.0  0.849213059598282  0.6232949891065049  0.9641942716179934  1.0000
  C   C27       1.0  0.8789851905270235  0.7824474092953707  0.9525986581768833  1.0000
  H   H15       1.0  0.2078084826563988  0.5632837513332025  0.5097482723863778  1.0000
  H   H16       1.0  0.03500508586902784  0.6334604304538938  0.2672466429102034  1.0000
  H   H17       1.0  0.03567191948874915  0.6331852940683295  0.8493395254134666  1.0000
  H   H18       1.0  0.29355104634256723  0.5284410574809439  0.0655844096647802  1.0000
  H   H19       1.0  0.35443809711810875  0.503694329252299  0.7397887154068155  1.0000
  H   H20       1.0  0.8832661781919121  0.6950950301381527  0.16031958338798938  1.0000
  H   H21       1.0  0.8814636125170429  0.5581822606815333  0.8898722628747033  1.0000
  H   H22       1.0  0.7740632497293066  0.6037753108320159  0.9993736931698051  1.0000
  H   H23       1.0  0.929321157211642  0.8140108931775667  0.8712338772801586  1.0000
  H   H24       1.0  0.821235022289434  0.8559457477512665  0.980998535779773  1.0000
  Zn  Zn1       1.0  0.06432568677758321  0.5785929050073013  0.5622764758906653  1.0000
  Zn  Zn2       1.0  0.275842996009372  0.5785887970813282  0.562272138024531  1.0000
  C   C28       1.0  0.16996902894912802  0.5728766064912743  0.799539943429398  1.0000
  C   C29       1.0  0.17020197579388677  0.5843069157808479  0.32500879225896173  1.0000
  C   C30       1.0  0.17185692075909942  0.8420681763200877  0.5562769708945594  1.0000
  C   C31       1.0  0.16831400013340625  0.3151136127480523  0.5682718394520068  1.0000
  O   O1        1.0  0.2504668696731982  0.5862348110659017  0.3733976999379309  1.0000
  O   O2        1.0  0.2502408714081703  0.5709445050392792  0.7511473728744201  1.0000
  O   O3        1.0  0.25176428539560525  0.7883201022737525  0.554710796772987  1.0000
  O   O4        1.0  0.24894338361109877  0.36885922413927763  0.5698341786125402  1.0000
  O   O5        1.0  0.09122522699539191  0.7883224779523232  0.5547144352972988  1.0000
  O   O6        1.0  0.08970182467800236  0.5709486139248037  0.7511509367351682  1.0000
  O   O7        1.0  0.08992782319029197  0.58623886946671  0.37339970221047514  1.0000
  O   O8        1.0  0.08840433702239323  0.3688632722352081  0.5698362783065511  1.0000
