data_image0
_chemical_formula_structural       NC8NH4C7NH5C7ONH5Zn2C4O8
_chemical_formula_sum              "N4 C26 H14 O9 Zn2"
_cell_length_a       13.859017124695912
_cell_length_b       9.275154477615127
_cell_length_c       9.273042158839658
_cell_angle_alpha    86.38948304707893
_cell_angle_beta     90.09322216123502
_cell_angle_gamma    89.43373790894346

_space_group_name_H-M_alt    "P 1"
_space_group_IT_number       1

loop_
  _space_group_symop_operation_xyz
  'x, y, z'

loop_
  _atom_site_type_symbol
  _atom_site_label
  _atom_site_symmetry_multiplicity
  _atom_site_fract_x
  _atom_site_fract_y
  _atom_site_fract_z
  _atom_site_occupancy
  N   N1        1.0  0.8965391560057272  0.5612162109514038  0.4163097972780745  1.0000
  C   C1        1.0  0.8242784783629155  0.5377706136251998  0.36005406601019696  1.0000
  C   C2        1.0  0.734390476541056  0.50860771096034  0.2900791679533681  1.0000
  C   C3        1.0  0.6466615017736583  0.53703857294001  0.35829589243975946  1.0000
  C   C4        1.0  0.5591601479898728  0.5086089304285644  0.2900785934939474  1.0000
  C   C5        1.0  0.5595702061735215  0.4517407076314015  0.15362363443674942  1.0000
  C   C6        1.0  0.6471161837734275  0.4234191223360044  0.08566949374208477  1.0000
  C   C7        1.0  0.7344355817758478  0.4517383710708258  0.153624803512872  1.0000
  C   C8        1.0  0.4690386330139191  0.5377715347416598  0.3600535716497124  1.0000
  N   N2        1.0  0.39659027924186063  0.5612165312197852  0.416309582540326  1.0000
  H   H1        1.0  0.6464853044260682  0.581056777473556  0.4639153032523493  1.0000
  H   H2        1.0  0.4923643308115745  0.429364520471732  0.09992961261915823  1.0000
  H   H3        1.0  0.6472920853585974  0.379490812848796  0.9802639830517857  1.0000
  H   H4        1.0  0.8018205790609048  0.4293600941425909  0.09993177262932362  1.0000
  C   C9        1.0  0.14935979147970713  0.13780953246057992  0.4146417244182896  1.0000
  C   C10       1.0  0.12274508405504214  0.21965067061663437  0.2875529507218939  1.0000
  C   C11       1.0  0.08828892515949605  0.15234516556941746  0.16719626239137098  1.0000
  C   C12       1.0  0.07988071331016267  0.0022805845273057264  0.17251088683821436  1.0000
  C   C13       1.0  0.10738675018109967  0.9192012749693239  0.2967027725717004  1.0000
  C   C14       1.0  0.1437789656445448  0.9846122970459494  0.4179901405268358  1.0000
  C   C15       1.0  0.06038895693820523  0.2377519896126048  0.03857573793522673  1.0000
  N   N3        1.0  0.03796511866699426  0.3064035169461743  0.9351977821233223  1.0000
  H   H5        1.0  0.1684297589181114  0.21820537413265706  0.768454940558871  1.0000
  H   H6        1.0  0.12668124985225693  0.33656504929402664  0.28327611286832766  1.0000
  H   H7        1.0  0.05288485885794936  0.9491801778077584  0.0800092130529293  1.0000
  H   H8        1.0  0.10231991142426922  0.8027323399060048  0.29657592278857203  1.0000
  H   H9        1.0  0.16071267442259063  0.688337765923957  0.6550550578473806  1.0000
  C   C16       1.0  0.146137349469887  0.5567548021304713  0.9930333856270965  1.0000
  C   C17       1.0  0.05745398626206222  0.5659361978649049  0.06575053347724835  1.0000
  C   C18       1.0  0.9704211292143479  0.5890640285371721  0.989585857611058  1.0000
  C   C19       1.0  0.9726180504446555  0.6012689286713264  0.8381354160918608  1.0000
  C   C20       1.0  0.05973577172969757  0.5899706208051934  0.7644004676808422  1.0000
  C   C21       1.0  0.14700143191073559  0.5656669657269793  0.8395984638254608  1.0000
  C   C22       1.0  0.8781522461912825  0.5990175883964932  0.0694852731105573  1.0000
  O   O1        1.0  0.8720737984234183  0.5432213873558859  0.19663527199086994  1.0000
  N   N4        1.0  0.7955957558750161  0.6721656709862025  0.0062380813862137315  1.0000
  H   H10       1.0  0.37987575479963503  0.6118288541333603  0.09321111667765725  1.0000
  H   H11       1.0  0.9069089172863334  0.615524771120171  0.7755686793686154  1.0000
  H   H12       1.0  0.304592940324798  0.5960722735262991  0.5567968427241099  1.0000
  H   H13       1.0  0.7998321979255111  0.7344280233543397  0.9088184447997918  1.0000
  H   H14       1.0  0.7303804371936049  0.67200333781657  0.06247992735297814  1.0000
  Zn  Zn1       1.0  0.04084314535239453  0.561212541517299  0.41631804841896036  1.0000
  Zn  Zn2       1.0  0.2522863718412536  0.5612085634234762  0.4163131072216071  1.0000
  C   C23       1.0  0.14687377940802615  0.5582384371938269  0.6795568011560909  1.0000
  C   C24       1.0  0.14625803489380318  0.5641844884362253  0.15307450309945625  1.0000
  C   C25       1.0  0.14482302718919463  0.8244880603036215  0.4116132441330176  1.0000
  C   C26       1.0  0.1483087264569105  0.2979331338432947  0.42101813012266076  1.0000
  O   O2        1.0  0.22654018198729897  0.5666701590939258  0.2067838640856159  1.0000
  O   O3        1.0  0.22707215550141127  0.5557486551702157  0.6258432706816359  1.0000
  O   O4        1.0  0.22541506698397298  0.7707486088162869  0.4094769585937188  1.0000
  O   O5        1.0  0.228197198175202  0.3516702146257151  0.4231500681395617  1.0000
  O   O6        1.0  0.06493224686323208  0.7707508903179079  0.40948108749511647  1.0000
  O   O7        1.0  0.06658932388118054  0.55575266815782  0.6258473295770133  1.0000
  O   O8        1.0  0.06605734899357385  0.5666741035928666  0.20678618977892116  1.0000
  O   O9        1.0  0.06771436535579811  0.35167414994964274  0.4231525018609492  1.0000
