data_image0
_chemical_formula_structural       NC5NC4H6C7NH5C10H3Zn2C4O8
_chemical_formula_sum              "N3 C30 H14 Zn2 O8"
_cell_length_a       13.854160002989762
_cell_length_b       9.275154477615127
_cell_length_c       9.275153671780862
_cell_angle_alpha    85.92749838792564
_cell_angle_beta     89.40940609581031
_cell_angle_gamma    89.43370676253429

_space_group_name_H-M_alt    "P 1"
_space_group_IT_number       1

loop_
  _space_group_symop_operation_xyz
  'x, y, z'

loop_
  _atom_site_type_symbol
  _atom_site_label
  _atom_site_symmetry_multiplicity
  _atom_site_fract_x
  _atom_site_fract_y
  _atom_site_fract_z
  _atom_site_occupancy
  N   N1        1.0  0.9094275924476339  0.5738335630013267  0.41574381153918144  1.0000
  C   C1        1.0  0.8373360152754785  0.5988872132082477  0.35678228469099627  1.0000
  C   C2        1.0  0.7476530861437006  0.6300546319122338  0.2834318865566332  1.0000
  C   C3        1.0  0.6597814222072559  0.6007632933555962  0.35505655830331034  1.0000
  C   C4        1.0  0.5725106738376109  0.6300546461782857  0.28343186343495713  1.0000
  C   C5        1.0  0.4822278742556667  0.5988870661655623  0.3567823757516562  1.0000
  N   N2        1.0  0.40965402227217795  0.5738334995224317  0.41574381120040127  1.0000
  C   C6        1.0  0.5731400644711699  0.6892436014111847  0.14020390400325855  1.0000
  C   C7        1.0  0.6609654295017213  0.7206841816412817  0.06848430268535033  1.0000
  C   C8        1.0  0.6616400689819549  0.7800848258518824  0.913765337730899  1.0000
  C   C9        1.0  0.748217154140323  0.6892435998553879  0.14020381369647628  1.0000
  H   H1        1.0  0.6593203289356763  0.5548409302211037  0.46591192735778897  1.0000
  H   H2        1.0  0.505507449983953  0.7108815010612259  0.08462646449996836  1.0000
  H   H3        1.0  0.7262061812683493  0.8481650263990431  0.8902431788621534  1.0000
  H   H4        1.0  0.5964977031468542  0.8481650284417896  0.8902432439712338  1.0000
  H   H5        1.0  0.6627365264462366  0.6894035262455442  0.8418333055587408  1.0000
  H   H6        1.0  0.8163304089099017  0.7108816132940072  0.08462637949816765  1.0000
  C   C10       1.0  0.1623501088637309  0.150439961328648  0.41407525837439607  1.0000
  C   C11       1.0  0.13673512466319804  0.2332937064199341  0.2869410198397202  1.0000
  C   C12       1.0  0.1032224887135835  0.16694717679722526  0.16654127075779934  1.0000
  C   C13       1.0  0.0947691321813375  0.016840258394920538  0.1718577920837998  1.0000
  C   C14       1.0  0.12129875891068242  0.9327714222092941  0.29609410700950334  1.0000
  C   C15       1.0  0.15674074082268752  0.9972160520016838  0.41742486945885793  1.0000
  C   C16       1.0  0.07633395484503343  0.2533788131417323  0.037874733050082605  1.0000
  N   N3        1.0  0.05472305092358052  0.3228540270617555  0.9344597943703734  1.0000
  H   H7        1.0  0.17861757072102707  0.22801676716109756  0.7680150226284199  1.0000
  H   H8        1.0  0.14070662750602358  0.35024215763344246  0.28266265420895054  1.0000
  H   H9        1.0  0.0684982541188681  0.9644768849503783  0.07932302317025663  1.0000
  H   H10       1.0  0.11623115091821852  0.816303502107332  0.295967209529014  1.0000
  H   H11       1.0  0.17179814831833373  0.6990526831815629  0.6545745795259319  1.0000
  C   C17       1.0  0.16247400532336775  0.5727444135650472  0.9923161322067419  1.0000
  C   C18       1.0  0.18700829753466738  0.7001650471998695  0.05656387303979904  1.0000
  C   C19       1.0  0.20251522020936738  0.8289427801592418  0.9720808836319695  1.0000
  C   C20       1.0  0.19357767524428704  0.8319038373007466  0.8221520761864127  1.0000
  C   C21       1.0  0.17089790475370575  0.7060913587335713  0.756292293984458  1.0000
  C   C22       1.0  0.15661686624275517  0.5749115545228851  0.8391839812000506  1.0000
  C   C23       1.0  0.2265233017530947  0.9587351872411952  0.03970336768366378  1.0000
  C   C24       1.0  0.24662522493741362  0.06739953333275261  0.09634489775680644  1.0000
  C   C25       1.0  0.2701635741892998  0.19464069682312912  0.162677692470369  1.0000
  C   C26       1.0  0.29026161137075657  0.30328426685756504  0.21931648925111794  1.0000
  H   H12       1.0  0.19187665302732693  0.7002380447548497  0.17317955446907796  1.0000
  H   H13       1.0  0.20508820621527538  0.9313072172835988  0.755838610513135  1.0000
  H   H14       1.0  0.30790933007900806  0.3986822290738452  0.26905030574810596  1.0000
  Zn  Zn1       1.0  0.053782108080702135  0.573829705900571  0.4157521319963544  1.0000
  Zn  Zn2       1.0  0.26529950406737446  0.5738255885232237  0.4157472862744127  1.0000
  C   C27       1.0  0.15775986358497684  0.5687581476091548  0.6790850793833514  1.0000
  C   C28       1.0  0.16132404529666178  0.578898966317881  0.15241448755660314  1.0000
  C   C29       1.0  0.1578357994216972  0.8371426225322195  0.4110456928834172  1.0000
  C   C30       1.0  0.16124804822716743  0.31051275935400224  0.420453944081676  1.0000
  O   O1        1.0  0.24120789931933848  0.5809566378474991  0.2061430943208713  1.0000
  O   O2        1.0  0.2384128290128359  0.5666962623409089  0.6253523754444823  1.0000
  O   O3        1.0  0.2384730557169563  0.7834201238841156  0.40890868037761763  1.0000
  O   O4        1.0  0.24114760111808842  0.3642327863429782  0.42258668131509386  1.0000
  O   O5        1.0  0.07793393884952392  0.7834225080837727  0.4089127369497485  1.0000
  O   O6        1.0  0.07787370119771304  0.5667003785843341  0.6253563619855502  1.0000
  O   O7        1.0  0.08066878389144481  0.5809606994116128  0.2061453470399968  1.0000
  O   O8        1.0  0.08060848500686  0.36423683787136096  0.4225890421009374  1.0000
