data_image0
_chemical_formula_structural       NC5NC3H4C7NH5C6H6Zn2C4O8
_chemical_formula_sum              "N3 C25 H15 Zn2 O8"
_cell_length_a       13.859018345313864
_cell_length_b       9.275154477615127
_cell_length_c       10.681121600428286
_cell_angle_alpha    85.78691594316618
_cell_angle_beta     89.99986506473405
_cell_angle_gamma    89.43370600770291

_space_group_name_H-M_alt    "P 1"
_space_group_IT_number       1

loop_
  _space_group_symop_operation_xyz
  'x, y, z'

loop_
  _atom_site_type_symbol
  _atom_site_label
  _atom_site_symmetry_multiplicity
  _atom_site_fract_x
  _atom_site_fract_y
  _atom_site_fract_z
  _atom_site_occupancy
  N   N1        1.0  0.8981555673654565  0.5778876456380392  0.6241000434752684  1.0000
  C   C1        1.0  0.8260624535851085  0.538354957015371  0.6684913454512149  1.0000
  C   C2        1.0  0.7363828335608072  0.48918158745184337  0.7237082204622816  1.0000
  C   C3        1.0  0.6484506770689508  0.5371198635930563  0.6698785303559649  1.0000
  C   C4        1.0  0.5611525310114105  0.4891812970750344  0.7237081103883044  1.0000
  C   C5        1.0  0.4708225747054861  0.5383548443547888  0.6684912605219194  1.0000
  N   N2        1.0  0.3982066650322368  0.5778876117475721  0.624099983391124  1.0000
  C   C6        1.0  0.5619691147763471  0.39329027633324887  0.8313834867090943  1.0000
  C   C7        1.0  0.6497175097481271  0.34553653632723846  0.8850060274499685  1.0000
  C   C8        1.0  0.7368344563772679  0.39329057142578927  0.8313836646549093  1.0000
  H   H1        1.0  0.647959825587086  0.6113421290177852  0.5865348929919297  1.0000
  H   H2        1.0  0.4949231509421722  0.3555579499252336  0.8737524927016024  1.0000
  H   H3        1.0  0.650207301925668  0.2714649555273392  0.9681806285795542  1.0000
  H   H4        1.0  0.8043794091037632  0.3555584797583718  0.8737528640156598  1.0000
  C   C9        1.0  0.1509778846187917  0.1544983113215333  0.6226509032521997  1.0000
  C   C10       1.0  0.12449289991457735  0.23767739156120232  0.5122369587772998  1.0000
  C   C11       1.0  0.09015959289239017  0.1716389636904858  0.4076718060363691  1.0000
  C   C12       1.0  0.0817459570563619  0.02151844045958407  0.4122891163711064  1.0000
  C   C13       1.0  0.10912522801008649  0.9371316848663904  0.5201862628328235  1.0000
  C   C14       1.0  0.145393641488484  0.001265830436725465  0.625559984793911  1.0000
  C   C15       1.0  0.06239091096771587  0.25839985632981755  0.2959270856566012  1.0000
  N   N3        1.0  0.040072593250254133  0.3281397079726325  0.20611295362395848  1.0000
  H   H5        1.0  0.1696867105081119  0.23116938963906014  0.9300416325682109  1.0000
  H   H6        1.0  0.1284334307899755  0.3546367910194981  0.5085212697291592  1.0000
  H   H7        1.0  0.05484452202670597  0.9693918625668575  0.3319242293031506  1.0000
  H   H8        1.0  0.10405851914742144  0.8206640895425595  0.5200760551041463  1.0000
  H   H9        1.0  0.16208537481518198  0.7024955983773968  0.8315205168478826  1.0000
  C   C16       1.0  0.1481857818755185  0.5778820397990616  0.25636019704403035  1.0000
  C   C17       1.0  0.07965197094601636  0.49769577981797003  0.19466223130994348  1.0000
  C   C18       1.0  0.07965191009366211  0.4976958722659027  0.0637800916746547  1.0000
  C   C19       1.0  0.14818570555660782  0.5778821104747569  0.9918506329631817  1.0000
  C   C20       1.0  0.21666295242005562  0.6580019200601054  0.053547790062075544  1.0000
  C   C21       1.0  0.2166629402225357  0.6580018977033621  0.1844400886483157  1.0000
  H   H10       1.0  0.21749162673350186  0.6589723813473711  0.5498965235021538  1.0000
  H   H11       1.0  0.02593193458198439  0.43484199947249635  0.24748313364459967  1.0000
  H   H12       1.0  0.02593191398282801  0.43484206733933206  0.018979104652222738  1.0000
  H   H13       1.0  0.27039000344995623  0.7208639829156311  0.0007712515494682174  1.0000
  H   H14       1.0  0.27038995516849895  0.7208639323733221  0.22919561886023887  1.0000
  H   H15       1.0  0.21749193119077942  0.6589718790266951  0.6879674960630004  1.0000
  Zn  Zn1       1.0  0.04245953639745803  0.5778837658469178  0.6241072526052814  1.0000
  Zn  Zn2       1.0  0.25390275050396766  0.577879658820655  0.6241030191988368  1.0000
  C   C22       1.0  0.14822147181591827  0.5721383408834335  0.8528074753132613  1.0000
  C   C23       1.0  0.14814311204180725  0.5836269029069155  0.39540292560727397  1.0000
  C   C24       1.0  0.14644421189620305  0.8412087251884166  0.6200197771201041  1.0000
  C   C25       1.0  0.14992031123435368  0.31455478638192647  0.6281906846160933  1.0000
  O   O1        1.0  0.2283704309449217  0.5855470828409706  0.4420653073192928  1.0000
  O   O2        1.0  0.22847466712968223  0.5702139561401817  0.8061415163159554  1.0000
  O   O3        1.0  0.2270384255727973  0.7874916943469813  0.618163808185308  1.0000
  O   O4        1.0  0.22980660028254868  0.36826935494941426  0.630042921590677  1.0000
  O   O5        1.0  0.06655561446367518  0.7874940697211302  0.6181673502083043  1.0000
  O   O6        1.0  0.0679918445925267  0.5702180637373075  0.8061449975181532  1.0000
  O   O7        1.0  0.06788760880336553  0.585551140195613  0.44206728272629825  1.0000
  O   O8        1.0  0.0693237782050482  0.3682734019917844  0.6300449908518093  1.0000
