data_image0
_chemical_formula_structural       NC6NCNCH5C9H6C7F3H4Zn2C4O8
_chemical_formula_sum              "N3 C28 H15 F3 Zn2 O8"
_cell_length_a       14.933214217465613
_cell_length_b       9.275152443626249
_cell_length_c       10.299327507215196
_cell_angle_alpha    85.35552067985554
_cell_angle_beta     89.947286011659
_cell_angle_gamma    90.60755784757023

_space_group_name_H-M_alt    "P 1"
_space_group_IT_number       1

loop_
  _space_group_symop_operation_xyz
  'x, y, z'

loop_
  _atom_site_type_symbol
  _atom_site_label
  _atom_site_symmetry_multiplicity
  _atom_site_fract_x
  _atom_site_fract_y
  _atom_site_fract_z
  _atom_site_occupancy
  N   N1        1.0  0.8533809106541899  0.5799015999653447  0.561740413728006  1.0000
  C   C1        1.0  0.7758970510891487  0.5808988082826598  0.5608448838622704  1.0000
  C   C2        1.0  0.6795065901074389  0.5821420723404338  0.5597282692069232  1.0000
  C   C3        1.0  0.6310672277994916  0.4863285162953255  0.6457897496184297  1.0000
  C   C4        1.0  0.5375407569756674  0.4874119611273291  0.6448166063436517  1.0000
  C   C5        1.0  0.491550942150185  0.5842540656281746  0.5578312979929209  1.0000
  C   C6        1.0  0.3949618729557259  0.5821442301427888  0.5597263967073511  1.0000
  N   N2        1.0  0.317464934553712  0.5803841612769518  0.5613069914754314  1.0000
  C   C7        1.0  0.5400968357448294  0.6812774855997015  0.47068321110741773  1.0000
  N   N3        1.0  0.49543120901299165  0.7819336347093386  0.3802722699623749  1.0000
  C   C8        1.0  0.6340974602756416  0.6792273980353718  0.47252474183766596  1.0000
  H   H1        1.0  0.6655799525890346  0.4107859710465851  0.7136434004117074  1.0000
  H   H2        1.0  0.500976554690349  0.4125048915583313  0.7120993462317207  1.0000
  H   H3        1.0  0.5322430890734547  0.8530266799317532  0.3164151657327654  1.0000
  H   H4        1.0  0.42572410855600556  0.7872894002859583  0.37546168813453346  1.0000
  H   H5        1.0  0.6717812615377496  0.7533807792605525  0.405918830574447  1.0000
  C   C9        1.0  0.08278525549943597  0.15650762198631485  0.5628521100707755  1.0000
  C   C10       1.0  0.05050613152317163  0.23923040929007788  0.4525466553092679  1.0000
  C   C11       1.0  0.02655143679836504  0.1737814233011281  0.3401676690001345  1.0000
  C   C12       1.0  0.03449983642235366  0.024448407540482057  0.33586897492326306  1.0000
  C   C13       1.0  0.0650280575131359  0.9400357961776942  0.44524358603210934  1.0000
  C   C14       1.0  0.08806908430180549  0.0037670400568179407  0.5602065516477193  1.0000
  C   C15       1.0  0.010264743872043567  0.9572915809358103  0.21949293320554422  1.0000
  C   C16       1.0  0.9899735190573585  0.9010301012053521  0.12204624299440336  1.0000
  C   C17       1.0  0.9653541290958445  0.8327547477166277  0.0038117742231371684  1.0000
  H   H6        1.0  0.21140063866280345  0.23825295170742722  0.8221084912796153  1.0000
  H   H7        1.0  0.0026282591605906198  0.240009235122828  0.25607606189429993  1.0000
  H   H8        1.0  0.1717906897645063  0.7085274368286503  0.7375331781971548  1.0000
  H   H9        1.0  0.9817218661518955  0.7160480728555849  0.015929654189608566  1.0000
  H   H10       1.0  0.8924733212433907  0.8452642675862687  0.9860999788410019  1.0000
  H   H11       1.0  0.003190235740552439  0.8851555343868475  0.9197099163367486  1.0000
  C   C18       1.0  0.0855132860123422  0.5801959987057539  0.18014750263927448  1.0000
  C   C19       1.0  0.17289557520790555  0.6381301834158919  0.1746151502460278  1.0000
  C   C20       1.0  0.21633787277422534  0.6698036089851149  0.05452101336755133  1.0000
  C   C21       1.0  0.1726694453963995  0.6379769710943142  0.9393783805387939  1.0000
  C   C22       1.0  0.08534107540596386  0.5800786528385242  0.9429112049250032  1.0000
  C   C23       1.0  0.04213978381815453  0.5520586119578665  0.06376629790554178  1.0000
  C   C24       1.0  0.3113415982208852  0.727108507129548  0.04999166677694534  1.0000
  F   F1        1.0  0.32750900832423246  0.8113683353407397  0.15260517586261146  1.0000
  F   F2        1.0  0.36977458605098024  0.6121502354171056  0.05816452974471887  1.0000
  F   F3        1.0  0.32726287941047083  0.8113485066323596  0.9349620630482001  1.0000
  H   H12       1.0  0.9212050971025719  0.46845612612374915  0.3980007577260585  1.0000
  H   H13       1.0  0.20736351529629946  0.6584561256342878  0.2639162551807972  1.0000
  H   H14       1.0  0.20698225573001416  0.6581939400240495  0.8469034065617326  1.0000
  H   H15       1.0  0.9747893838337239  0.5074090740810955  0.06722540035749969  1.0000
  Zn  Zn1       1.0  0.9873055099554676  0.5800369846864841  0.5616228572347155  1.0000
  Zn  Zn2       1.0  0.1835402443751617  0.580236940036154  0.5614352501757768  1.0000
  C   C25       1.0  0.0853357636598171  0.5743537453688612  0.7987504682485251  1.0000
  C   C26       1.0  0.08551214487081585  0.5859220017420432  0.324307758900515  1.0000
  C   C27       1.0  0.08706688172499755  0.8436177383352124  0.5555313021019181  1.0000
  C   C28       1.0  0.08378094901975519  0.31665627546914643  0.5675269997640351  1.0000
  O   O1        1.0  0.1599817816700504  0.5879132890181065  0.37261808157250265  1.0000
  O   O2        1.0  0.15980374301981895  0.5725131313309684  0.7502973856991988  1.0000
  O   O3        1.0  0.1612006385534723  0.7899472097285385  0.5538961844959136  1.0000
  O   O4        1.0  0.158584819261122  0.3704792208871277  0.5690191854296129  1.0000
  O   O5        1.0  0.012260868104235321  0.7897947037688471  0.5540389220380644  1.0000
  O   O6        1.0  0.01086398339118921  0.5723623586111592  0.7504400485816216  1.0000
  O   O7        1.0  0.011042022140057558  0.5877624662670371  0.3727591831582162  1.0000
  O   O8        1.0  0.009645059641131278  0.3703283878028032  0.5691603844186861  1.0000
