data_image0
_chemical_formula_structural       NC10NC5H10C13OH12C12SCH12Zn2C4O8
_chemical_formula_sum              "N2 C45 H34 O9 S1 Zn2"
_cell_length_a       19.4436361288709
_cell_length_b       10.299150109392551
_cell_length_c       10.299780138516091
_cell_angle_alpha    85.5566253413432
_cell_angle_beta     89.6968932683751
_cell_angle_gamma    89.39953782186458

_space_group_name_H-M_alt    "P 1"
_space_group_IT_number       1

loop_
  _space_group_symop_operation_xyz
  'x, y, z'

loop_
  _atom_site_type_symbol
  _atom_site_label
  _atom_site_symmetry_multiplicity
  _atom_site_fract_x
  _atom_site_fract_y
  _atom_site_fract_z
  _atom_site_occupancy
  N   N1        1.0  0.647507971524729  0.4090159168003664  0.5616837908398944  1.0000
  C   C1        1.0  0.588670136134802  0.4189201239116289  0.576063869260032  1.0000
  C   C2        1.0  0.5153384819382486  0.43127200354028655  0.5940513248784469  1.0000
  C   C3        1.0  0.47316149758439346  0.39926252876392027  0.49939217433971894  1.0000
  C   C4        1.0  0.3972549356480504  0.4097022056867456  0.5047165535705098  1.0000
  C   C5        1.0  0.3575183655344352  0.3849637036688271  0.6117927950805824  1.0000
  C   C6        1.0  0.2813973312611608  0.3888792580559526  0.5988326479819255  1.0000
  C   C7        1.0  0.24082293962388876  0.4465550612242979  0.6925802340409228  1.0000
  C   C8        1.0  0.1691590675541307  0.4501919840905346  0.6820355581491886  1.0000
  C   C9        1.0  0.1370748961018639  0.3957570915087092  0.5780299428768354  1.0000
  C   C10       1.0  0.0632817710497619  0.39945524601265436  0.5673299710156641  1.0000
  N   N2        1.0  0.003957103599326603  0.402428368193912  0.5587279030178038  1.0000
  C   C11       1.0  0.176924514147466  0.33737418269812935  0.48466581138709336  1.0000
  C   C12       1.0  0.24860482861539393  0.33368300492642566  0.4949587383349092  1.0000
  C   C13       1.0  0.3856561776110848  0.3445136219586369  0.7428954721449984  1.0000
  C   C14       1.0  0.4443115009241755  0.3876438831067373  0.7901216538205718  1.0000
  C   C15       1.0  0.48850301546187863  0.485501900994035  0.7157247180403346  1.0000
  H   H1        1.0  0.49526702518663546  0.37013359791813233  0.40909879146047917  1.0000
  H   H2        1.0  0.3725540616659155  0.43218878701841024  0.4115545702968315  1.0000
  H   H3        1.0  0.2646845539097833  0.48985789312126954  0.7734107977746474  1.0000
  H   H4        1.0  0.1388051882175408  0.4955178634068538  0.7549383108611563  1.0000
  H   H5        1.0  0.1525909778811813  0.2942670589962042  0.4041696516221802  1.0000
  H   H6        1.0  0.2782934719185273  0.2861136338971324  0.42275303672772896  1.0000
  H   H7        1.0  0.3547008889000973  0.28029830484525786  0.8071611016713118  1.0000
  H   H8        1.0  0.45946581879581944  0.35358433158454466  0.8880633781998789  1.0000
  H   H9        1.0  0.4583785925747831  0.5762206093331612  0.6904436519788331  1.0000
  H   H10       1.0  0.5317826416731685  0.5110965648839363  0.7787985667942432  1.0000
  C   C16       1.0  0.8258006408700072  0.0243212837491198  0.5603494255050658  1.0000
  C   C17       1.0  0.8245237984997824  0.012579006157366294  0.6971641933089541  1.0000
  C   C18       1.0  0.8238165859823033  0.8894918540165511  0.7662689989174623  1.0000
  C   C19       1.0  0.8243912172632772  0.7773260098933481  0.696801915144353  1.0000
  C   C20       1.0  0.8256710128204654  0.787112850911052  0.5600735176862868  1.0000
  C   C21       1.0  0.82637013725986  0.9110712298962237  0.49264628734683735  1.0000
  C   C22       1.0  0.8224598412168426  0.8780516915865674  0.9109134422045139  1.0000
  C   C23       1.0  0.7801624010504506  0.7859721953395402  0.9792823467589808  1.0000
  C   C24       1.0  0.7788629187866637  0.775288844350866  0.11539281229209164  1.0000
  C   C25       1.0  0.820288501257981  0.8555191375041804  0.18559120719153444  1.0000
  C   C26       1.0  0.8619278693085092  0.9485646100905242  0.11787030051795243  1.0000
  C   C27       1.0  0.8632433171282448  0.9594234629703263  0.9817594138915403  1.0000
  C   C28       1.0  0.8174459474636736  0.8464201193039129  0.3316940565261586  1.0000
  O   O1        1.0  0.7660363384858233  0.930556896726883  0.3723590992487258  1.0000
  H   H11       1.0  0.8277638966928199  0.2537864770509044  0.30210884540814154  1.0000
  H   H12       1.0  0.823122879429923  0.09939178754193231  0.750181850187762  1.0000
  H   H13       1.0  0.8247798000311997  0.6822096959707926  0.7496296783635197  1.0000
  H   H14       1.0  0.8273553356608064  0.9193363577544331  0.3871835992884931  1.0000
  H   H15       1.0  0.8261169738725543  0.463402600757036  0.507483364579439  1.0000
  H   H16       1.0  0.7472736360392871  0.7235582619965395  0.9274488765920551  1.0000
  H   H17       1.0  0.7454016067615293  0.7045902976403002  0.16604343910737118  1.0000
  H   H18       1.0  0.8935496743994615  0.012555116086514497  0.17046044693761664  1.0000
  H   H19       1.0  0.8967276152270339  0.03056722086600749  0.9319152011124194  1.0000
  H   H20       1.0  0.8680349246053172  0.8733244742444777  0.3714426320385936  1.0000
  H   H21       1.0  0.8062658785448087  0.7446149541982384  0.36959753868390166  1.0000
  H   H22       1.0  0.7662840696750824  0.9208993843743563  0.4689790999995203  1.0000
  C   C29       1.0  0.8257634906501461  0.40560526704787303  0.17885915240120043  1.0000
  C   C30       1.0  0.7603771070807642  0.3487974743057789  0.18291685259285684  1.0000
  C   C31       1.0  0.7272180770997912  0.3201272923447591  0.06782618920323236  1.0000
  C   C32       1.0  0.7603207599517007  0.3490239727115889  0.9476133414823605  1.0000
  C   C33       1.0  0.825708169513529  0.4058289227830499  0.9415637955110481  1.0000
  C   C34       1.0  0.8580633531073737  0.4338022585848933  0.05771285456261311  1.0000
  C   C35       1.0  0.6580438209091667  0.2600444555005148  0.07318170735837604  1.0000
  C   C36       1.0  0.6070984205325771  0.3026502999470264  0.982632565216813  1.0000
  C   C37       1.0  0.5420066923331017  0.2460699539897937  0.9879095730450898  1.0000
  C   C38       1.0  0.5269109158428636  0.1465311265191902  0.08363373178503597  1.0000
  C   C39       1.0  0.5772443278390721  0.10313759528037414  0.17378258851188266  1.0000
  C   C40       1.0  0.6423786366253099  0.15954371054414174  0.16886769849081973  1.0000
  S   S1        1.0  0.44341751496019916  0.07379702997038784  0.0899544550428053  1.0000
  C   C41       1.0  0.40812693059483407  0.1886736482648388  0.19893457955469437  1.0000
  H   H23       1.0  0.8506887339119746  0.42720392537492197  0.5047699263335432  1.0000
  H   H24       1.0  0.7346765151517496  0.3283484518079176  0.2756869188385953  1.0000
  H   H25       1.0  0.7353836278030746  0.32548150918815616  0.8587566391867948  1.0000
  H   H26       1.0  0.9085063247594368  0.4776262659434543  0.05381413848037453  1.0000
  H   H27       1.0  0.8506085202448468  0.4275328979228976  0.6118009038319152  1.0000
  H   H28       1.0  0.6173125379028724  0.3808356317931416  0.9088411487249056  1.0000
  H   H29       1.0  0.5032478839438633  0.28012220558025747  0.9178875693413717  1.0000
  H   H30       1.0  0.5659788680829454  0.02566772388064242  0.2477073350263219  1.0000
  H   H31       1.0  0.6807677426371911  0.12344713856438783  0.23879269768283054  1.0000
  H   H32       1.0  0.4372118264099363  0.18210554127507672  0.2917096944077966  1.0000
  H   H33       1.0  0.35354962182173433  0.16455152501449422  0.22016863320200075  1.0000
  H   H34       1.0  0.41076842016157883  0.28935491796957047  0.1522848023864165  1.0000
  Zn  Zn1       1.0  0.7503714926284063  0.4071114231144315  0.5608382985330822  1.0000
  Zn  Zn2       1.0  0.9010935750388276  0.4043222564418185  0.5595840798768468  1.0000
  C   C42       1.0  0.8257179644754278  0.40061255843362953  0.7973981484858149  1.0000
  C   C43       1.0  0.8257487487845231  0.4108227294589634  0.32302434309618566  1.0000
  C   C44       1.0  0.8256923498951075  0.6429275945032977  0.5549507348476872  1.0000
  C   C45       1.0  0.8257743121940886  0.16850613392831557  0.5654718269623733  1.0000
  O   O2        1.0  0.882942047022688  0.41150961707473543  0.3709315306647605  1.0000
  O   O3        1.0  0.8829192395088076  0.39780777793623734  0.7485386645024783  1.0000
  O   O4        1.0  0.8828977842536044  0.5934802487190762  0.5527606685618882  1.0000
  O   O5        1.0  0.882963450852139  0.21583715650609708  0.5667094296595419  1.0000
  O   O6        1.0  0.7685015653810457  0.5955965240033707  0.5537129491715589  1.0000
  O   O7        1.0  0.7685230203729543  0.3999256136347289  0.7494908753052616  1.0000
  O   O8        1.0  0.7685458280535334  0.4136274070548012  0.37188218015084096  1.0000
  O   O9        1.0  0.768567231874687  0.2179549372251797  0.5676601765126037  1.0000
