data_image0
_chemical_formula_structural       NC5NC4H6C6NH7C6BrH4Zn2C4O8
_chemical_formula_sum              "N3 C25 H17 Br1 Zn2 O8"
_cell_length_a       13.854160002989762
_cell_length_b       9.274771166103582
_cell_length_c       9.27656775626242
_cell_angle_alpha    86.01325923358289
_cell_angle_beta     90.1862127555096
_cell_angle_gamma    90.59704847255895

_space_group_name_H-M_alt    "P 1"
_space_group_IT_number       1

loop_
  _space_group_symop_operation_xyz
  'x, y, z'

loop_
  _atom_site_type_symbol
  _atom_site_label
  _atom_site_symmetry_multiplicity
  _atom_site_fract_x
  _atom_site_fract_y
  _atom_site_fract_z
  _atom_site_occupancy
  N   N1        1.0  0.9163476695281738  0.5630611016504903  0.40778084339451093  1.0000
  C   C1        1.0  0.8440583290612097  0.587699325257786  0.3487171387961523  1.0000
  C   C2        1.0  0.7541293709852105  0.6183499372354091  0.2752396292594732  1.0000
  C   C3        1.0  0.6665134705179134  0.5895637409697387  0.3469818015968426  1.0000
  C   C4        1.0  0.5789869586618959  0.6183499513404742  0.2752396060719997  1.0000
  C   C5        1.0  0.4889501868750891  0.5876991788097994  0.3487172306422859  1.0000
  N   N2        1.0  0.4165740984873785  0.5630610381416743  0.4077808434237111  1.0000
  C   C6        1.0  0.5791132527088182  0.6765290389628414  0.13177311770720745  1.0000
  C   C7        1.0  0.6667111815663096  0.707464720704293  0.059923634396190854  1.0000
  C   C8        1.0  0.66678073501487  0.7657725134311648  0.904973286303025  1.0000
  C   C9        1.0  0.7541903415327148  0.676529036753488  0.13177302747523312  1.0000
  H   H1        1.0  0.6664402503022498  0.5444229455077347  0.4580224321614341  1.0000
  H   H2        1.0  0.5112673606370263  0.697774499443  0.0761108223350131  1.0000
  H   H3        1.0  0.732056936117523  0.8337121203479743  0.8810738763029623  1.0000
  H   H4        1.0  0.6023484586179481  0.8337121228623178  0.881073941352771  1.0000
  H   H5        1.0  0.6659890102546099  0.6745319300660021  0.8336189794790756  1.0000
  H   H6        1.0  0.8220903203117452  0.6977746111098213  0.07611073674497804  1.0000
  C   C10       1.0  0.16350391376112694  0.13947220912860447  0.40856622683590355  1.0000
  C   C11       1.0  0.1410034478893245  0.22151860833734863  0.2797156447372915  1.0000
  C   C12       1.0  0.12751312037429494  0.15519886006119066  0.1500475621856101  1.0000
  C   C13       1.0  0.13657175198205881  0.005446038198098522  0.14829086370665912  1.0000
  C   C14       1.0  0.1572833709181225  0.9220628700766225  0.27537141543203036  1.0000
  C   C15       1.0  0.1694270622664733  0.9866389811228653  0.4070080068273933  1.0000
  N   N3        1.0  0.10560250473233944  0.24033088315038542  0.019780837586138137  1.0000
  H   H7        1.0  0.2728404366033099  0.22222188151875957  0.7239032460862798  1.0000
  H   H8        1.0  0.13613540246982447  0.33810589465731766  0.27916216812581873  1.0000
  H   H9        1.0  0.12664914443501307  0.952981399613399  0.048524356460730715  1.0000
  H   H10       1.0  0.16152787029537855  0.8058584260169012  0.2712448517280512  1.0000
  H   H11       1.0  0.23916227812680432  0.6916745257747966  0.621548830230106  1.0000
  H   H12       1.0  0.09895209296849794  0.35240432680490774  0.019734038160103225  1.0000
  H   H13       1.0  0.09577608701824847  0.1919066671055949  0.9223839035817124  1.0000
  C   C16       1.0  0.16551516297778393  0.5589102640620424  0.9846679741797958  1.0000
  C   C17       1.0  0.07998422027512195  0.5936356787438076  0.05521493107673092  1.0000
  C   C18       1.0  0.9988255607883086  0.6402428782176834  0.9764282057431147  1.0000
  C   C19       1.0  0.0016739170357238384  0.6530686581478076  0.8259087709349225  1.0000
  C   C20       1.0  0.08530167247247172  0.6167850385944806  0.7536376176281641  1.0000
  C   C21       1.0  0.16741583088301992  0.567200935622441  0.8309062475585174  1.0000
  Br  Br1       1.0  0.8906016422457147  0.7180179702476409  0.7185390682524648  1.0000
  H   H14       1.0  0.29738440343605427  0.42789300485728043  0.2757431636983232  1.0000
  H   H15       1.0  0.9339440007524384  0.6677448985465456  0.03269500087826916  1.0000
  H   H16       1.0  0.0852012766681709  0.624153289689438  0.6365736015310971  1.0000
  H   H17       1.0  0.32612913354931583  0.5523060321101771  0.5515389267441804  1.0000
  Zn  Zn1       1.0  0.06070220870042629  0.5630573030341923  0.40778918013377163  1.0000
  Zn  Zn2       1.0  0.2722195045386957  0.56305314884233  0.4077843617943071  1.0000
  C   C22       1.0  0.16701420553538426  0.5598873443768009  0.6709596481274753  1.0000
  C   C23       1.0  0.16590983050872743  0.566224928865191  0.14461403182108334  1.0000
  C   C24       1.0  0.16828958522203297  0.8264501452750128  0.4015607971908455  1.0000
  C   C25       1.0  0.1646343667016632  0.2996603956828623  0.4140129627655529  1.0000
  O   O1        1.0  0.24631195197783157  0.5686719277237571  0.19829157293115585  1.0000
  O   O2        1.0  0.2471488088906259  0.5574361003350956  0.6172780372381255  1.0000
  O   O3        1.0  0.248177615407826  0.7726889479064241  0.3997365563311079  1.0000
  O   O4        1.0  0.2452830731136073  0.3534190894141358  0.4158329457861156  1.0000
  O   O5        1.0  0.08763856794503662  0.7726913624653006  0.3997405961360254  1.0000
  O   O6        1.0  0.08660977336777285  0.5574402471810032  0.6172819970292657  1.0000
  O   O7        1.0  0.08577291227693862  0.5686760073318333  0.19829380048033785  1.0000
  O   O8        1.0  0.08474403357925975  0.3534231597634188  0.4158352813814181  1.0000
