data_image0
_chemical_formula_structural       NC12NC2H8C6OCH8C6NCOCH9Zn2C4O8
_chemical_formula_sum              "N3 C33 H25 O10 Zn2"
_cell_length_a       17.80743265337812
_cell_length_b       9.273888216677431
_cell_length_c       10.300272075376753
_cell_angle_alpha    85.74077782890298
_cell_angle_beta     91.53227337963533
_cell_angle_gamma    88.85715842325122

_space_group_name_H-M_alt    "P 1"
_space_group_IT_number       1

loop_
  _space_group_symop_operation_xyz
  'x, y, z'

loop_
  _atom_site_type_symbol
  _atom_site_label
  _atom_site_symmetry_multiplicity
  _atom_site_fract_x
  _atom_site_fract_y
  _atom_site_fract_z
  _atom_site_occupancy
  N   N1        1.0  0.6992943133617318  0.5626247056832556  0.6059737888855055  1.0000
  C   C1        1.0  0.6483039885678753  0.5954741807802022  0.537374950893623  1.0000
  C   C2        1.0  0.584867022091509  0.6363365420421541  0.4520466369622072  1.0000
  C   C3        1.0  0.596282088043448  0.6963715320077222  0.3256095223894828  1.0000
  C   C4        1.0  0.5347611568235534  0.7355633015778484  0.2426721747320715  1.0000
  C   C5        1.0  0.461669337096275  0.7150128930095039  0.2855129327805017  1.0000
  C   C6        1.0  0.44927818184169044  0.6548458064654299  0.41241777691727366  1.0000
  C   C7        1.0  0.5116564104478852  0.6156576561967599  0.4953386244168134  1.0000
  C   C8        1.0  0.3716245808087443  0.6330571438459345  0.4581150467766548  1.0000
  C   C9        1.0  0.3526807412279316  0.6632030813775314  0.5852399970211377  1.0000
  C   C10       1.0  0.27955873474062576  0.6426988259725246  0.6281214503591814  1.0000
  C   C11       1.0  0.2244390662815317  0.5917659680981722  0.544715047742516  1.0000
  C   C12       1.0  0.1491836480312872  0.5706473040247463  0.588995552900695  1.0000
  N   N2        1.0  0.08868362143042861  0.553669318464197  0.6245940327501216  1.0000
  C   C13       1.0  0.24269238807203422  0.561432261416307  0.4181324871348922  1.0000
  C   C14       1.0  0.3157614548900158  0.5819530260403025  0.3749952099118481  1.0000
  H   H1        1.0  0.6526620972197205  0.7128455091979764  0.2912226327117918  1.0000
  H   H2        1.0  0.5437159523473578  0.7823466846794624  0.14503539527896314  1.0000
  H   H3        1.0  0.4148587088473817  0.7479463515168165  0.22002210450123075  1.0000
  H   H4        1.0  0.5034080200202561  0.5673359226934659  0.5928464751083824  1.0000
  H   H5        1.0  0.3941416286862505  0.7044678874103235  0.650929732845925  1.0000
  H   H6        1.0  0.2659885189740521  0.666924058611954  0.7261953321409929  1.0000
  H   H7        1.0  0.20050728195778802  0.521574635319344  0.35285978926308204  1.0000
  H   H8        1.0  0.3288121667491183  0.5560224518449897  0.2772196680553223  1.0000
  C   C15       1.0  0.8961986967265126  0.13463459880373474  0.61406278138656  1.0000
  C   C16       1.0  0.878655052047771  0.21834539524458352  0.497231774142302  1.0000
  C   C17       1.0  0.8547193642561903  0.15421382192446131  0.3851898993309817  1.0000
  C   C18       1.0  0.8481883739552527  0.003381344108190234  0.3895553522796049  1.0000
  C   C19       1.0  0.8665182977698203  0.9184583195883935  0.5039259817993083  1.0000
  C   C20       1.0  0.8917864706000834  0.9816481842765928  0.6165165451579069  1.0000
  O   O1        1.0  0.8376310439382123  0.2440797819474816  0.2721985469377304  1.0000
  C   C21       1.0  0.8125561464466752  0.19377774195971065  0.1514918283022697  1.0000
  H   H9        1.0  0.9023135727769378  0.21105583901169456  0.9339278245418517  1.0000
  H   H10       1.0  0.881828437365362  0.3351494596077498  0.49353434189076634  1.0000
  H   H11       1.0  0.8296442783462271  0.9504031270617372  0.30468079282439087  1.0000
  H   H12       1.0  0.8626140148651013  0.8020798596929689  0.5033068651867587  1.0000
  H   H13       1.0  0.8990533312514492  0.6824681055311509  0.8312087328091907  1.0000
  H   H14       1.0  0.7586392317237158  0.1368879848489073  0.16388001683425957  1.0000
  H   H15       1.0  0.8556928536495008  0.12019231100129124  0.11461520237195379  1.0000
  H   H16       1.0  0.8034192710602612  0.28770085576977844  0.07925842570145103  1.0000
  C   C22       1.0  0.8939979926877152  0.5582877099364821  0.23393764940248787  1.0000
  C   C23       1.0  0.8169237435626645  0.5941727241919228  0.22692030499798377  1.0000
  C   C24       1.0  0.7783024989156961  0.6141983772197619  0.10598615127366084  1.0000
  C   C25       1.0  0.8169330508209183  0.5938437401387604  0.9917857566773072  1.0000
  C   C26       1.0  0.8939872143432473  0.5579950242380047  0.9966417063694659  1.0000
  C   C27       1.0  0.9321739382939493  0.5409423074914994  0.11820710969417615  1.0000
  N   N3        1.0  0.6991394444876321  0.6487211862046027  0.09732189165254958  1.0000
  C   C28       1.0  0.6613734973493945  0.7393567687870892  0.1832503401801171  1.0000
  O   O2        1.0  0.6982662437004412  0.8156349363144986  0.25751997195023857  1.0000
  C   C29       1.0  0.5775625130167376  0.7518905061209458  0.1781635248096756  1.0000
  H   H17       1.0  0.9230656164674486  0.5425737122182726  0.5641575057464052  1.0000
  H   H18       1.0  0.786631064690736  0.6037245191880061  0.3156427408373941  1.0000
  H   H19       1.0  0.7865646465699041  0.6073529833061859  0.8990046264863626  1.0000
  H   H20       1.0  0.9916233290057874  0.5133042270117558  0.1228081064839961  1.0000
  H   H21       1.0  0.9229466695806997  0.5423053081218476  0.6712033600079845  1.0000
  H   H22       1.0  0.6679345681740896  0.6134771466653663  0.018759768128916887  1.0000
  H   H23       1.0  0.5531747516005253  0.6446859165058154  0.16428248048142158  1.0000
  H   H24       1.0  0.5567750970210099  0.7908866966352255  0.27033577606118664  1.0000
  H   H25       1.0  0.5591086597148565  0.8293833522379848  0.09566111700453006  1.0000
  Zn  Zn1       1.0  0.8116636796884401  0.5600365210722253  0.6113546644914485  1.0000
  Zn  Zn2       1.0  0.976314313740573  0.5562457349147316  0.6192237156456666  1.0000
  C   C30       1.0  0.8940174841819886  0.5523050276312849  0.852457557086291  1.0000
  C   C31       1.0  0.893962297745977  0.563979006607813  0.37812104171299854  1.0000
  C   C32       1.0  0.8926166945730499  0.8215466618705743  0.6108776016010553  1.0000
  C   C33       1.0  0.8953630401961821  0.2947356409106532  0.6197010587290117  1.0000
  O   O3        1.0  0.9564344085112894  0.5644441823325501  0.42949655097990846  1.0000
  O   O4        1.0  0.9565114005786762  0.5489616450818846  0.8070540985866661  1.0000
  O   O5        1.0  0.9553794029199499  0.7663776886300104  0.6119765394014336  1.0000
  O   O6        1.0  0.9575663499335447  0.3470281504321666  0.6245740101395021  1.0000
  O   O7        1.0  0.8304115873082797  0.7692541068499732  0.6060043673054654  1.0000
  O   O8        1.0  0.8315435759385505  0.5518397960548993  0.8010818622677733  1.0000
  O   O9        1.0  0.8314665842050427  0.5673222836464644  0.4235227531863279  1.0000
  O   O10       1.0  0.8325985256765807  0.34990624139352033  0.6186003096794135  1.0000
