data_image0
_chemical_formula_structural       NC12NC2H8C9NC2H9C6SCNH4Zn2C4O8
_chemical_formula_sum              "N4 C36 H21 S1 Zn2 O8"
_cell_length_a       17.80743265337812
_cell_length_b       9.273595471060368
_cell_length_c       9.275272990362726
_cell_angle_alpha    85.13091876471476
_cell_angle_beta     91.20895717805207
_cell_angle_gamma    88.84631592348521

_space_group_name_H-M_alt    "P 1"
_space_group_IT_number       1

loop_
  _space_group_symop_operation_xyz
  'x, y, z'

loop_
  _atom_site_type_symbol
  _atom_site_label
  _atom_site_symmetry_multiplicity
  _atom_site_fract_x
  _atom_site_fract_y
  _atom_site_fract_z
  _atom_site_occupancy
  N   N1        1.0  0.703503445673803  0.5763046454871781  0.44802777153672646  1.0000
  C   C1        1.0  0.6527256010100784  0.6098185585768202  0.3717416528774808  1.0000
  C   C2        1.0  0.5895529328392712  0.6515073973584402  0.27685132668060053  1.0000
  C   C3        1.0  0.6013596910706462  0.712766936712427  0.13624648178172968  1.0000
  C   C4        1.0  0.5400957161793518  0.7527619209585699  0.044016072525056446  1.0000
  C   C5        1.0  0.46687120450151404  0.731796556221256  0.09165769383987699  1.0000
  C   C6        1.0  0.4540868970424787  0.6704004081631687  0.23278250518563448  1.0000
  C   C7        1.0  0.5162082209485027  0.6304092021868289  0.3249945735278587  1.0000
  C   C8        1.0  0.37629174046065866  0.648169147354189  0.2836004925079385  1.0000
  C   C9        1.0  0.3569430795445763  0.6771018334132632  0.42479536431718934  1.0000
  C   C10       1.0  0.2836882470794329  0.6561822406960925  0.4724821144578921  1.0000
  C   C11       1.0  0.22883796677447144  0.6060392124656561  0.37990466465248446  1.0000
  C   C12       1.0  0.153445382330881  0.5844916710974148  0.42914713896642054  1.0000
  N   N2        1.0  0.0928350835509349  0.5671688976901934  0.46873470071894585  1.0000
  C   C13       1.0  0.2474944211415342  0.5769135180316267  0.23931282436553025  1.0000
  C   C14       1.0  0.32069711921429017  0.5978520768063788  0.19134178717125278  1.0000
  H   H1        1.0  0.6578462103528088  0.7295739815859529  0.09800613547668478  1.0000
  H   H2        1.0  0.5493529313500946  0.8004910048667686  0.9354379250658996  1.0000
  H   H3        1.0  0.42026323847830527  0.765364661002794  0.018824834691605345  1.0000
  H   H4        1.0  0.5076580046597585  0.58114269915165  0.43343243606406423  1.0000
  H   H5        1.0  0.3981916607567687  0.7177448088326951  0.49770586719207927  1.0000
  H   H6        1.0  0.2698056035894084  0.6794716707747871  0.5814087356660987  1.0000
  H   H7        1.0  0.20552013426376162  0.5376740020394213  0.16686298839085986  1.0000
  H   H8        1.0  0.33405952457710464  0.572854105449961  0.08274995737075796  1.0000
  C   C15       1.0  0.9004343112829859  0.14815203132376806  0.4578427271721828  1.0000
  C   C16       1.0  0.8924706438595852  0.23318922322742974  0.3255081903168764  1.0000
  C   C17       1.0  0.8778822356736682  0.1699785773250777  0.19696088479752727  1.0000
  C   C18       1.0  0.8708907124113789  0.01967010094965714  0.1971701747958749  1.0000
  C   C19       1.0  0.8800116794211981  0.9334469899676198  0.32860419131089014  1.0000
  C   C20       1.0  0.895911408155069  0.9953101302795768  0.45893253337146306  1.0000
  C   C21       1.0  0.8548498868442432  0.9527396092381714  0.06018675931561645  1.0000
  C   C22       1.0  0.8916746365635797  0.8234542768365226  0.03039455099188569  1.0000
  C   C23       1.0  0.8757273130614486  0.762534340613711  0.9008247284388076  1.0000
  N   N3        1.0  0.8248240090272805  0.8278946699200725  0.8040183456040261  1.0000
  C   C24       1.0  0.7882818696788487  0.9529132041008561  0.8295537396767811  1.0000
  C   C25       1.0  0.80256927949975  0.0176178619930738  0.9576739733388568  1.0000
  H   H9        1.0  0.9521574064554474  0.4086693091226985  0.677076328159609  1.0000
  H   H10       1.0  0.8959408264068351  0.3499422133719996  0.32170246384680423  1.0000
  H   H11       1.0  0.8723251302206528  0.23899934226120775  0.09695597725791028  1.0000
  H   H12       1.0  0.8753766783029809  0.8170516250656816  0.32938920263719695  1.0000
  H   H13       1.0  0.9771585882682275  0.861714903755907  0.7815756362984687  1.0000
  H   H14       1.0  0.9331049974837833  0.77105023447016  0.1055076110103423  1.0000
  H   H15       1.0  0.9040414017688387  0.663285546684046  0.8770644032834797  1.0000
  H   H16       1.0  0.7479272472576343  0.002060776601785942  0.7504430716405572  1.0000
  H   H17       1.0  0.7723414093413216  0.11629903052853496  0.9771913287587823  1.0000
  C   C26       1.0  0.89938165687221  0.5755349233960323  0.034653366958915084  1.0000
  C   C27       1.0  0.8417413271083998  0.6513533865585457  0.09945832499909386  1.0000
  C   C28       1.0  0.7815713181347854  0.7147148269136314  0.0167091402018511  1.0000
  C   C29       1.0  0.777944804296419  0.70375092145877  0.8676687024401847  1.0000
  C   C30       1.0  0.8351567163328971  0.6305033568880187  0.8009159032209971  1.0000
  C   C31       1.0  0.8969640989950337  0.5679272513195341  0.8821218856281788  1.0000
  S   S1        1.0  0.7000508650773388  0.7837131744744861  0.7619832552927455  1.0000
  C   C32       1.0  0.745631039565874  0.9500651307765775  0.728426383577301  1.0000
  N   N4        1.0  0.7755326599961784  0.059112714328866105  0.7064434788843474  1.0000
  H   H18       1.0  0.8422504638430482  0.6587269754161028  0.21540956784898624  1.0000
  H   H19       1.0  0.7374163180066506  0.7714369921449895  0.06893438093163318  1.0000
  H   H20       1.0  0.8322310613052338  0.6257057809719072  0.6846125835375911  1.0000
  H   H21       1.0  0.07604880530442015  0.4747167549095938  0.7942870698633  1.0000
  Zn  Zn1       1.0  0.8158561465075418  0.5736643402490302  0.4540116576879092  1.0000
  Zn  Zn2       1.0  0.9804824094654562  0.5697973311678988  0.46276256923895204  1.0000
  C   C33       1.0  0.897450061287112  0.5636189364929691  0.7219247244225844  1.0000
  C   C34       1.0  0.8988902822787355  0.5798445114318125  0.19484974203168343  1.0000
  C   C35       1.0  0.8967788889177231  0.8352309485916789  0.45297627281031416  1.0000
  C   C36       1.0  0.8995614075056251  0.3082307669415236  0.46379826535863233  1.0000
  O   O1        1.0  0.9612002149090778  0.5798170458404218  0.2519340261504617  1.0000
  O   O2        1.0  0.9600876600439681  0.5607103472240333  0.6714817629131751  1.0000
  O   O3        1.0  0.9595448333970865  0.7800404883103029  0.45430394254248857  1.0000
  O   O4        1.0  0.9617429856337161  0.36048691736353433  0.46911173535654344  1.0000
  O   O5        1.0  0.8345955141604313  0.782974755374654  0.44766248857647284  1.0000
  O   O6        1.0  0.8351383317709616  0.5636463480012224  0.6648402342386361  1.0000
  O   O7        1.0  0.8362508919034064  0.5827530119244897  0.24529076256098326  1.0000
  O   O8        1.0  0.8367936623714374  0.36342287215947944  0.4624685799378254  1.0000
