data_image0
_chemical_formula_structural       NC6NC3H6C7NH5C6NCH7Zn2C4O8
_chemical_formula_sum              "N4 C27 H18 Zn2 O8"
_cell_length_a       14.934028789175542
_cell_length_b       9.275154477615127
_cell_length_c       9.273390368590329
_cell_angle_alpha    86.39388611738053
_cell_angle_beta     89.96634751040418
_cell_angle_gamma    89.3962875590186

_space_group_name_H-M_alt    "P 1"
_space_group_IT_number       1

loop_
  _space_group_symop_operation_xyz
  'x, y, z'

loop_
  _atom_site_type_symbol
  _atom_site_label
  _atom_site_symmetry_multiplicity
  _atom_site_fract_x
  _atom_site_fract_y
  _atom_site_fract_z
  _atom_site_occupancy
  N   N1        1.0  0.8337664177819296  0.5602212948941283  0.415860215350665  1.0000
  C   C1        1.0  0.7562871972426196  0.5591161464582652  0.41517708645111195  1.0000
  C   C2        1.0  0.6598991729417923  0.5577362625578177  0.41432432585301004  1.0000
  C   C3        1.0  0.611473646467689  0.665201406214333  0.4806308960723092  1.0000
  C   C4        1.0  0.5179687563051838  0.6640934662744185  0.47994716229002954  1.0000
  C   C5        1.0  0.4719765052097186  0.5555752272427982  0.41299089687744983  1.0000
  C   C6        1.0  0.3753163735912462  0.5579036093875372  0.4144288055742331  1.0000
  N   N2        1.0  0.2978248545022617  0.559751477660029  0.41557029572580495  1.0000
  C   C7        1.0  0.5204056330061098  0.44662332093716056  0.3457664349043279  1.0000
  C   C8        1.0  0.47281722880989047  0.3286414508600397  0.2729722871341731  1.0000
  C   C9        1.0  0.6145346168500977  0.4488618060929479  0.34714764430033296  1.0000
  H   H1        1.0  0.6459955683845189  0.7498739772360148  0.532874912162433  1.0000
  H   H2        1.0  0.481414755932799  0.7481139342018421  0.53178868402214  1.0000
  H   H3        1.0  0.4297809363309954  0.376760940237717  0.18456860971450162  1.0000
  H   H4        1.0  0.43044511122816187  0.2666588532230443  0.35282897669572755  1.0000
  H   H5        1.0  0.5207475018517445  0.25222281666713786  0.2258151650872173  1.0000
  H   H6        1.0  0.6525747817573567  0.36595906387850086  0.2959960546310634  1.0000
  C   C10       1.0  0.06839139694093019  0.13657673476070764  0.4140457251776912  1.0000
  C   C11       1.0  0.04383346246029804  0.21843070676553067  0.2869779818308795  1.0000
  C   C12       1.0  0.011991013682806966  0.1511460545050773  0.16664657027154783  1.0000
  C   C13       1.0  0.004182106996887035  0.0010898893389912389  0.17196583209579308  1.0000
  C   C14       1.0  0.029570431156259222  0.9179966299423481  0.29613629887464454  1.0000
  C   C15       1.0  0.06320854984668164  0.9833850680794415  0.4173972271807078  1.0000
  C   C16       1.0  0.9862420294653376  0.23656677396145406  0.0380478884830493  1.0000
  N   N3        1.0  0.96554698892065  0.3052294690934996  0.9346874882393168  1.0000
  H   H7        1.0  0.0856959239548083  0.21698858595339532  0.7678322760632588  1.0000
  H   H8        1.0  0.04749105954305353  0.3353409740852366  0.28269905201824996  1.0000
  H   H9        1.0  0.9792320591092002  0.948005992722952  0.07948388299847298  1.0000
  H   H10       1.0  0.024868433846721317  0.8015324469465207  0.2960123905498597  1.0000
  H   H11       1.0  0.07866020226895439  0.6871173557260603  0.6544418697591714  1.0000
  C   C17       1.0  0.06586899311992805  0.5554845903846191  0.9924578613186075  1.0000
  C   C18       1.0  0.1481281553647109  0.5525364636254707  0.06599762782102636  1.0000
  C   C19       1.0  0.22887080322800726  0.5629932253013279  0.9905740637988484  1.0000
  C   C20       1.0  0.22940501696342402  0.5767866465950037  0.8390002819876954  1.0000
  C   C21       1.0  0.1477065238353079  0.5773026263436059  0.7646409488847645  1.0000
  C   C22       1.0  0.06573097005020087  0.5644772153441737  0.8389850378541  1.0000
  N   N4        1.0  0.31165093795948934  0.5889020240284313  0.7582088597815813  1.0000
  C   C23       1.0  0.4000602226108027  0.5889824490911513  0.8251424952647866  1.0000
  H   H12       1.0  0.9249586623880715  0.4863679581607628  0.2781120438259683  1.0000
  H   H13       1.0  0.29057422387635823  0.5616040127557544  0.051651272782497815  1.0000
  H   H14       1.0  0.8577370147513214  0.45267217371367163  0.7431809954075117  1.0000
  H   H15       1.0  0.30868708321857885  0.5984607062197737  0.6453726606967272  1.0000
  H   H16       1.0  0.4053054830729665  0.681469300613865  0.8949734617202414  1.0000
  H   H17       1.0  0.4116135050934189  0.4859058326651479  0.8902817032004567  1.0000
  H   H18       1.0  0.452469114278901  0.5998294735355556  0.7402622840543001  1.0000
  Zn  Zn1       1.0  0.9676836942103093  0.5600819404157213  0.4157848525958965  1.0000
  Zn  Zn2       1.0  0.1639076785053707  0.5598791464787332  0.4156573958431087  1.0000
  C   C24       1.0  0.06579019917399687  0.5570333898042761  0.6789505502989739  1.0000
  C   C25       1.0  0.06580330514375049  0.5629295156337919  0.15249184541744665  1.0000
  C   C26       1.0  0.06418454198456187  0.8232592379064398  0.41102000727567334  1.0000
  C   C27       1.0  0.06740890596561822  0.2967019361122405  0.42042245847293436  1.0000
  O   O1        1.0  0.1402472775685414  0.5653448510024035  0.20615231834057357  1.0000
  O   O2        1.0  0.14027569724024924  0.5544630463985185  0.6251929214303888  1.0000
  O   O3        1.0  0.13897810467205352  0.7694438025846853  0.408837118871598  1.0000
  O   O4        1.0  0.14154480313327822  0.3503641040517429  0.4225080129120702  1.0000
  O   O5        1.0  0.9900465026207778  0.7695969829134046  0.40893423556285424  1.0000
  O   O6        1.0  0.9913440845949176  0.5546179582173179  0.6252899681253772  1.0000
  O   O7        1.0  0.9913156655728761  0.5654996941675681  0.20624763191078088  1.0000
  O   O8        1.0  0.9926131911794475  0.3505189380520932  0.42260343450549165  1.0000
