data_image0
_chemical_formula_structural       NC12NC2H8C12H10C12H9Zn2C4O8
_chemical_formula_sum              "N2 C42 H27 Zn2 O8"
_cell_length_a       19.240039667572717
_cell_length_b       14.388199552941785
_cell_length_c       14.388202922059106
_cell_angle_alpha    85.37141914913748
_cell_angle_beta     92.42188995312777
_cell_angle_gamma    92.40759244295023

_space_group_name_H-M_alt    "P 1"
_space_group_IT_number       1

loop_
  _space_group_symop_operation_xyz
  'x, y, z'

loop_
  _atom_site_type_symbol
  _atom_site_label
  _atom_site_symmetry_multiplicity
  _atom_site_fract_x
  _atom_site_fract_y
  _atom_site_fract_z
  _atom_site_occupancy
  N   N1        1.0  0.6536977155332836  0.013868747597490174  0.9674494922289201  1.0000
  C   C1        1.0  0.5935493467315889  0.013868807515038866  0.9674494331581225  1.0000
  C   C2        1.0  0.5187313090920196  0.01386889111522029  0.9674493342794429  1.0000
  C   C3        1.0  0.48316699559019666  0.9680149458395819  0.04181015152328579  1.0000
  C   C4        1.0  0.41049573479984125  0.9679357614834618  0.04187264489375864  1.0000
  C   C5        1.0  0.372399071047969  0.01386895668346114  0.9674491707878099  1.0000
  C   C6        1.0  0.40867809429074203  0.059802286591161845  0.8930258351459952  1.0000
  C   C7        1.0  0.48134826758107424  0.05972293384490634  0.8930884173388782  1.0000
  C   C8        1.0  0.2951939766786387  0.013868899967998595  0.9674491028155365  1.0000
  C   C9        1.0  0.2564243697026883  0.9328248118291407  0.9979599514546378  1.0000
  C   C10       1.0  0.1837539961726311  0.9329011259895539  0.9978940509454026  1.0000
  C   C11       1.0  0.14886168825061874  0.01386880758332469  0.9674491470358855  1.0000
  C   C12       1.0  0.0740436542056543  0.013868726906596471  0.9674493256502962  1.0000
  N   N2        1.0  0.013895341179836512  0.013868698361695134  0.9674494751071527  1.0000
  C   C13       1.0  0.18691689167892478  0.09483654335007063  0.9370042048960494  1.0000
  C   C14       1.0  0.25958790308317964  0.09491298606557622  0.9369381871055926  1.0000
  H   H1        1.0  0.5116013421917164  0.9325161591535053  0.09986701401748715  1.0000
  H   H2        1.0  0.38416513166400557  0.9330129097500891  0.10072473624535633  1.0000
  H   H3        1.0  0.3808221660873569  0.09472515754116032  0.8341737072521656  1.0000
  H   H4        1.0  0.5083436964712809  0.09522164961085912  0.835031752830383  1.0000
  H   H5        1.0  0.2822317561130871  0.8690232278153968  0.020693916532319768  1.0000
  H   H6        1.0  0.15479687317469049  0.8697476600300948  0.021363663227500926  1.0000
  H   H7        1.0  0.16044419101100327  0.15798999177099793  0.9135346031482342  1.0000
  H   H8        1.0  0.2879669962432611  0.15871462668094852  0.9142041895970419  1.0000
  C   C15       1.0  0.8252619892038081  0.7404928606076776  0.9692270262624296  1.0000
  C   C16       1.0  0.7562097490848116  0.761862157126075  0.9842243728282014  1.0000
  C   C17       1.0  0.704892257755371  0.6907988998312864  0.9955063027138017  1.0000
  C   C18       1.0  0.7217019308151464  0.5977528338381567  0.9919761939017264  1.0000
  C   C19       1.0  0.7903707311125604  0.5745962059852594  0.9769813021276261  1.0000
  C   C20       1.0  0.8418711299898904  0.646601667520897  0.9657048902145533  1.0000
  C   C21       1.0  0.8082744349205545  0.47559200782402855  0.9730993978719544  1.0000
  C   C22       1.0  0.7798773288739551  0.40570274183555527  0.035930645749724904  1.0000
  C   C23       1.0  0.7967440822903715  0.31254934887948793  0.032303598187340854  1.0000
  C   C24       1.0  0.8423377888749362  0.28723751111678103  0.9656800060115764  1.0000
  C   C25       1.0  0.8706985131058477  0.3570166311987619  0.9028267293985734  1.0000
  C   C26       1.0  0.8538736365475033  0.4501824083733414  0.9065051943829684  1.0000
  H   H9        1.0  0.9859624356981126  0.8447891887698142  0.9343479369107481  1.0000
  H   H10       1.0  0.7418092887385965  0.8334770198837391  0.987237164829154  1.0000
  H   H11       1.0  0.6518118872047964  0.7079332239147642  0.0067811119326492975  1.0000
  H   H12       1.0  0.6808066822833617  0.5439823369358546  0.9997333178468841  1.0000
  H   H13       1.0  0.8950980016885767  0.629263358693276  0.9554544548758326  1.0000
  H   H14       1.0  0.7452854444347321  0.4232303201213645  0.0887773358564154  1.0000
  H   H15       1.0  0.7741768870801478  0.2604012820253414  0.08187619939815888  1.0000
  H   H16       1.0  0.9182366199544483  0.0970979911568538  0.8919049246854767  1.0000
  H   H17       1.0  0.9058160359775239  0.339712007893481  0.850514372953219  1.0000
  H   H18       1.0  0.8758572078049155  0.5022358562367891  0.856350083276098  1.0000
  C   C27       1.0  0.8251266843522376  0.012547644074020424  0.6943200974036918  1.0000
  C   C28       1.0  0.754923062762896  0.0012397410151325963  0.717724078180676  1.0000
  C   C29       1.0  0.7027379704784062  0.9926999420636167  0.6481941703457139  1.0000
  C   C30       1.0  0.71981738767104  0.9953321734981775  0.5546717477192312  1.0000
  C   C31       1.0  0.7896381983190924  0.006657998989513916  0.529479142375249  1.0000
  C   C32       1.0  0.842005301323854  0.015182544738360447  0.5999528476698401  1.0000
  C   C33       1.0  0.8078398962588588  0.009583363098560019  0.42994837723754165  1.0000
  C   C34       1.0  0.7740193479533702  0.9484013345569233  0.3697506325975093  1.0000
  C   C35       1.0  0.7911642242101784  0.9511272875734843  0.2761059481076384  1.0000
  C   C36       1.0  0.8424730949676315  0.015182713964239312  0.24058695266600028  1.0000
  C   C37       1.0  0.8762592035637222  0.07638861270362973  0.30067097602247794  1.0000
  C   C38       1.0  0.8591517062245484  0.07360917162695116  0.3943362760947553  1.0000
  H   H19       1.0  0.9885046798063485  0.038840625598192347  0.7938849718502627  1.0000
  H   H20       1.0  0.740292519282299  0.9989960916497812  0.7897452414659246  1.0000
  H   H21       1.0  0.6487946739762941  0.9842606595148012  0.6668529653107462  1.0000
  H   H22       1.0  0.6783385089965236  0.9897575066905648  0.5019304242075997  1.0000
  H   H23       1.0  0.8960053072410348  0.022592173754834025  0.5812508643619934  1.0000
  H   H24       1.0  0.7348904746039371  0.8975084759155812  0.3953816761861433  1.0000
  H   H25       1.0  0.764318395307532  0.9028645613797425  0.23160352930508352  1.0000
  H   H26       1.0  0.9158658979161612  0.1267205201460353  0.2753487527254138  1.0000
  H   H27       1.0  0.8854661357939377  0.12248397868805738  0.4386504683597574  1.0000
  Zn  Zn1       1.0  0.75764307145029  0.013866273872242627  0.9674548665636858  1.0000
  Zn  Zn2       1.0  0.909950007912489  0.013863615000849781  0.9674517408854666  1.0000
  C   C39       1.0  0.8390768588813967  0.010975976303249091  0.1373548652048638  1.0000
  C   C40       1.0  0.8285179232523244  0.016755087589440925  0.7975518258803238  1.0000
  C   C41       1.0  0.8389888133075047  0.18387322830397168  0.9626440509667364  1.0000
  C   C42       1.0  0.8286058834974374  0.8438567173603704  0.9722626969637742  1.0000
  O   O1        1.0  0.8874556157963047  0.01816207367920434  0.8321961771601651  1.0000
  O   O2        1.0  0.8957365765336867  0.009566268607639651  0.10270787841812712  1.0000
  O   O3        1.0  0.8956647301625605  0.1491829908612081  0.9616276535490851  1.0000
  O   O4        1.0  0.8875274081888567  0.8785453577496309  0.9732763322480986  1.0000
  O   O5        1.0  0.7800656191989163  0.1491845311253588  0.9616302751972212  1.0000
  O   O6        1.0  0.7801374989238151  0.00956892710203539  0.1027104432171083  1.0000
  O   O7        1.0  0.7718565017096755  0.018164694338647543  0.8321976239067093  1.0000
  O   O8        1.0  0.7719282961057955  0.8785479720869757  0.9732778487719189  1.0000
