data_image0
_chemical_formula_structural       NC10NC3NCH9C12NCOCH13C12IH9Zn2C4O8
_chemical_formula_sum              "N4 C44 H31 O9 I1 Zn2"
_cell_length_a       19.437513618241372
_cell_length_b       10.299155265289647
_cell_length_c       10.29977335064465
_cell_angle_alpha    85.52787819197465
_cell_angle_beta     90.35638175706923
_cell_angle_gamma    89.50051482239499

_space_group_name_H-M_alt    "P 1"
_space_group_IT_number       1

loop_
  _space_group_symop_operation_xyz
  'x, y, z'

loop_
  _atom_site_type_symbol
  _atom_site_label
  _atom_site_symmetry_multiplicity
  _atom_site_fract_x
  _atom_site_fract_y
  _atom_site_fract_z
  _atom_site_occupancy
  N   N1        1.0  0.6474379050212432  0.4109968626873696  0.5753293860024502  1.0000
  C   C1        1.0  0.5885007826469614  0.42800912454189627  0.5723498025481437  1.0000
  C   C2        1.0  0.515055582609616  0.44926437969502775  0.5686513292780924  1.0000
  C   C3        1.0  0.4733119784258514  0.3480713752396337  0.557013213595061  1.0000
  C   C4        1.0  0.3974190833281075  0.3581393576763903  0.5497897390683111  1.0000
  C   C5        1.0  0.3578369840087648  0.43897062431316747  0.6155154760283132  1.0000
  C   C6        1.0  0.2816554029149792  0.4303647112862447  0.6070731558643103  1.0000
  C   C7        1.0  0.2485444840663548  0.3090099342663329  0.611741968046377  1.0000
  C   C8        1.0  0.1768101536461805  0.30264024128472644  0.6045752267863472  1.0000
  C   C9        1.0  0.1372162575328155  0.417152479920764  0.5931020050080282  1.0000
  C   C10       1.0  0.0633674997146401  0.41044464244141654  0.585767242797774  1.0000
  N   N2        1.0  0.003998196399596003  0.40505213105333476  0.5798705522638683  1.0000
  C   C11       1.0  0.16961073991826991  0.5381964004900732  0.5891785358610904  1.0000
  C   C12       1.0  0.24132943252929462  0.5448200804431156  0.5964072454929306  1.0000
  C   C13       1.0  0.3865143232905777  0.5312299232908313  0.7054163088735349  1.0000
  N   N3        1.0  0.4434842488088069  0.5944541434605082  0.6849988211906156  1.0000
  C   C14       1.0  0.487311511206471  0.585233006788235  0.5718929325442366  1.0000
  H   H1        1.0  0.49571299934280644  0.2530129353701065  0.5449118918671216  1.0000
  H   H2        1.0  0.37271065306930895  0.2886433310676779  0.4914860276153701  1.0000
  H   H3        1.0  0.2780139516787317  0.21908792763032478  0.622781674454862  1.0000
  H   H4        1.0  0.1522356034042404  0.2084060944887822  0.6084821444226449  1.0000
  H   H5        1.0  0.1394564313546838  0.6274626202802303  0.5804511198637474  1.0000
  H   H6        1.0  0.265422377928925  0.6394670608371611  0.5924847815638945  1.0000
  H   H7        1.0  0.3565185347310845  0.5515864738094866  0.789778889156968  1.0000
  H   H8        1.0  0.5300511031074782  0.6555482065794105  0.5776416184434416  1.0000
  H   H9        1.0  0.45762662426480427  0.6133764065827889  0.481241258675967  1.0000
  C   C15       1.0  0.825798201976646  0.02662561286228171  0.5777197136537524  1.0000
  C   C16       1.0  0.814033996846828  0.0365720794078117  0.44264526100953794  1.0000
  C   C17       1.0  0.8080026539046679  0.9244786192204447  0.37404109589318835  1.0000
  C   C18       1.0  0.8138694651153562  0.8013151676011165  0.4423353819832212  1.0000
  C   C19       1.0  0.8256445196795854  0.7894132559770315  0.5774915630318427  1.0000
  C   C20       1.0  0.831539457364068  0.9025871829855568  0.64435168991235  1.0000
  C   C21       1.0  0.7955583947002695  0.935974434965252  0.2311486459655403  1.0000
  C   C22       1.0  0.8304432233560813  0.02953403326442094  0.1501756878466871  1.0000
  C   C23       1.0  0.8187380166666325  0.04022138164817157  0.015704443045053248  1.0000
  C   C24       1.0  0.7723417184920246  0.9566733583720246  0.9593632054433093  1.0000
  C   C25       1.0  0.7366164883485306  0.8649440826891553  0.04025730092256352  1.0000
  C   C26       1.0  0.7483467500910074  0.8540003110508241  0.17469152951951084  1.0000
  N   N4        1.0  0.7584221627040955  0.9671976378375324  0.8216254437749124  1.0000
  C   C27       1.0  0.8086498208175855  0.0033332857658228076  0.724047833372345  1.0000
  O   O1        1.0  0.8717690865035109  0.004804867943540616  0.7527100285630143  1.0000
  C   C28       1.0  0.7866891514026478  0.03019773849458174  0.5852288303665714  1.0000
  H   H10       1.0  0.8303445736115326  0.35027560933401974  0.6296697035905436  1.0000
  H   H11       1.0  0.8085861732664751  0.1317272855289171  0.3907664559694357  1.0000
  H   H12       1.0  0.8101639435536909  0.714597451211684  0.3896599594937516  1.0000
  H   H13       1.0  0.8406157507095915  0.8942003619292275  0.748537022013609  1.0000
  H   H14       1.0  0.8482812830381674  0.5596588834197294  0.8324662138735819  1.0000
  H   H15       1.0  0.867185040055301  0.09395489738437623  0.19073578836489327  1.0000
  H   H16       1.0  0.8451269635393592  0.11525921591899536  0.9564603518507561  1.0000
  H   H17       1.0  0.6998085705850285  0.80122869359372  0.9988293262323165  1.0000
  H   H18       1.0  0.7197471227482181  0.7826153727626363  0.23474040911175664  1.0000
  H   H19       1.0  0.7099610933701278  0.9391485948390161  0.7899349238037737  1.0000
  H   H20       1.0  0.7370249100325912  0.08447309663577253  0.580142678442904  1.0000
  H   H21       1.0  0.7803187874856531  0.936711144682231  0.5399238175969576  1.0000
  H   H22       1.0  0.8258510868432173  0.08965669263628007  0.530332545393034  1.0000
  C   C29       1.0  0.82568852721967  0.4081260500067436  0.19623600081386083  1.0000
  C   C30       1.0  0.8880417826795921  0.4760951558454489  0.19067246404296112  1.0000
  C   C31       1.0  0.9196697686532984  0.5104272462679602  0.07072379383085292  1.0000
  C   C32       1.0  0.888108006031035  0.47587987911751983  0.9554037576099672  1.0000
  C   C33       1.0  0.8257541739745108  0.4079127879891395  0.9589753282408746  1.0000
  C   C34       1.0  0.7948938569796951  0.3744153995974371  0.07986396314048429  1.0000
  C   C35       1.0  0.9856340414326282  0.5823305733246518  0.06589205114448249  1.0000
  C   C36       1.0  0.9964360895583795  0.6851773255212752  0.1458097001399159  1.0000
  C   C37       1.0  0.05855769302091707  0.7527389930796142  0.14106072257215763  1.0000
  C   C38       1.0  0.11056766370214954  0.718509734128304  0.05674367272202586  1.0000
  C   C39       1.0  0.10042909689310096  0.6165381840820718  0.9769769517198634  1.0000
  C   C40       1.0  0.03837733443433834  0.5487493631804767  0.9813209441562982  1.0000
  I   I1        1.0  0.20422455712688126  0.820594831060978  0.04988752470975788  1.0000
  H   H23       1.0  0.801909095336452  0.38229207777184104  0.5258041758509628  1.0000
  H   H24       1.0  0.912639078920136  0.5009339397490427  0.27995511860489586  1.0000
  H   H25       1.0  0.9117966053301997  0.5036747595708626  0.8625842990891647  1.0000
  H   H26       1.0  0.7467907726559049  0.3219814713364102  0.08338761376362624  1.0000
  H   H27       1.0  0.8020052321746336  0.381978309911253  0.6328856531713792  1.0000
  H   H28       1.0  0.9565357417401987  0.7144226300537588  0.21068374973288487  1.0000
  H   H29       1.0  0.06615601609154621  0.831895219051716  0.20271985223150235  1.0000
  H   H30       1.0  0.14066689433124857  0.5895236500094341  0.9118153961073375  1.0000
  H   H31       1.0  0.03197472851534511  0.46903227416135285  0.9198381136794569  1.0000
  Zn  Zn1       1.0  0.7503335098448591  0.40927784996222494  0.5766473785032694  1.0000
  Zn  Zn2       1.0  0.9011026008541714  0.40676047041022434  0.5785632328472847  1.0000
  C   C41       1.0  0.8257412696029681  0.40277903824512234  0.8148027608362829  1.0000
  C   C42       1.0  0.8256964871706017  0.4132608933499554  0.34040799841191816  1.0000
  C   C43       1.0  0.8256695631260261  0.6452316330049721  0.572359474174047  1.0000
  C   C44       1.0  0.8257681425209838  0.17080673900491702  0.5828513541258624  1.0000
  O   O2        1.0  0.8829152440429284  0.41402319507741187  0.38952049626693125  1.0000
  O   O3        1.0  0.8829527644126733  0.4001051239911575  0.7671439785448144  1.0000
  O   O4        1.0  0.882894089341725  0.5958886729920561  0.5713692990334706  1.0000
  O   O5        1.0  0.8829738676563467  0.21823965625370098  0.5852950777468897  1.0000
  O   O6        1.0  0.7684621915925917  0.5977986649792224  0.5699155329430454  1.0000
  O   O7        1.0  0.7685208663400077  0.40201667642398625  0.765690142742062  1.0000
  O   O8        1.0  0.7684833458907623  0.4159347026865399  0.3880650990746195  1.0000
  O   O9        1.0  0.7685419695116186  0.2201511545461152  0.5838397779253446  1.0000
