data_image0
_chemical_formula_structural       NC12NC2H8C6SCOC6H10C6OC6OCH11Zn2C4O8
_chemical_formula_sum              "N2 C44 H29 S1 O11 Zn2"
_cell_length_a       17.80743265337812
_cell_length_b       10.302038109246572
_cell_length_c       10.299362532796529
_cell_angle_alpha    85.5856087193975
_cell_angle_beta     91.54954799628842
_cell_angle_gamma    89.45358301258409

_space_group_name_H-M_alt    "P 1"
_space_group_IT_number       1

loop_
  _space_group_symop_operation_xyz
  'x, y, z'

loop_
  _atom_site_type_symbol
  _atom_site_label
  _atom_site_symmetry_multiplicity
  _atom_site_fract_x
  _atom_site_fract_y
  _atom_site_fract_z
  _atom_site_occupancy
  N   N1        1.0  0.7074590052623861  0.4058691992068506  0.6015650137651563  1.0000
  C   C1        1.0  0.6566336375039034  0.435397497854541  0.5328717136870833  1.0000
  C   C2        1.0  0.5934018662212377  0.47212855922876185  0.44742589594675075  1.0000
  C   C3        1.0  0.6051182226009179  0.5260931363991341  0.32081609613378936  1.0000
  C   C4        1.0  0.54379391088753  0.5613217851707746  0.23776599887787597  1.0000
  C   C5        1.0  0.4705988825413845  0.5428490331909523  0.28066584840268866  1.0000
  C   C6        1.0  0.4579058061465217  0.4887658410846972  0.40774376633337983  1.0000
  C   C7        1.0  0.5200874319005102  0.4535404398067751  0.49077735261846955  1.0000
  C   C8        1.0  0.3801428244992794  0.4691802042800257  0.45350370066602225  1.0000
  C   C9        1.0  0.3613826843877679  0.4964034163188782  0.5805505778934068  1.0000
  C   C10       1.0  0.2881577243511763  0.47797224151260176  0.6234909962021955  1.0000
  C   C11       1.0  0.23275002540703676  0.4320639304274292  0.5402224555918806  1.0000
  C   C12       1.0  0.1573885880133314  0.4130805417890473  0.5845636977740932  1.0000
  N   N2        1.0  0.0968033291399507  0.3978191740235557  0.6202110061028305  1.0000
  C   C13       1.0  0.2508187303770198  0.40467203215582637  0.41371851476192023  1.0000
  C   C14       1.0  0.3239907960117457  0.42311790135309724  0.370522215062161  1.0000
  H   H1        1.0  0.6615809601676689  0.54090155720271  0.28638183451522603  1.0000
  H   H2        1.0  0.5529836441965682  0.6033752730819317  0.13999469165149203  1.0000
  H   H3        1.0  0.4239541913264552  0.5724549855185164  0.21508046534483413  1.0000
  H   H4        1.0  0.5115958105661507  0.4101019337069236  0.5884240033288488  1.0000
  H   H5        1.0  0.40307660809849294  0.5335961923014274  0.6461285352051322  1.0000
  H   H6        1.0  0.2747344349014388  0.4998460881683305  0.7215019535426221  1.0000
  H   H7        1.0  0.2084082248582952  0.36874637494715  0.3485537009950379  1.0000
  H   H8        1.0  0.33688546322394575  0.3997089803413221  0.2728143536528307  1.0000
  C   C15       1.0  0.9020636030832677  0.020567144685024623  0.6108445956731519  1.0000
  C   C16       1.0  0.8378274532357507  0.026640068737040286  0.5282495029790469  1.0000
  C   C17       1.0  0.8062195180550221  0.9126957374878854  0.4866866199369386  1.0000
  C   C18       1.0  0.8380690828657814  0.791502457685903  0.5282070691616556  1.0000
  C   C19       1.0  0.9022059477855442  0.7831111276577163  0.610942986128738  1.0000
  C   C20       1.0  0.9339110990713276  0.8983025338913879  0.6517496420501974  1.0000
  S   S1        1.0  0.7246826904632081  0.921884549918485  0.38017370184309546  1.0000
  C   C21       1.0  0.7798929625070167  0.929191887214559  0.23639723641576757  1.0000
  O   O1        1.0  0.7980002505547802  0.8235353254774882  0.19091481903450513  1.0000
  C   C22       1.0  0.8046595351251382  0.054825586442465164  0.17208641926936052  1.0000
  C   C23       1.0  0.8577594587538907  0.056035333965762  0.07312388251189716  1.0000
  C   C24       1.0  0.8818948236162515  0.17385325690122744  0.012557257761812267  1.0000
  C   C25       1.0  0.8533364656406542  0.2916926331543499  0.04969046615194394  1.0000
  C   C26       1.0  0.8004622681949312  0.2919503801177741  0.1473107824367479  1.0000
  C   C27       1.0  0.7760765444463377  0.17444137099251278  0.20818558674708987  1.0000
  H   H9        1.0  0.023054241829382427  0.21642627250840807  0.7666912589141762  1.0000
  H   H10       1.0  0.8122631937393611  0.1196809592840824  0.49574972576199156  1.0000
  H   H11       1.0  0.8127467766389774  0.704264659977265  0.4952303530308603  1.0000
  H   H12       1.0  0.9834329680890948  0.8927004153320841  0.7154216287439099  1.0000
  H   H13       1.0  0.9267217376193202  0.45260341275827287  0.6420833439742073  1.0000
  H   H14       1.0  0.8809941786875595  0.9659807067084517  0.042939343359803525  1.0000
  H   H15       1.0  0.9228636240261437  0.17373552630473002  0.9368224469261519  1.0000
  H   H16       1.0  0.872107341855158  0.38279408630520684  0.0027156033846071925  1.0000
  H   H17       1.0  0.7782118722805336  0.38336699654255857  0.17578182495643202  1.0000
  H   H18       1.0  0.7346674885315139  0.17795556096136345  0.28276698671622214  1.0000
  C   C28       1.0  0.9020761095635752  0.40171983845620574  0.22952407377232006  1.0000
  C   C29       1.0  0.8307514749917826  0.344527996406387  0.22938890410681773  1.0000
  C   C30       1.0  0.8309630695419178  0.34468714009504686  0.994144757278748  1.0000
  C   C31       1.0  0.9021934266932716  0.4019584093186404  0.9922634961810668  1.0000
  C   C32       1.0  0.9372772928319687  0.43040114377303107  0.11046934473354784  1.0000
  C   C33       1.0  0.7195184885872006  0.25527860615059583  0.11434039362043702  1.0000
  O   O2        1.0  0.7041547574535593  0.17640867714979885  0.20949167050111714  1.0000
  C   C34       1.0  0.6620156092937501  0.2830123728752265  0.008674920451516186  1.0000
  C   C35       1.0  0.6562613963691709  0.4064742903028114  0.9405607571753767  1.0000
  C   C36       1.0  0.6012769247410802  0.43178494062357237  0.8422348302434339  1.0000
  C   C37       1.0  0.550723013307016  0.3351893243157742  0.8107532387970746  1.0000
  C   C38       1.0  0.5556871922249479  0.21193724951811777  0.8797478060904123  1.0000
  C   C39       1.0  0.6106649077183192  0.18649957029801278  0.9781457992088121  1.0000
  O   O3        1.0  0.49664700715128335  0.36545997702877964  0.711182454916937  1.0000
  C   C40       1.0  0.44185439524982545  0.2768531512500003  0.6691750090427813  1.0000
  H   H19       1.0  0.036793801748771005  0.5091468658913647  0.4370933324568449  1.0000
  H   H20       1.0  0.802931341287264  0.3223677203161661  0.3205879310453709  1.0000
  H   H21       1.0  0.8041024209981072  0.3201684531860802  0.9038013002471705  1.0000
  H   H22       1.0  0.9922265139966414  0.47457757342455453  0.10975088078935769  1.0000
  H   H23       1.0  0.6937219560014399  0.48393170252243567  0.9641883660646808  1.0000
  H   H24       1.0  0.5977152425053295  0.5272950544008601  0.7905120810889325  1.0000
  H   H25       1.0  0.5173637973659788  0.13518330092311492  0.858175733512772  1.0000
  H   H26       1.0  0.6134966434558533  0.0908227240589694  0.029720376766329208  1.0000
  H   H27       1.0  0.40657563754848275  0.3262659533987493  0.5894079335386202  1.0000
  H   H28       1.0  0.4051634814612644  0.2454064886513827  0.7509636638387329  1.0000
  H   H29       1.0  0.46984368319816955  0.19097497728123106  0.631849365779089  1.0000
  Zn  Zn1       1.0  0.8198153706763261  0.4035426717267643  0.6069533308789168  1.0000
  Zn  Zn2       1.0  0.9844469608846038  0.4001351139117939  0.6148332806958607  1.0000
  C   C41       1.0  0.9021685996553988  0.39674092875595535  0.8480886517635116  1.0000
  C   C42       1.0  0.9020955300027342  0.4069384579366022  0.3736981735381053  1.0000
  C   C43       1.0  0.902174357765451  0.6389725354217175  0.6057489974753345  1.0000
  C   C44       1.0  0.9020897154349362  0.16470529252882926  0.6160378941749618  1.0000
  O   O4        1.0  0.9645788771216403  0.4073910594992083  0.42507471762433763  1.0000
  O   O5        1.0  0.9646368199485778  0.39370109005405307  0.8026924332855591  1.0000
  O   O6        1.0  0.9646406276853895  0.5893061937281203  0.6070014077161341  1.0000
  O   O7        1.0  0.9645750131939759  0.21178596624543292  0.6207656431311988  1.0000
  O   O8        1.0  0.8396872621862711  0.5918918205573687  0.6010209657477084  1.0000
  O   O9        1.0  0.8396834547265225  0.396288276789555  0.796711922272583  1.0000
  O   O10       1.0  0.8396255117009698  0.40997820050021433  0.4190926452040042  1.0000
  O   O11       1.0  0.8396216477834751  0.21437309799039062  0.6147836680775586  1.0000
