data_image0
_chemical_formula_structural       NC9NC5H8C6NCH9C7OH5Zn2C4O8
_chemical_formula_sum              "N3 C32 H22 O9 Zn2"
_cell_length_a       17.807436237873137
_cell_length_b       9.273386996610926
_cell_length_c       9.274081674992354
_cell_angle_alpha    85.97306496402048
_cell_angle_beta     89.07685020002327
_cell_angle_gamma    87.7895077601149

_space_group_name_H-M_alt    "P 1"
_space_group_IT_number       1

loop_
  _space_group_symop_operation_xyz
  'x, y, z'

loop_
  _atom_site_type_symbol
  _atom_site_label
  _atom_site_symmetry_multiplicity
  _atom_site_fract_x
  _atom_site_fract_y
  _atom_site_fract_z
  _atom_site_occupancy
  N   N1        1.0  0.7038866180359566  0.5274885425451097  0.39612679599072004  1.0000
  C   C1        1.0  0.6435494031218789  0.4882752723279018  0.3839525578148457  1.0000
  C   C2        1.0  0.5684965393929107  0.4394982823968834  0.3688091272939342  1.0000
  C   C3        1.0  0.5511924372648175  0.3590841700822198  0.25238991689693857  1.0000
  C   C4        1.0  0.4783209262809842  0.31160074409573624  0.23759510512724358  1.0000
  C   C5        1.0  0.4217071943149766  0.34411160026212956  0.3391841431338729  1.0000
  C   C6        1.0  0.34426258992725467  0.2937774686125805  0.32355198464607793  1.0000
  C   C7        1.0  0.2815035759656237  0.38488482044519845  0.352199382266679  1.0000
  C   C8        1.0  0.20849094313814315  0.3371759209290701  0.3374201090516131  1.0000
  C   C9        1.0  0.1446643149728331  0.43127751595969255  0.3664667167749591  1.0000
  N   N2        1.0  0.09336073204857008  0.5069286990686623  0.3898193932284988  1.0000
  C   C10       1.0  0.1976554270094871  0.19807275210648914  0.2939657517660923  1.0000
  C   C11       1.0  0.2595571833752167  0.10694992326778373  0.26530906647610575  1.0000
  C   C12       1.0  0.3324534575379229  0.1542183741525096  0.2798642278470067  1.0000
  C   C13       1.0  0.43969896679701936  0.42507725334891994  0.45584581722690853  1.0000
  C   C14       1.0  0.512625027980154  0.47234754703665316  0.4704682024780611  1.0000
  H   H1        1.0  0.5939659024220965  0.333375654404082  0.17283443230587325  1.0000
  H   H2        1.0  0.4660136819527129  0.2511136833916816  0.1456544440484817  1.0000
  H   H3        1.0  0.28931334089237926  0.49347698068554857  0.38408044977114253  1.0000
  H   H4        1.0  0.14143228243897565  0.16014575837313158  0.28226569837721405  1.0000
  H   H5        1.0  0.2510481663592642  0.9992569301683812  0.2320942222433895  1.0000
  H   H6        1.0  0.3795567242983613  0.08097177222894669  0.2588367879230416  1.0000
  H   H7        1.0  0.3976412697627899  0.4501998478376861  0.5368390169877845  1.0000
  H   H8        1.0  0.5254567529961783  0.5341803881635905  0.5612506254225732  1.0000
  C   C15       1.0  0.9009361144437088  0.09343890828947485  0.39364395058088586  1.0000
  C   C16       1.0  0.9145286680299194  0.17503255251627614  0.2630999528460407  1.0000
  C   C17       1.0  0.9210452395173123  0.1090211676414712  0.1326624913273715  1.0000
  C   C18       1.0  0.9140719787955106  0.9590587666160069  0.12943507936834675  1.0000
  C   C19       1.0  0.9018051851620505  0.8764281779991256  0.25950489109629693  1.0000
  C   C20       1.0  0.8963184196883807  0.9409669816256572  0.39231468109757495  1.0000
  N   N3        1.0  0.9199614397189322  0.8880200192541292  0.9963169420337126  1.0000
  C   C21       1.0  0.9329092120467773  0.9639762970276423  0.8554529034356405  1.0000
  H   H9        1.0  0.9155692869272201  0.3569254757873159  0.6300439344836601  1.0000
  H   H10       1.0  0.9183671860535851  0.29146001591952797  0.2612694530055411  1.0000
  H   H11       1.0  0.9308208070213494  0.1762324751304556  0.03459842594437102  1.0000
  H   H12       1.0  0.8982648788847025  0.7601936802891966  0.25728841863778795  1.0000
  H   H13       1.0  0.9229199232549982  0.8113374379736439  0.7429438857266703  1.0000
  H   H14       1.0  0.9146391828107394  0.7759605564811387  0.9993920084581775  1.0000
  H   H15       1.0  0.8863965304270509  0.0447814433578071  0.8311629997385448  1.0000
  H   H16       1.0  0.987303759267204  0.018658709361693424  0.8548045949336464  1.0000
  H   H17       1.0  0.9350635668745005  0.8856635714217652  0.7700884187116044  1.0000
  C   C22       1.0  0.8999161901841646  0.5133531064729  0.9696949664998838  1.0000
  C   C23       1.0  0.9606087390033986  0.5729351731008008  0.03713410858594958  1.0000
  C   C24       1.0  0.016987438410739138  0.6433878607548386  0.9556164455032167  1.0000
  C   C25       1.0  0.012656212923167098  0.6546506370813182  0.8045456007995331  1.0000
  C   C26       1.0  0.9535429554210217  0.5941626239613206  0.7358794186573725  1.0000
  C   C27       1.0  0.8973383640191207  0.5210527880175964  0.8162635934177276  1.0000
  C   C28       1.0  0.07941665558490385  0.7057501132069408  0.029941554060486594  1.0000
  O   O1        1.0  0.1307698488657178  0.7702530082297938  0.9596588023263554  1.0000
  H   H18       1.0  0.7223657705236853  0.42901082604004004  0.08409440634602783  1.0000
  H   H19       1.0  0.055377026533898865  0.7090558287596755  0.7391519983483055  1.0000
  H   H20       1.0  0.9528052652868143  0.6016554187177334  0.6188052538204231  1.0000
  H   H21       1.0  0.779018607242163  0.45827578339405556  0.5432097580293571  1.0000
  H   H22       1.0  0.08165754693007532  0.6964603366608724  0.14682765155988253  1.0000
  Zn  Zn1       1.0  0.8162804286382652  0.5215516410975622  0.39431495812736317  1.0000
  Zn  Zn2       1.0  0.9809669312556821  0.5128539451474776  0.39164309959659493  1.0000
  C   C29       1.0  0.8978552693749026  0.5138485922706731  0.6562530741525269  1.0000
  C   C30       1.0  0.8993938785392628  0.5205587210842011  0.129705093015007  1.0000
  C   C31       1.0  0.8972048972695519  0.7807141101451938  0.3868220170941459  1.0000
  C   C32       1.0  0.9000442036609411  0.2536914730991968  0.3991362305529309  1.0000
  O   O2        1.0  0.9617162897535709  0.5196699652274781  0.18239200667049518  1.0000
  O   O3        1.0  0.9605261102558239  0.5081349057301054  0.6015378684676329  1.0000
  O   O4        1.0  0.9600000794933056  0.7236322445161472  0.38397039493894747  1.0000
  O   O5        1.0  0.962242264592595  0.3041726387495032  0.3999593730178102  1.0000
  O   O6        1.0  0.8350050391019463  0.7302329504651355  0.3859986856103379  1.0000
  O   O7        1.0  0.8355310606487303  0.5147373447591757  0.6035660795636705  1.0000
  O   O8        1.0  0.8367212457475244  0.526272338204332  0.18441848483378753  1.0000
  O   O9        1.0  0.8372472203106365  0.31077500238788924  0.4019859592666635  1.0000
