data_image0
_chemical_formula_structural       NC9NC5H8C6H6C7F3H5Zn2C4O8
_chemical_formula_sum              "N2 C31 H19 F3 Zn2 O8"
_cell_length_a       17.807436237873137
_cell_length_b       10.681118228259551
_cell_length_c       9.272291681409872
_cell_angle_alpha    86.06048178151603
_cell_angle_beta     89.81650948764641
_cell_angle_gamma    88.3900060031841

_space_group_name_H-M_alt    "P 1"
_space_group_IT_number       1

loop_
  _space_group_symop_operation_xyz
  'x, y, z'

loop_
  _atom_site_type_symbol
  _atom_site_label
  _atom_site_symmetry_multiplicity
  _atom_site_fract_x
  _atom_site_fract_y
  _atom_site_fract_z
  _atom_site_occupancy
  N   N1        1.0  0.7014295109890002  0.3263166095009615  0.3983539985730231  1.0000
  C   C1        1.0  0.6407962891104572  0.29229282583313165  0.3861169650049199  1.0000
  C   C2        1.0  0.5653752251873485  0.24997098570501516  0.37089542392920305  1.0000
  C   C3        1.0  0.5468485364470735  0.1802418336580769  0.2543378069647866  1.0000
  C   C4        1.0  0.4736182332891997  0.1390423920281798  0.23946695054835643  1.0000
  C   C5        1.0  0.4178657659234258  0.16720778802409209  0.3411176881719955  1.0000
  C   C6        1.0  0.3400411713993903  0.12353488089305165  0.3254049249943234  1.0000
  C   C7        1.0  0.2779723309393578  0.20258491026081724  0.35419825834267216  1.0000
  C   C8        1.0  0.2045997796804538  0.1611897941076188  0.3393425884217911  1.0000
  C   C9        1.0  0.1414823574702475  0.24283805744829998  0.3685398709310139  1.0000
  N   N2        1.0  0.090748935295744  0.30847762142198953  0.39201367963322475  1.0000
  C   C10       1.0  0.19271241899764696  0.040495672956170285  0.2956654457048111  1.0000
  C   C11       1.0  0.2539238548589787  0.9614322169155399  0.26686279943032787  1.0000
  C   C12       1.0  0.3271761345869276  0.002445214469309229  0.28149364297820334  1.0000
  C   C13       1.0  0.4370847678543888  0.23741545644990847  0.45791865956231326  1.0000
  C   C14       1.0  0.510367297142466  0.27843002162660824  0.4726167369619785  1.0000
  H   H1        1.0  0.5889461771133888  0.15796919965608525  0.1747336142710958  1.0000
  H   H2        1.0  0.4603619465910169  0.08659455344797884  0.14742172042023838  1.0000
  H   H3        1.0  0.2865894835279984  0.2968068381909965  0.3862530302471163  1.0000
  H   H4        1.0  0.1362034808784957  0.007587904713401095  0.2839046646261003  1.0000
  H   H5        1.0  0.2446033811086078  0.8679912178171462  0.23347552081469636  1.0000
  H   H6        1.0  0.3737380180911522  0.9388912678130481  0.2603490877434367  1.0000
  H   H7        1.0  0.39570937397799755  0.25917894944274966  0.5389597997393096  1.0000
  H   H8        1.0  0.5241476150308421  0.3320462801699342  0.563505718055838  1.0000
  C   C15       1.0  0.8960928445970469  0.9496470071479904  0.3951900067434768  1.0000
  C   C16       1.0  0.9294985752095004  0.8744724080508488  0.5091395769256466  1.0000
  C   C17       1.0  0.9294985634780795  0.7435901699121209  0.5091395112035633  1.0000
  C   C18       1.0  0.8960928322171241  0.6851374121452823  0.39519006926718814  1.0000
  C   C19       1.0  0.8627147543680882  0.760300062792041  0.28133466328909607  1.0000
  C   C20       1.0  0.8627147660342547  0.8911923208006167  0.28133472161167306  1.0000
  H   H9        1.0  0.8623104082225109  0.2568119229684629  0.27995673824366185  1.0000
  H   H10       1.0  0.9556836072647769  0.9167296419409218  0.5984585825119373  1.0000
  H   H11       1.0  0.9556835148083599  0.6882256173882468  0.5984585585513549  1.0000
  H   H12       1.0  0.8365263080870067  0.7180884394230255  0.1920039953227286  1.0000
  H   H13       1.0  0.8365262883518871  0.9465128792721895  0.19200398392140716  1.0000
  H   H14       1.0  0.8623106833473654  0.394882556511327  0.27995634377414547  1.0000
  C   C21       1.0  0.894511631298867  0.314250073168697  0.9718550785411049  1.0000
  C   C22       1.0  0.9450344175351941  0.23312052581465623  0.05125165751277705  1.0000
  C   C23       1.0  0.999639264752144  0.16302546157935513  0.9815653639139458  1.0000
  C   C24       1.0  0.005906909835233787  0.1736562410337792  0.8305709531044507  1.0000
  C   C25       1.0  0.9538872894372449  0.25070556574863145  0.7500285530577626  1.0000
  C   C26       1.0  0.897674024459582  0.3205343495756223  0.8185249584777834  1.0000
  C   C27       1.0  0.06358013165656429  0.09517037659516081  0.7550463773488194  1.0000
  F   F1        1.0  0.12648070375018777  0.07114315207859764  0.8409411504264841  1.0000
  F   F2        1.0  0.08606475501193445  0.15681042967008962  0.6266077809855615  1.0000
  F   F3        1.0  0.03262965599314894  0.9824708615708192  0.7255913555930289  1.0000
  H   H15       1.0  0.7887242673719622  0.5721559744559779  0.053668538843526736  1.0000
  H   H16       1.0  0.9433005928201109  0.22572333910677564  0.1683265806298606  1.0000
  H   H17       1.0  0.03748219408035669  0.10116968862149167  0.04616240852360454  1.0000
  H   H18       1.0  0.9560290813401121  0.2539478159017903  0.6330058799777549  1.0000
  H   H19       1.0  0.7274312926081663  0.4483021032357615  0.7079551387730154  1.0000
  Zn  Zn1       1.0  0.8137787170293158  0.3211653832279555  0.3965326567691989  1.0000
  Zn  Zn2       1.0  0.9783997553250914  0.31361872752487296  0.39384687290837017  1.0000
  C   C28       1.0  0.8970745972006732  0.31435761229090486  0.6584862794280804  1.0000
  C   C29       1.0  0.895105673338799  0.3204279972063684  0.13189336241387428  1.0000
  C   C30       1.0  0.8960675034903859  0.546071583184731  0.38944546942888936  1.0000
  C   C31       1.0  0.8961127111625482  0.08871252487491876  0.40093425018709605  1.0000
  O   O1        1.0  0.9577778653776963  0.3196319850254869  0.18458443147078896  1.0000
  O   O2        1.0  0.9593459626067463  0.30942493959471506  0.6037563475812673  1.0000
  O   O3        1.0  0.9585318851345179  0.4965369512474304  0.3865040037387184  1.0000
  O   O4        1.0  0.9585918862721878  0.13251998410412003  0.40183666813998586  1.0000
  O   O5        1.0  0.8335865299051098  0.5022641292253185  0.3885428624465266  1.0000
  O   O6        1.0  0.8344006070867672  0.315153621586836  0.6057951294239883  1.0000
  O   O7        1.0  0.8328325034339213  0.3253606105109972  0.1866214800946182  1.0000
  O   O8        1.0  0.8336465247290407  0.1382486014348918  0.40387382484611134  1.0000
