data_image0
_chemical_formula_structural       NC14NH8C12H9C12H10Zn2C4O8
_chemical_formula_sum              "N2 C42 H27 Zn2 O8"
_cell_length_a       17.45760127107867
_cell_length_b       14.99405791820965
_cell_length_c       14.388129018870242
_cell_angle_alpha    83.27612054347796
_cell_angle_beta     87.6665703364548
_cell_angle_gamma    89.75310963527127

_space_group_name_H-M_alt    "P 1"
_space_group_IT_number       1

loop_
  _space_group_symop_operation_xyz
  'x, y, z'

loop_
  _atom_site_type_symbol
  _atom_site_label
  _atom_site_symmetry_multiplicity
  _atom_site_fract_x
  _atom_site_fract_y
  _atom_site_fract_z
  _atom_site_occupancy
  N   N1        1.0  0.7084013797581046  0.01791808266357519  0.921825230059873  1.0000
  C   C1        1.0  0.6476595617799372  0.9931996255962268  0.9476846051333836  1.0000
  C   C2        1.0  0.5720941579221409  0.9624506047162433  0.9798454349024637  1.0000
  C   C3        1.0  0.5127540459704663  0.9651804698859249  0.916857106033723  1.0000
  C   C4        1.0  0.43861017984574546  0.9355359571921277  0.9477483197641272  1.0000
  C   C5        1.0  0.42511000821280237  0.9031640927718693  0.04279489660379299  1.0000
  C   C6        1.0  0.48443380053838636  0.9004875374543496  0.10542000477988234  1.0000
  C   C7        1.0  0.5577879774938567  0.9300418066562577  0.07414291868330058  1.0000
  C   C8        1.0  0.3756319619123403  0.938349576305449  0.8810950727645244  1.0000
  C   C9        1.0  0.3014235843298175  0.965569690313266  0.907635712009584  1.0000
  C   C10       1.0  0.24208368594383523  0.9681574156542246  0.8446581318787332  1.0000
  C   C11       1.0  0.2564545751395645  0.943525657193516  0.7547248368137527  1.0000
  C   C12       1.0  0.3298729137061785  0.9164290507407864  0.7277821442734747  1.0000
  C   C13       1.0  0.3891966327219945  0.913818520527466  0.7904022006599407  1.0000
  C   C14       1.0  0.1664513131703673  0.9963815296622238  0.8723069363985415  1.0000
  N   N2        1.0  0.105655827973489  0.019069883865352685  0.894539282436809  1.0000
  H   H1        1.0  0.52415917595976  0.9914764196643402  0.8442123889856377  1.0000
  H   H2        1.0  0.36895855548552736  0.8788128436182926  0.06842838320884881  1.0000
  H   H3        1.0  0.4735456908029757  0.8752118731921249  0.17833212729782041  1.0000
  H   H4        1.0  0.6032835123484149  0.9276272689170151  0.12339448783161655  1.0000
  H   H5        1.0  0.28996555696005216  0.9858828060950513  0.9767143463135496  1.0000
  H   H6        1.0  0.2109597298854557  0.9452672800917055  0.7055247400640954  1.0000
  H   H7        1.0  0.3408115647578657  0.8971652746693536  0.6582776948043081  1.0000
  H   H8        1.0  0.44540101248648223  0.8914806844203579  0.7683407777670247  1.0000
  C   C15       1.0  0.9070640760180312  0.7565262667815574  0.9081701803855806  1.0000
  C   C16       1.0  0.9521913550723389  0.7017218946321749  0.9703194698214767  1.0000
  C   C17       1.0  0.9521535023486289  0.6084966545575219  0.9703606988106666  1.0000
  C   C18       1.0  0.9070530519467672  0.5680233939712939  0.9082206295872011  1.0000
  C   C19       1.0  0.8619690726050476  0.622927001302744  0.846071027435663  1.0000
  C   C20       1.0  0.8619571164482873  0.7161502292588873  0.8460826385087934  1.0000
  C   C21       1.0  0.9070352077877573  0.4689485472452821  0.9082295192695612  1.0000
  C   C22       1.0  0.9071236021262371  0.4307699182542113  0.8235279615633003  1.0000
  C   C23       1.0  0.907138724989814  0.33754560202429634  0.8235261441666928  1.0000
  C   C24       1.0  0.9070005742459716  0.2804545398358536  0.9082018544478634  1.0000
  C   C25       1.0  0.9068800833746643  0.3185297516463381  0.9929406181489795  1.0000
  C   C26       1.0  0.9069296803675877  0.4117506238611766  0.9929382060231319  1.0000
  H   H9        1.0  0.9877474658741808  0.7308548173541629  0.018847051167579686  1.0000
  H   H10       1.0  0.9882632622776694  0.568135585506169  0.018230636899828064  1.0000
  H   H11       1.0  0.8258475277656139  0.5936890547219338  0.7982102503588939  1.0000
  H   H12       1.0  0.8264073941153529  0.756518438468364  0.7975401941342872  1.0000
  H   H13       1.0  0.9082221511202021  0.4730259277541656  0.7570854169594678  1.0000
  H   H14       1.0  0.9074550602946908  0.3102737419793641  0.7570778526453483  1.0000
  H   H15       1.0  0.9070308275065707  0.07728900030748136  0.822518979532727  1.0000
  H   H16       1.0  0.9065512464897756  0.2763028141752213  0.05938347169300796  1.0000
  H   H17       1.0  0.9058445404283813  0.4390928637227995  0.05937742648687996  1.0000
  C   C27       1.0  0.9035004035866918  0.02901282319564946  0.6343295091515739  1.0000
  C   C28       1.0  0.8750953357638387  0.1135591837130452  0.651823778127532  1.0000
  C   C29       1.0  0.8540597904523319  0.17640402047225104  0.577885931090507  1.0000
  C   C30       1.0  0.861038123317739  0.1558264854501179  0.48578883275810725  1.0000
  C   C31       1.0  0.8892294428119992  0.07170620879807671  0.46648734566538336  1.0000
  C   C32       1.0  0.8965787054629862  0.04972615694044415  0.36849588089278207  1.0000
  C   C33       1.0  0.9240144328512268  0.11408053028008808  0.29600839000786205  1.0000
  C   C34       1.0  0.9309639859360612  0.09340268852229183  0.2038003064926177  1.0000
  C   C35       1.0  0.9105642000397244  0.007968002347451769  0.1820425589024406  1.0000
  C   C36       1.0  0.8830727393495353  0.9435812257344179  0.2544429735636351  1.0000
  C   C37       1.0  0.8761825962075295  0.9642378518020197  0.3466575872789279  1.0000
  C   C38       1.0  0.9103712141326595  0.008661433213789758  0.5413767295380125  1.0000
  H   H18       1.0  0.9696585283122707  0.8323709315796891  0.7476299673663342  1.0000
  H   H19       1.0  0.8691077936660738  0.1311763910804573  0.7226263678377496  1.0000
  H   H20       1.0  0.8320497764539586  0.2412626365324846  0.5920460529411311  1.0000
  H   H21       1.0  0.8434236244320631  0.20526481692136578  0.4297493037648968  1.0000
  H   H22       1.0  0.9410937987997182  0.18014839234758961  0.3107921595117309  1.0000
  H   H23       1.0  0.9525200362456642  0.1443770548914327  0.1496281814774203  1.0000
  H   H24       1.0  0.9505279319707389  0.03658915860719957  0.9459427400818852  1.0000
  H   H25       1.0  0.8666630809502582  0.8772095310765086  0.23986580157306348  1.0000
  H   H26       1.0  0.8538972304548209  0.9136215289003978  0.40074441351910517  1.0000
  H   H27       1.0  0.9331705696558706  0.9441756537205517  0.5270021134391878  1.0000
  Zn  Zn1       1.0  0.8230404994639353  0.018247874563941162  0.9139564699319577  1.0000
  Zn  Zn2       1.0  0.9910167842232807  0.01873250617548238  0.9024156462273105  1.0000
  C   C39       1.0  0.9092277311776056  0.008392039031450027  0.07851294491250171  1.0000
  C   C40       1.0  0.9048313878494296  0.02858946907358551  0.7378591368215428  1.0000
  C   C41       1.0  0.9069606863203467  0.18156372774109508  0.904479913590658  1.0000
  C   C42       1.0  0.9070983761593008  0.8554167064948257  0.9118922217360972  1.0000
  O   O1        1.0  0.9690242034489704  0.02862741085778708  0.7682249429366794  1.0000
  O   O2        1.0  0.972525025623106  0.008721258756743571  0.03938765214690798  1.0000
  O   O3        1.0  0.970693511407987  0.1485595477068413  0.8988548071391063  1.0000
  O   O4        1.0  0.970855659442588  0.8887891308105809  0.9087577219593703  1.0000
  O   O5        1.0  0.8432015669225023  0.1481912497646214  0.9076143981333091  1.0000
  O   O6        1.0  0.8450330803628835  0.008354034519417073  0.04814719348181162  1.0000
  O   O7        1.0  0.8415322437831485  0.028260198614538327  0.7769833630428182  1.0000
  O   O8        1.0  0.8433637006761424  0.8884219095002196  0.9175162119840319  1.0000
