data_image0
_chemical_formula_structural       NC10NC5H10C12NCOCH13C13OH12Zn2C4O8
_chemical_formula_sum              "N3 C46 H35 O10 Zn2"
_cell_length_a       19.4436361288709
_cell_length_b       10.299155265289647
_cell_length_c       10.299153481560891
_cell_angle_alpha    85.56585442832863
_cell_angle_beta     89.72153825952512
_cell_angle_gamma    89.39615277754326

_space_group_name_H-M_alt    "P 1"
_space_group_IT_number       1

loop_
  _space_group_symop_operation_xyz
  'x, y, z'

loop_
  _atom_site_type_symbol
  _atom_site_label
  _atom_site_symmetry_multiplicity
  _atom_site_fract_x
  _atom_site_fract_y
  _atom_site_fract_z
  _atom_site_occupancy
  N   N1        1.0  0.6471366440618104  0.4088785712231973  0.5617037632949055  1.0000
  C   C1        1.0  0.588301766875839  0.4187840302862607  0.5760852473366314  1.0000
  C   C2        1.0  0.514973814136195  0.43113747611691916  0.5940744587215523  1.0000
  C   C3        1.0  0.47277631356844313  0.3991195925032987  0.4994082760255909  1.0000
  C   C4        1.0  0.3968706340142302  0.40955969875845405  0.504733628865387  1.0000
  C   C5        1.0  0.3571591875032308  0.38483101653965823  0.6118137469256525  1.0000
  C   C6        1.0  0.2810350833890076  0.3887453777168648  0.5988531922675477  1.0000
  C   C7        1.0  0.24048019376885746  0.44642937751640444  0.6926094807692906  1.0000
  C   C8        1.0  0.1688138098218926  0.45006532728016874  0.6820645034641304  1.0000
  C   C9        1.0  0.1367077021003252  0.39562129291875947  0.5780498726466639  1.0000
  C   C10       1.0  0.0629120279364096  0.3993184599501878  0.5673495954461755  1.0000
  N   N2        1.0  0.0035853111674676026  0.4022907882687503  0.5587472819791695  1.0000
  C   C11       1.0  0.17653792754556713  0.3372302257678865  0.4846770112107843  1.0000
  C   C12       1.0  0.2482206983564933  0.3335399985791039  0.4949702229357056  1.0000
  C   C13       1.0  0.385328080016922  0.3443930093899914  0.7429204905210831  1.0000
  C   C14       1.0  0.443992785117051  0.3875273285512739  0.7901519979504114  1.0000
  C   C15       1.0  0.4881643074823336  0.4853781160483064  0.7157577664769662  1.0000
  H   H1        1.0  0.49486222703512667  0.369982633549103  0.40910827927871996  1.0000
  H   H2        1.0  0.372147870902182  0.43203773148227237  0.4115683372095857  1.0000
  H   H3        1.0  0.2643588250172529  0.4897393091368421  0.7734471178966847  1.0000
  H   H4        1.0  0.1384750813043792  0.49539757830530007  0.7549740553633723  1.0000
  H   H5        1.0  0.1521874441969827  0.2941160316310821  0.4041738084235922  1.0000
  H   H6        1.0  0.27789441986262525  0.2859643302874728  0.4227576080367943  1.0000
  H   H7        1.0  0.35438942222368414  0.28018383539566655  0.8071851434225913  1.0000
  H   H8        1.0  0.45917044273220353  0.3534768168697442  0.8880965032782562  1.0000
  H   H9        1.0  0.4580312843140544  0.5760940770778673  0.6904814644765779  1.0000
  H   H10       1.0  0.5314574700612565  0.5109783614123513  0.778836586380001  1.0000
  C   C16       1.0  0.8254411045990053  0.024185760918055577  0.5603435884254608  1.0000
  C   C17       1.0  0.8136713034539417  0.03406391772659934  0.4255154264348585  1.0000
  C   C18       1.0  0.8076371359837389  0.9219358651308802  0.3570375362732698  1.0000
  C   C19       1.0  0.8135068020696428  0.7988070984034971  0.42520900465817224  1.0000
  C   C20       1.0  0.8252874548634966  0.7869735310876755  0.5601186675698151  1.0000
  C   C21       1.0  0.8311851399584462  0.9001811404460877  0.6268553737930074  1.0000
  C   C22       1.0  0.795186956605009  0.9333594158907551  0.21440561425883772  1.0000
  C   C23       1.0  0.8300552633874758  0.02680208453959399  0.13269845538766756  1.0000
  C   C24       1.0  0.8183444836440747  0.0374214165315643  0.998472265476335  1.0000
  C   C25       1.0  0.7719588779372863  0.9539200691727653  0.9431061868280364  1.0000
  C   C26       1.0  0.7362504281090979  0.8623091934217074  0.024752154206974627  1.0000
  C   C27       1.0  0.7479862524930727  0.8514333682206109  0.15894080076418793  1.0000
  N   N3        1.0  0.7580342196940023  0.9643781767440454  0.8056600166767377  1.0000
  C   C28       1.0  0.8082393966791966  0.00035808005326343586  0.7070254465076564  1.0000
  O   O1        1.0  0.8713408156757553  0.0017343228585042837  0.7343606135708165  1.0000
  C   C29       1.0  0.786276075161833  0.027170212057862967  0.5686671131343473  1.0000
  H   H11       1.0  0.8299896216228116  0.34786198994835993  0.6121983953472436  1.0000
  H   H12       1.0  0.8082216224144523  0.12919457173806892  0.37375076051766487  1.0000
  H   H13       1.0  0.8097988212211775  0.7120611447008084  0.37261107814594324  1.0000
  H   H14       1.0  0.8402657488716704  0.8918470036452176  0.7308506880607728  1.0000
  H   H15       1.0  0.8479346466049063  0.5573473251386057  0.814619364629111  1.0000
  H   H16       1.0  0.8667883335508593  0.09118329337672317  0.17248628259301713  1.0000
  H   H17       1.0  0.8447210705385028  0.1123721310619579  0.9386727975524887  1.0000
  H   H18       1.0  0.6994512179478709  0.7986330035225562  0.984097835820342  1.0000
  H   H19       1.0  0.7193997345776855  0.7801400888885113  0.2195915492579359  1.0000
  H   H20       1.0  0.7095861864590708  0.9363959066143566  0.7749882711392101  1.0000
  H   H21       1.0  0.736627077362293  0.08153217527923862  0.5646252492903607  1.0000
  H   H22       1.0  0.779904595550911  0.933665099357798  0.5234956912467323  1.0000
  H   H23       1.0  0.8254219392337588  0.0865217896645052  0.512946898701069  1.0000
  C   C30       1.0  0.8253052278897803  0.4054332772876793  0.17885911889153028  1.0000
  C   C31       1.0  0.7542008698887186  0.3823654093134474  0.18012758006005788  1.0000
  C   C32       1.0  0.7182741859682096  0.37082998877448814  0.06360207622692404  1.0000
  C   C33       1.0  0.7543630783339096  0.38267973351026524  0.944818172983275  1.0000
  C   C34       1.0  0.8254233230347566  0.4057259809314336  0.9416031369738537  1.0000
  C   C35       1.0  0.8604794739241226  0.4169645778895872  0.059160565093648636  1.0000
  C   C36       1.0  0.6430993414006932  0.3464546558316961  0.06591622139574714  1.0000
  C   C37       1.0  0.5995865940250743  0.41250036457520817  0.973590148698919  1.0000
  C   C38       1.0  0.528842618707907  0.3896056836320213  0.9758458378050968  1.0000
  C   C39       1.0  0.5004208459243374  0.29941211450096716  0.069568478883276  1.0000
  C   C40       1.0  0.5434719671227501  0.23447129713431258  0.16281658557204692  1.0000
  C   C41       1.0  0.6142192112433739  0.2573362681150748  0.16073902780569613  1.0000
  C   C42       1.0  0.4242060370407475  0.27753231680657553  0.07412392432223758  1.0000
  O   O2        1.0  0.3932961453387975  0.365698021710194  0.15386149835356822  1.0000
  H   H24       1.0  0.9594305892521515  0.44980633670656456  0.3836936853619446  1.0000
  H   H25       1.0  0.7264732959251332  0.37511359044917086  0.27183543976735924  1.0000
  H   H26       1.0  0.7270766633594975  0.3721309581156951  0.8548686493134112  1.0000
  H   H27       1.0  0.9152899941040678  0.43474449090358047  0.05739653435057379  1.0000
  H   H28       1.0  0.8527464758933985  0.4146764689920173  0.6128845192310268  1.0000
  H   H29       1.0  0.6201320004071024  0.4833820483197996  0.9008409447144782  1.0000
  H   H30       1.0  0.4961992790290671  0.44249310392944285  0.904620248892269  1.0000
  H   H31       1.0  0.5222919031410943  0.16580789999073375  0.23701027966894236  1.0000
  H   H32       1.0  0.6464492313929834  0.20425597180453736  0.23249131777920984  1.0000
  H   H33       1.0  0.4133104231109131  0.17593885818762225  0.11306336645235171  1.0000
  H   H34       1.0  0.40243311159380857  0.2913009710078454  0.974169687596399  1.0000
  H   H35       1.0  0.3433017146503361  0.34726699340215705  0.15357851647446985  1.0000
  Zn  Zn1       1.0  0.7500000328028131  0.4069740106072648  0.5608580998746453  1.0000
  Zn  Zn2       1.0  0.9007219177324101  0.40418474446762775  0.5596036297940246  1.0000
  C   C43       1.0  0.8254004953910262  0.4004965971803805  0.7974297362959539  1.0000
  C   C44       1.0  0.8253231007120804  0.41066376623297607  0.3230321066582513  1.0000
  C   C45       1.0  0.825312137489574  0.6427884575341334  0.5549860108985996  1.0000
  C   C46       1.0  0.825411407507774  0.1683703464324804  0.5654759021829472  1.0000
  O   O3        1.0  0.8825272699731163  0.4113549879542223  0.3709418152020525  1.0000
  O   O4        1.0  0.88259074946405  0.39768740705548034  0.748567540427237  1.0000
  O   O5        1.0  0.8825186284915547  0.5933411632773874  0.552792522858789  1.0000
  O   O6        1.0  0.8825993394974956  0.21570124193768603  0.5667167358203665  1.0000
  O   O7        1.0  0.7681225596037443  0.5954575140904574  0.5537449942695607  1.0000
  O   O8        1.0  0.7681946802480143  0.39980531826854354  0.7495199421319246  1.0000
  O   O9        1.0  0.768131200570221  0.4134728533077263  0.37189265550631667  1.0000
  O   O10       1.0  0.7682032701087329  0.21781909803906999  0.5676676734960221  1.0000
