data_image0
_chemical_formula_structural       NC10NC5H10C7OC3NC3H11C7OC3OC4H12Zn2C4O8
_chemical_formula_sum              "N3 C46 H33 O11 Zn2"
_cell_length_a       19.4436361288709
_cell_length_b       10.298746005989749
_cell_length_c       10.299374482448636
_cell_angle_alpha    85.55101224981433
_cell_angle_beta     89.68637327173955
_cell_angle_gamma    89.42734808848357

_space_group_name_H-M_alt    "P 1"
_space_group_IT_number       1

loop_
  _space_group_symop_operation_xyz
  'x, y, z'

loop_
  _atom_site_type_symbol
  _atom_site_label
  _atom_site_symmetry_multiplicity
  _atom_site_fract_x
  _atom_site_fract_y
  _atom_site_fract_z
  _atom_site_occupancy
  N   N1        1.0  0.6480048829877969  0.4097654381407255  0.5621608870071966  1.0000
  C   C1        1.0  0.589168222976199  0.4196621890000876  0.5765462908686538  1.0000
  C   C2        1.0  0.5158380295661319  0.4320047418488631  0.5945403923419186  1.0000
  C   C3        1.0  0.4736618061253916  0.40004440070659847  0.49986015089028474  1.0000
  C   C4        1.0  0.397757413618976  0.41048132741654025  0.5051893517566588  1.0000
  C   C5        1.0  0.3580043762026194  0.38568715167383916  0.6122638048249365  1.0000
  C   C6        1.0  0.2818855709893474  0.38960944605527104  0.5993042618650466  1.0000
  C   C7        1.0  0.24131707703765493  0.44723662918724916  0.6930836656420738  1.0000
  C   C8        1.0  0.16965513410474975  0.4508790365714024  0.6825396711267859  1.0000
  C   C9        1.0  0.1375668655723093  0.39649809898996013  0.5785027759534256  1.0000
  C   C10       1.0  0.063775700032105  0.400201818796613  0.5678034987307297  1.0000
  N   N2        1.0  0.004452607912419998  0.40317941511236266  0.5592019891976698  1.0000
  C   C11       1.0  0.1774103685788124  0.3381636098775478  0.4851065600750233  1.0000
  C   C12       1.0  0.2490887638397469  0.3344670783084229  0.49539876254654747  1.0000
  C   C13       1.0  0.3861194241307846  0.3451688880008507  0.7433600166406709  1.0000
  C   C14       1.0  0.44478132276330673  0.3882746782881503  0.7906081496669823  1.0000
  C   C15       1.0  0.4890049357873429  0.4861715040710155  0.7162464016808157  1.0000
  H   H1        1.0  0.49576841912766206  0.3709623395926197  0.40954724072321186  1.0000
  H   H2        1.0  0.3730711135968632  0.4330163493271444  0.4120293296518081  1.0000
  H   H3        1.0  0.2651821308731045  0.4904975301599073  0.7739389590289392  1.0000
  H   H4        1.0  0.1393059625597763  0.49616710728483376  0.7554673664606686  1.0000
  H   H5        1.0  0.15307341123325463  0.2950982436533747  0.40458577993435063  1.0000
  H   H6        1.0  0.2787720589022559  0.28693515021161176  0.4231672303964604  1.0000
  H   H7        1.0  0.3551416104876849  0.2809200794482183  0.8076037992408559  1.0000
  H   H8        1.0  0.45991765089827275  0.35416418468619126  0.888543427902477  1.0000
  H   H9        1.0  0.4589061354330315  0.5769034893215659  0.6910014738516741  1.0000
  H   H10       1.0  0.5322851473501924  0.5117334355873633  0.779336098924895  1.0000
  C   C16       1.0  0.8261991704291658  0.025070899435394537  0.5606645375878756  1.0000
  C   C17       1.0  0.8583940952855246  0.033012203670715244  0.4378896439877901  1.0000
  C   C18       1.0  0.8739502753267275  0.9199178699518508  0.37512570249986776  1.0000
  C   C19       1.0  0.858394619176912  0.7977756055561246  0.4378405011841559  1.0000
  C   C20       1.0  0.8262648849685867  0.7878638663904879  0.5607095479615716  1.0000
  C   C21       1.0  0.8102055029764738  0.9020767616680128  0.6211888213831609  1.0000
  C   C22       1.0  0.9085323244516723  0.9281013776827592  0.24601955668188524  1.0000
  O   O1        1.0  0.9505309646703385  0.8393535723496547  0.22045797787783505  1.0000
  C   C23       1.0  0.8954710227502943  0.036904871961726204  0.14591951602114683  1.0000
  C   C24       1.0  0.8303465611987013  0.0975032148667796  0.13435232808980002  1.0000
  C   C25       1.0  0.8183103633512957  0.19942008843676942  0.03854279512594561  1.0000
  N   N3        1.0  0.7520847499168487  0.2608807508882954  0.027888148880903296  1.0000
  C   C26       1.0  0.8714413923359147  0.24034572353348943  0.952965250490025  1.0000
  C   C27       1.0  0.9359383515990021  0.1795946643571909  0.9626815248729407  1.0000
  C   C28       1.0  0.9479211017004542  0.07810332678125965  0.05818728524121641  1.0000
  H   H11       1.0  0.7663202677261804  0.21734308865685817  0.7935035492217347  1.0000
  H   H12       1.0  0.8720793909292944  0.1272874377843507  0.39155298108295344  1.0000
  H   H13       1.0  0.8708069720517246  0.7103663433363379  0.3900382823690247  1.0000
  H   H14       1.0  0.7853924187233117  0.8952033101362953  0.7158278979309673  1.0000
  H   H15       1.0  0.7658144938541888  0.5618127576303851  0.7930647644064561  1.0000
  H   H16       1.0  0.7886843780546077  0.06485327117787754  0.19866252711105759  1.0000
  H   H17       1.0  0.7121121487256742  0.2311498818931353  0.0911728335731159  1.0000
  H   H18       1.0  0.7425551228024532  0.3366895968923808  0.9567269211066192  1.0000
  H   H19       1.0  0.8627860792385702  0.31887540142538046  0.8785479334911167  1.0000
  H   H20       1.0  0.9767582145941158  0.21122513450955271  0.8960459445500636  1.0000
  H   H21       1.0  0.9983633633926823  0.03252778801996414  0.06429629845421281  1.0000
  C   C29       1.0  0.8262957551883164  0.4065536930102548  0.17930398993522778  1.0000
  C   C30       1.0  0.8981388436755817  0.41989184369827615  0.17633712715166383  1.0000
  C   C31       1.0  0.934287754682949  0.4280923544293542  0.057553744013083774  1.0000
  C   C32       1.0  0.8979744372030867  0.4198310051431202  0.941099637314049  1.0000
  C   C33       1.0  0.8261683007401213  0.40638103987789176  0.9420700648831053  1.0000
  C   C34       1.0  0.7907250134938271  0.4001616265759718  0.061675184585210596  1.0000
  C   C35       1.0  0.010229697551826789  0.4408163986087299  0.05438518555780613  1.0000
  O   O2        1.0  0.04396861998625035  0.38664639687175184  0.9682547906688734  1.0000
  C   C36       1.0  0.04789362407990617  0.515008276873117  0.1488448362974628  1.0000
  C   C37       1.0  0.11499381972405255  0.4770474989948404  0.18644992994025578  1.0000
  C   C38       1.0  0.15173752326473067  0.5466386565671524  0.2743524593254172  1.0000
  O   O3        1.0  0.21827866485128047  0.5035134097112128  0.3090908398926895  1.0000
  C   C39       1.0  0.2613770075970858  0.5645930706634781  0.39712910613553665  1.0000
  C   C40       1.0  0.12100079867638502  0.6566025304787033  0.3245287938694328  1.0000
  C   C41       1.0  0.05470374748610541  0.6958817956363135  0.28640655875445886  1.0000
  C   C42       1.0  0.018356995191859408  0.6260502745538328  0.1987417529295994  1.0000
  H   H22       1.0  0.6908364110042914  0.3793930949557483  0.3923776578823222  1.0000
  H   H23       1.0  0.9261516347974594  0.42246650594654067  0.2666960597213588  1.0000
  H   H24       1.0  0.9258288059559673  0.4251724249025852  0.8494751574654775  1.0000
  H   H25       1.0  0.7353392411394387  0.3898780353973228  0.0631587035386667  1.0000
  H   H26       1.0  0.7986483521593738  0.4001293796656791  0.6150693229913262  1.0000
  H   H27       1.0  0.1388389987567149  0.3922876300795992  0.148368445847326  1.0000
  H   H28       1.0  0.31088085226776685  0.5103166436594344  0.40667367581609937  1.0000
  H   H29       1.0  0.23654073804092302  0.5632508746430671  0.4945698678017971  1.0000
  H   H30       1.0  0.271959884030313  0.6664119790463339  0.3593858119971505  1.0000
  H   H31       1.0  0.14795798312322034  0.7125469895691756  0.39249934687909077  1.0000
  H   H32       1.0  0.03150456097643107  0.7811188201163685  0.3245116407418065  1.0000
  H   H33       1.0  0.9674995193530262  0.6597195272660391  0.16894170351223647  1.0000
  Zn  Zn1       1.0  0.7508679964190124  0.40786138079459466  0.5613145252280289  1.0000
  Zn  Zn2       1.0  0.9015894832975921  0.40507286145242  0.5600590319266543  1.0000
  C   C43       1.0  0.8261904186139348  0.4012395930499538  0.7978906873278342  1.0000
  C   C44       1.0  0.8262687070965214  0.4116962574771055  0.323482983684809  1.0000
  C   C45       1.0  0.8262497959129047  0.6436809784393495  0.5555257171953636  1.0000
  C   C46       1.0  0.8262092782208228  0.16925331258781218  0.565848023394784  1.0000
  O   O4        1.0  0.8834576478004013  0.4123582543072302  0.37139431757927466  1.0000
  O   O5        1.0  0.8833955989711287  0.3984601948395594  0.7490260891500278  1.0000
  O   O6        1.0  0.8834427756086892  0.5942346935910662  0.553314667498306  1.0000
  O   O7        1.0  0.8834104197488779  0.2165837658203116  0.5671056422816803  1.0000
  O   O8        1.0  0.7690470085338819  0.596350477379703  0.5542679152946102  1.0000
  O   O9        1.0  0.7689998320392056  0.400577539081094  0.7499792677904349  1.0000
  O   O10       1.0  0.7690618811712157  0.4144755536415038  0.3723459347580298  1.0000
  O   O11       1.0  0.7690146530998101  0.2187010558429974  0.5680573568313594  1.0000
