data_image0
_chemical_formula_structural       NC10NC4H10C7ONC2H11C7OIH4Zn2C4O8
_chemical_formula_sum              "N3 C34 H25 O10 I1 Zn2"
_cell_length_a       19.28451875052605
_cell_length_b       10.299288639353465
_cell_length_c       10.297413674417344
_cell_angle_alpha    85.56151677804391
_cell_angle_beta     89.87971551463893
_cell_angle_gamma    90.08022397734847

_space_group_name_H-M_alt    "P 1"
_space_group_IT_number       1

loop_
  _space_group_symop_operation_xyz
  'x, y, z'

loop_
  _atom_site_type_symbol
  _atom_site_label
  _atom_site_symmetry_multiplicity
  _atom_site_fract_x
  _atom_site_fract_y
  _atom_site_fract_z
  _atom_site_occupancy
  N   N1        1.0  0.6524974581703094  0.4239054713930628  0.5643357758245846  1.0000
  C   C1        1.0  0.5925059048653495  0.4224013130661533  0.5670155461597008  1.0000
  C   C2        1.0  0.5178282900527076  0.42056930085758604  0.5703967313911813  1.0000
  C   C3        1.0  0.4824355193192086  0.3550923252150817  0.48469111054189856  1.0000
  C   C4        1.0  0.4059393928638412  0.3528603028021529  0.4865360612161989  1.0000
  C   C5        1.0  0.3696924974801287  0.4319953269945221  0.5596266050461962  1.0000
  C   C6        1.0  0.2925563827777439  0.43021569533046505  0.5595110760946416  1.0000
  C   C7        1.0  0.2558706411045654  0.31193499357281573  0.5588174821209202  1.0000
  C   C8        1.0  0.183372394269426  0.31079300122626186  0.5595466535368652  1.0000
  C   C9        1.0  0.146516659288171  0.42757031573810655  0.5612759661553475  1.0000
  C   C10       1.0  0.0718732944721098  0.4262664038919086  0.562034147369119  1.0000
  N   N2        1.0  0.011865507315147902  0.4252183444417216  0.5626437663560901  1.0000
  C   C11       1.0  0.1824354669012737  0.5455963899148273  0.5625399802553583  1.0000
  C   C12       1.0  0.2549348700139532  0.547000872333878  0.5619023324600574  1.0000
  C   C13       1.0  0.4082851769370006  0.5327172475805682  0.6316780545858154  1.0000
  C   C14       1.0  0.47997976433586204  0.4831812784923715  0.6774599972097004  1.0000
  H   H1        1.0  0.5094923150206321  0.30317101346313224  0.4123003597086847  1.0000
  H   H2        1.0  0.3796711936288776  0.28745350737848807  0.4254277285516874  1.0000
  H   H3        1.0  0.283200073308981  0.22012695559042597  0.5595440419608897  1.0000
  H   H4        1.0  0.15608883078548821  0.21878303554760348  0.5592211580198112  1.0000
  H   H5        1.0  0.1544162651353501  0.6365996270481953  0.5638508354326937  1.0000
  H   H6        1.0  0.2814978426159057  0.6396759345584103  0.5618116629127137  1.0000
  H   H7        1.0  0.3779537053853129  0.5580186835083425  0.718068849180941  1.0000
  H   H8        1.0  0.41477914471351957  0.6223739726982667  0.5654126365379246  1.0000
  H   H9        1.0  0.47335343027227045  0.40951652772973307  0.761342994168148  1.0000
  H   H10       1.0  0.5107266122526383  0.5656651082738298  0.7108418558343195  1.0000
  C   C15       1.0  0.8322513831714218  0.04318285739531458  0.5634372301641737  1.0000
  C   C16       1.0  0.8097290005080539  0.05222401755180029  0.4334314442578562  1.0000
  C   C17       1.0  0.7987746037867283  0.9396333382500305  0.36730038168396795  1.0000
  C   C18       1.0  0.8095838362101491  0.816947044539908  0.43359333779453135  1.0000
  C   C19       1.0  0.8321182325438431  0.8059309817177426  0.5635534899557215  1.0000
  C   C20       1.0  0.8434801498538803  0.9196231946623995  0.627650370141458  1.0000
  C   C21       1.0  0.7747614443496393  0.9487471512411705  0.23014175100581613  1.0000
  O   O1        1.0  0.7412917432152344  0.8551534630308545  0.18856570406919437  1.0000
  N   N3        1.0  0.7897698950479854  0.06135516242429407  0.1434827815374442  1.0000
  C   C22       1.0  0.7592684468079102  0.07748823733181731  0.01328650332492498  1.0000
  C   C23       1.0  0.783356073346701  0.20430023231554412  0.9406633530561876  1.0000
  H   H11       1.0  0.8402915016351977  0.3671752804035688  0.6135075118360129  1.0000
  H   H12       1.0  0.7994558319343599  0.14710845110810114  0.38477373088769196  1.0000
  H   H13       1.0  0.8009923172795012  0.7298376701908219  0.38320218261336914  1.0000
  H   H14       1.0  0.8608690555833811  0.9119153685317379  0.7279045918679192  1.0000
  H   H15       1.0  0.8401312482355646  0.47424131208521036  0.6134797739969984  1.0000
  H   H16       1.0  0.8249121739338554  0.1308786504380091  0.17222392893751826  1.0000
  H   H17       1.0  0.7018139891246257  0.07865976535252783  0.021781021022060143  1.0000
  H   H18       1.0  0.7747332034240766  0.9944890258555289  0.9567746251534595  1.0000
  H   H19       1.0  0.7676874136265905  0.2886067921928815  0.995024843252104  1.0000
  H   H20       1.0  0.8406506801207057  0.20416411773871462  0.9293685089176265  1.0000
  H   H21       1.0  0.7593380475598758  0.2144439800172491  0.8425014558788297  1.0000
  C   C24       1.0  0.8321306148943474  0.42460911450742583  0.18204319323912754  1.0000
  C   C25       1.0  0.7673185255825021  0.486927906320462  0.17628675557149087  1.0000
  C   C26       1.0  0.7344014924480787  0.5185785411486701  0.056247845521528506  1.0000
  C   C27       1.0  0.7674434789999189  0.4868076204356546  0.9410983155739673  1.0000
  C   C28       1.0  0.8322390162941058  0.42450469686920816  0.9449475719266496  1.0000
  C   C29       1.0  0.8641856679520359  0.393787103784472  0.06588248818606557  1.0000
  C   C30       1.0  0.6658648707021065  0.5844784557880167  0.05269939572737315  1.0000
  O   O2        1.0  0.6371805982727495  0.6120586045861334  0.15710261613811394  1.0000
  I   I1        1.0  0.6117452570649968  0.6365171138377042  0.8775115002170738  1.0000
  H   H22       1.0  0.9545011019595732  0.30694514843428206  0.40012590638742873  1.0000
  H   H23       1.0  0.7424121165883351  0.5108762437900667  0.265719658798534  1.0000
  H   H24       1.0  0.7430347277107956  0.5102771170326539  0.8479101671210705  1.0000
  H   H25       1.0  0.9141456414546778  0.3457491081555042  0.0695128475837068  1.0000
  Zn  Zn1       1.0  0.7562033223842638  0.42428085631144646  0.5638549909714947  1.0000
  Zn  Zn2       1.0  0.9081596554405215  0.42483231725884957  0.5631351612581459  1.0000
  C   C31       1.0  0.8322178699709077  0.4193506212083072  0.8007414889928635  1.0000
  C   C32       1.0  0.8321467669443697  0.4297641970295877  0.3262487831203005  1.0000
  C   C33       1.0  0.8321390974326773  0.6617560317912725  0.5583552282688775  1.0000
  C   C34       1.0  0.832225487912745  0.18735722590494325  0.5686351131058309  1.0000
  O   O3        1.0  0.8898188251767386  0.4316979004799429  0.37437232393036757  1.0000
  O   O4        1.0  0.8898771526159361  0.41783448415973967  0.7520712400091134  1.0000
  O   O5        1.0  0.889812765613151  0.6135799158343187  0.5563426234398501  1.0000
  O   O6        1.0  0.8898831603116617  0.2359524779209852  0.5701008433507515  1.0000
  O   O7        1.0  0.7744797656578837  0.6131606954625393  0.5568893091176996  1.0000
  O   O8        1.0  0.7745441523752837  0.41741682414286707  0.7526178566642283  1.0000
  O   O9        1.0  0.7744858247682258  0.43128019541980134  0.3749173788368334  1.0000
  O   O10       1.0  0.7745501599157709  0.23553476355844996  0.5706459956449064  1.0000
