data_image0
_chemical_formula_structural       NC6NCNCH5C6BrH3C6BrH4Zn2C4O8
_chemical_formula_sum              "N3 C24 H12 Br2 Zn2 O8"
_cell_length_a       14.933214217465613
_cell_length_b       9.276564384272257
_cell_length_c       9.27656775626242
_cell_angle_alpha    86.06955747846486
_cell_angle_beta     90.1519400802072
_cell_angle_gamma    90.62004099175812

_space_group_name_H-M_alt    "P 1"
_space_group_IT_number       1

loop_
  _space_group_symop_operation_xyz
  'x, y, z'

loop_
  _atom_site_type_symbol
  _atom_site_label
  _atom_site_symmetry_multiplicity
  _atom_site_fract_x
  _atom_site_fract_y
  _atom_site_fract_z
  _atom_site_occupancy
  N   N1        1.0  0.8499517457077955  0.5635244703059299  0.40844087189930645  1.0000
  C   C1        1.0  0.7724657528453893  0.5645114769600451  0.40744992543298  1.0000
  C   C2        1.0  0.6760726318883608  0.5657420208527303  0.40621433777180616  1.0000
  C   C3        1.0  0.627838284660199  0.470908850305826  0.5014455168179806  1.0000
  C   C4        1.0  0.5343094956251089  0.47198120938384625  0.5003686869242552  1.0000
  C   C5        1.0  0.488112464988224  0.5678324044150336  0.4041152478003289  1.0000
  C   C6        1.0  0.3915279102861113  0.5657441572999096  0.40621226595101345  1.0000
  N   N2        1.0  0.3140347371153027  0.5640020941981128  0.40796126933868115  1.0000
  C   C7        1.0  0.5364507550142192  0.6638630605642974  0.307681686614967  1.0000
  N   N3        1.0  0.4915697519841667  0.763489276387612  0.20763762018973164  1.0000
  C   C8        1.0  0.630455766443292  0.6618339511040592  0.3097194294933707  1.0000
  H   H1        1.0  0.662512649954319  0.39613927266289944  0.5765288540681817  1.0000
  H   H2        1.0  0.49790557380651784  0.39784060382447217  0.5748202833878715  1.0000
  H   H3        1.0  0.5282295120747835  0.8338548814419195  0.13697665425777483  1.0000
  H   H4        1.0  0.42185119180141645  0.768790241295189  0.20231447955661497  1.0000
  H   H5        1.0  0.6679808995524716  0.7352285785944848  0.2360167761196399  1.0000
  C   C9        1.0  0.07930031412001037  0.14028313623516458  0.40857232934971566  1.0000
  C   C10       1.0  0.06755034563965029  0.22248049068009632  0.27689181541371855  1.0000
  C   C11       1.0  0.06413682670321053  0.1562103143304383  0.1464327619789494  1.0000
  C   C12       1.0  0.07244822132561568  0.006799492134869517  0.14517703308293828  1.0000
  C   C13       1.0  0.08261647897214708  0.9228876762970115  0.27486776618688924  1.0000
  C   C14       1.0  0.08469468709593818  0.987232394164917  0.4078422594138664  1.0000
  Br  Br1       1.0  0.0684356958611303  0.916684231329798  0.9661637240593168  1.0000
  H   H6        1.0  0.0558807841500213  0.2214390330563489  0.04607535780573047  1.0000
  H   H7        1.0  0.086753310707614  0.8066215248109955  0.27175697184493686  1.0000
  H   H8        1.0  0.13456126375117194  0.6915490303483968  0.6322041002701897  1.0000
  C   C15       1.0  0.08111633856460475  0.5596126516204458  0.9850850218070152  1.0000
  C   C16       1.0  0.0017612329802620915  0.5942472492463801  0.05574816537008931  1.0000
  C   C17       1.0  0.9264610811841197  0.640764677585147  0.9770851304999671  1.0000
  C   C18       1.0  0.9291021057927367  0.6535897996607769  0.8265755898094933  1.0000
  C   C19       1.0  0.006691722749077253  0.6173955901995067  0.7541885407432352  1.0000
  C   C20       1.0  0.0828786888557425  0.5679029547270691  0.8313296337916731  1.0000
  Br  Br2       1.0  0.8260475403266255  0.7184159461858676  0.719376312990792  1.0000
  H   H9        1.0  0.20347306245504895  0.428755815814835  0.2759048119777412  1.0000
  H   H10       1.0  0.9985814392848742  0.5886580909325103  0.17265363215040797  1.0000
  H   H11       1.0  0.866264213347762  0.6681975008987009  0.03344120389445871  1.0000
  H   H12       1.0  0.23012606316561796  0.5531635264375858  0.5517954812027064  1.0000
  Zn  Zn1       1.0  0.9838760655905767  0.563658514365684  0.40831080169992107  1.0000
  Zn  Zn2       1.0  0.18011035186082758  0.5638563355089001  0.4081031822504366  1.0000
  C   C21       1.0  0.08250695277188472  0.5605909060287211  0.6713762203015934  1.0000
  C   C22       1.0  0.0814816194354238  0.5669257669496779  0.14503790123506155  1.0000
  C   C23       1.0  0.08365846602160004  0.8270847247881632  0.4022385374013353  1.0000
  C   C24       1.0  0.08033002834944752  0.3004302162819943  0.41417566251863924  1.0000
  O   O1        1.0  0.15607405991775347  0.5694488959929584  0.19864076368244232  1.0000
  O   O2        1.0  0.15685178722353532  0.5582168266877263  0.6176153656579624  1.0000
  O   O3        1.0  0.15778064796590985  0.7734139692756881  0.40028478229194264  1.0000
  O   O4        1.0  0.15514513205462865  0.3542517625951822  0.4159712390748862  1.0000
  O   O5        1.0  0.00884121843163821  0.7732630872133912  0.40044274493874155  1.0000
  O   O6        1.0  0.007912368560387458  0.5580676764676593  0.6177732499847117  1.0000
  O   O7        1.0  0.007134637386446043  0.5692996785487787  0.19879691570505442  1.0000
  O   O8        1.0  0.006205709678934744  0.3541025358948058  0.41612749913434444  1.0000
