data_image0
_chemical_formula_structural       NC5NC4H6C12H10C12H10Zn2C4O8
_chemical_formula_sum              "N2 C37 H26 Zn2 O8"
_cell_length_a       13.854160002989762
_cell_length_b       14.38812564980172
_cell_length_c       14.388129018870243
_cell_angle_alpha    85.39543532843052
_cell_angle_beta     90.8946737700517
_cell_angle_gamma    91.20505713478563

_space_group_name_H-M_alt    "P 1"
_space_group_IT_number       1

loop_
  _space_group_symop_operation_xyz
  'x, y, z'

loop_
  _atom_site_type_symbol
  _atom_site_label
  _atom_site_symmetry_multiplicity
  _atom_site_fract_x
  _atom_site_fract_y
  _atom_site_fract_z
  _atom_site_occupancy
  N   N1        1.0  0.9158983564929091  0.054973941007155046  0.010101324685891639  1.0000
  C   C1        1.0  0.8433435566635882  0.07269504786846938  0.972535861500476  1.0000
  C   C2        1.0  0.7530843548793947  0.09474060249298001  0.9258029801251373  1.0000
  C   C3        1.0  0.6657994086429581  0.0739481515018608  0.9714610611715433  1.0000
  C   C4        1.0  0.5779419424849376  0.09474061229654333  0.9258029654898555  1.0000
  C   C5        1.0  0.4882354140834298  0.07269495086759895  0.9725359171758592  1.0000
  N   N2        1.0  0.4161247849784711  0.05497390022095283  0.010101323095401125  1.0000
  C   C6        1.0  0.5774109906997759  0.13671455897761897  0.8345137232569211  1.0000
  C   C7        1.0  0.6646931871967948  0.1588908555112165  0.7888407262506295  1.0000
  C   C8        1.0  0.664019097896868  0.2013165807521895  0.6901294321723684  1.0000
  C   C9        1.0  0.7524880788207965  0.13671456045909125  0.8345136648581211  1.0000
  H   H1        1.0  0.6662340560957498  0.04138963644305818  0.042114570426478364  1.0000
  H   H2        1.0  0.509300198864524  0.15214750749642125  0.799061591051033  1.0000
  H   H3        1.0  0.7296204220781076  0.24571548746762326  0.6763980378009462  1.0000
  H   H4        1.0  0.5999119450921242  0.2457154869914424  0.6763980799250163  1.0000
  H   H5        1.0  0.6620038010375372  0.1450155517998635  0.6416805524745374  1.0000
  H   H6        1.0  0.8201231587213544  0.15214758195979197  0.7990615385393751  1.0000
  C   C10       1.0  0.1599000070669463  0.7829205628087439  0.99987501676661  1.0000
  C   C11       1.0  0.11072422842031691  0.8149301674213304  0.9176808913279846  1.0000
  C   C12       1.0  0.07426864287298193  0.7517887014119046  0.856571410262424  1.0000
  C   C13       1.0  0.08631824125127863  0.6561644651027598  0.876565567023794  1.0000
  C   C14       1.0  0.13515828543563368  0.6224146005531065  0.9583573262320082  1.0000
  C   C15       1.0  0.14789869987678728  0.5206463315622959  0.9797316815467119  1.0000
  C   C16       1.0  0.17153916024906257  0.46352719409068105  0.9089522184780725  1.0000
  C   C17       1.0  0.18356931798263873  0.36776922202195766  0.9290543721361595  1.0000
  C   C18       1.0  0.17213232239545048  0.3270197949551343  0.0203354268125121  1.0000
  C   C19       1.0  0.14842774662794844  0.38404048925181855  0.09115758004740471  1.0000
  C   C20       1.0  0.13647510583506883  0.47980597614107295  0.07106728543976379  1.0000
  C   C21       1.0  0.17177872829453333  0.686476713661585  0.019654572969657218  1.0000
  H   H7        1.0  0.274390200116013  0.8624687236999639  0.1910304694064786  1.0000
  H   H8        1.0  0.10039181798221429  0.8887513230194092  0.9005653762764863  1.0000
  H   H9        1.0  0.03627087977013921  0.7770647437968009  0.7935540401553807  1.0000
  H   H10       1.0  0.05631207005242467  0.6085242264483128  0.8286709512224568  1.0000
  H   H11       1.0  0.18200685299265817  0.493112298481435  0.83814498417635  1.0000
  H   H12       1.0  0.20207621235271112  0.3257547380266152  0.8730201745631108  1.0000
  H   H13       1.0  0.21720742975833368  0.10019949038654381  0.9842075145603715  1.0000
  H   H14       1.0  0.1388435282878817  0.35465983597735423  0.1621651390588189  1.0000
  H   H15       1.0  0.11700174616442638  0.5217429950933438  0.12685542523718596  1.0000
  H   H16       1.0  0.210698188183998  0.661130668674347  0.08215631517991928  1.0000
  C   C22       1.0  0.16181627709050295  0.06590834624273526  0.7364168970165783  1.0000
  C   C23       1.0  0.12803712970632586  0.15379520039383843  0.755260626539805  1.0000
  C   C24       1.0  0.10302726481121621  0.21912285016448207  0.6823312377991708  1.0000
  C   C25       1.0  0.11133039809463519  0.19773208504447634  0.5899101473675397  1.0000
  C   C26       1.0  0.14485041915350072  0.11028836224736892  0.5692611594719443  1.0000
  C   C27       1.0  0.15358764620760534  0.08743996768260166  0.4709164406176549  1.0000
  C   C28       1.0  0.18964542572615328  0.154189315420743  0.40282011890835534  1.0000
  C   C29       1.0  0.1979099639966715  0.13269446850303834  0.31028215782304436  1.0000
  C   C30       1.0  0.1702160398664887  0.04403204785334847  0.28379359113617153  1.0000
  C   C31       1.0  0.13408732278115676  0.9772492171654257  0.35179775107900224  1.0000
  C   C32       1.0  0.12589709144087124  0.9987218527147691  0.44434548889729786  1.0000
  C   C33       1.0  0.16998933901564306  0.04475275631730425  0.6431415717485288  1.0000
  H   H17       1.0  0.2404976031157131  0.8614966999352822  0.8465850449065744  1.0000
  H   H18       1.0  0.12091197404807283  0.17210868438667068  0.8263396980028508  1.0000
  H   H19       1.0  0.07683773019901863  0.286544742269079  0.6975115323447525  1.0000
  H   H20       1.0  0.0903130602789377  0.24912678939583288  0.5345908182134382  1.0000
  H   H21       1.0  0.2127033521939223  0.22274930431603746  0.42135171256826504  1.0000
  H   H22       1.0  0.22624997033709837  0.18556639521167173  0.25957619486355576  1.0000
  H   H23       1.0  0.2212086135612918  0.07363475687451597  0.051550440407478915  1.0000
  H   H24       1.0  0.11186551252673978  0.9083716817958166  0.33350682963187483  1.0000
  H   H25       1.0  0.09664718809571513  0.9462239499178913  0.49493010508126856  1.0000
  H   H26       1.0  0.19718152762441107  0.9777156778355601  0.6278154513310357  1.0000
  Zn  Zn1       1.0  0.06025293073937377  0.05497123357480471  0.010106618851968951  1.0000
  Zn  Zn2       1.0  0.2717701589286321  0.05496872063450889  0.010103398105766877  1.0000
  C   C34       1.0  0.1685432018957241  0.04447643389561873  0.1801888683037427  1.0000
  C   C35       1.0  0.16348222521713085  0.06546468555541513  0.8400212840512811  1.0000
  C   C36       1.0  0.16975820873328132  0.22432190895104998  0.012754041404558606  1.0000
  C   C37       1.0  0.16226712194250267  0.8856180954581118  0.007456118784836541  1.0000
  O   O1        1.0  0.24431092752860786  0.06531079361689508  0.87479048853609  1.0000
  O   O2        1.0  0.24825116177492568  0.04462773039850432  0.14541692477614598  1.0000
  O   O3        1.0  0.24923122795967484  0.18985518724441078  0.010212153666093291  1.0000
  O   O4        1.0  0.24333078824399276  0.9200833461919475  0.009995190015797632  1.0000
  O   O5        1.0  0.08869222924351125  0.18985660801942872  0.010214826938173329  1.0000
  O   O6        1.0  0.0877121873153317  0.04463026621745583  0.14541959021008943  1.0000
  O   O7        1.0  0.08377193521219323  0.06531334193506312  0.8747920322211945  1.0000
  O   O8        1.0  0.08279179684694227  0.9200858850912184  0.00999680332748265  1.0000
