data_image0
_chemical_formula_structural       NC10NC5H10C12SCH12C12IH8Zn2C4O8
_chemical_formula_sum              "N2 C44 H30 S1 I1 Zn2 O8"
_cell_length_a       19.4436361288709
_cell_length_b       10.299776766347529
_cell_length_c       10.29977335064465
_cell_angle_alpha    85.54589617011163
_cell_angle_beta     89.71371329934453
_cell_angle_gamma    89.39962546058797

_space_group_name_H-M_alt    "P 1"
_space_group_IT_number       1

loop_
  _space_group_symop_operation_xyz
  'x, y, z'

loop_
  _atom_site_type_symbol
  _atom_site_label
  _atom_site_symmetry_multiplicity
  _atom_site_fract_x
  _atom_site_fract_y
  _atom_site_fract_z
  _atom_site_occupancy
  N   N1        1.0  0.6472798418164403  0.40971236694808594  0.5621596304155574  1.0000
  C   C1        1.0  0.588444286370589  0.41960743779157594  0.5765441177611302  1.0000
  C   C2        1.0  0.5151154840647407  0.4319478925759501  0.594537074230534  1.0000
  C   C3        1.0  0.47292349042180587  0.3999955525259067  0.49986158072174613  1.0000
  C   C4        1.0  0.3970177724154891  0.4104312331557253  0.5051901799676898  1.0000
  C   C5        1.0  0.35729818265714697  0.38563362253875244  0.6122616224769653  1.0000
  C   C6        1.0  0.2811750931057709  0.38955624777618625  0.5993024082274973  1.0000
  C   C7        1.0  0.24061556528329833  0.44717311351282374  0.6930761039032229  1.0000
  C   C8        1.0  0.1689500209754228  0.4508157485203426  0.6825323593637955  1.0000
  C   C9        1.0  0.1368493589390932  0.39644537714956574  0.5785014269794078  1.0000
  C   C10       1.0  0.06305453702082874  0.4001493272252423  0.5678024031170836  1.0000
  N   N2        1.0  0.0037285054024945  0.4031271086573094  0.5592010972669847  1.0000
  C   C11       1.0  0.1766841740011273  0.3381212501229214  0.48511093237339675  1.0000
  C   C12       1.0  0.2483661207883915  0.334424509364669  0.4954028963006977  1.0000
  C   C13       1.0  0.3854567856130701  0.3451120894724482  0.743354541680951  1.0000
  C   C14       1.0  0.4441195961984379  0.3882113853275088  0.7905992541158975  1.0000
  C   C15       1.0  0.4882993098228547  0.48610316460063024  0.7162364738972657  1.0000
  H   H1        1.0  0.49501470092671085  0.37092099409692986  0.40955314513807467  1.0000
  H   H2        1.0  0.372302124593109  0.4329691548758168  0.4120327399239471  1.0000
  H   H3        1.0  0.26448999560289654  0.4904257107886789  0.7739267245348952  1.0000
  H   H4        1.0  0.1386077004582012  0.4960957522121728  0.7554555974276358  1.0000
  H   H5        1.0  0.1523378747217308  0.29506415171645717  0.40459480501496964  1.0000
  H   H6        1.0  0.2780433158868421  0.286900817810102  0.4231758824663623  1.0000
  H   H7        1.0  0.3545116900462766  0.280865768195923  0.8075984291771452  1.0000
  H   H8        1.0  0.4592894462677867  0.35409880319412834  0.8885322213086434  1.0000
  H   H9        1.0  0.4581708747595422  0.5768281400083491  0.6909889699256822  1.0000
  H   H10       1.0  0.5315889369593915  0.5116593717105491  0.7793228422635106  1.0000
  C   C16       1.0  0.8255723134191615  0.02505334604223242  0.5606782279801164  1.0000
  C   C17       1.0  0.8297170589526369  0.013376259241876463  0.6971570144899635  1.0000
  C   C18       1.0  0.8317510152795343  0.8903219872636005  0.7663178101038417  1.0000
  C   C19       1.0  0.8295855447876327  0.7780909082182405  0.6971732962941645  1.0000
  C   C20       1.0  0.8254426361153263  0.7877760137853315  0.5606937451603491  1.0000
  C   C21       1.0  0.823458824467128  0.9116954428130178  0.49321018860605426  1.0000
  C   C22       1.0  0.8361281087297984  0.8790329931484512  0.9106970301166242  1.0000
  C   C23       1.0  0.7967708161874104  0.7862786596078742  0.985065997441318  1.0000
  C   C24       1.0  0.8009108295595277  0.7758884702275295  0.12094023730897062  1.0000
  C   C25       1.0  0.8442368055382197  0.8579766984997765  0.18425359481992284  1.0000
  C   C26       1.0  0.8837583499799524  0.9501538210427792  0.11125632194153823  1.0000
  C   C27       1.0  0.8797191888326588  0.9608920389372264  0.975370830062027  1.0000
  S   S1        1.0  0.8496248579894876  0.8441827171456455  0.3585983088009933  1.0000
  C   C28       1.0  0.7805124195623337  0.9615158216348144  0.3787005480865865  1.0000
  H   H11       1.0  0.8240200360536122  0.3569558282390548  0.5086733904505385  1.0000
  H   H12       1.0  0.8304246284727362  0.10017923552824627  0.7501091988214112  1.0000
  H   H13       1.0  0.832086446867987  0.6830160014071217  0.7499144608033622  1.0000
  H   H14       1.0  0.8202617997742778  0.9199353217998467  0.3879226039673393  1.0000
  H   H15       1.0  0.8238296622325281  0.4640133418483492  0.5086940771450665  1.0000
  H   H16       1.0  0.7621435840824482  0.7229676781838537  0.9382395154972549  1.0000
  H   H17       1.0  0.7701651098623313  0.7043783966783317  0.17691663166010213  1.0000
  H   H18       1.0  0.9176537056972245  0.013533748467330582  0.159677804667526  1.0000
  H   H19       1.0  0.9113331041007471  0.03201672134623701  0.9208002651713958  1.0000
  H   H20       1.0  0.7942768896477468  0.05760509865781117  0.3297089000269286  1.0000
  H   H21       1.0  0.7725517416621708  0.9723124221358914  0.48404535250455866  1.0000
  H   H22       1.0  0.7321112024792084  0.9268894596419339  0.33698040294883114  1.0000
  C   C29       1.0  0.8254746551858451  0.40652136626722246  0.17931705407209453  1.0000
  C   C30       1.0  0.8878105546735761  0.4743725717508421  0.17246376270595595  1.0000
  C   C31       1.0  0.9194297324884123  0.5086448708980247  0.051860833482259214  1.0000
  C   C32       1.0  0.8878767505630675  0.4741571943798469  0.9371935958702772  1.0000
  C   C33       1.0  0.8255402747222489  0.4063080044708397  0.942054933856152  1.0000
  C   C34       1.0  0.7946885521401577  0.372868955991381  0.06358194814738805  1.0000
  C   C35       1.0  0.9853756441086229  0.5804234698977025  0.045664642972625506  1.0000
  C   C36       1.0  0.9961775458956186  0.6832420114580069  0.1253875574529244  1.0000
  C   C37       1.0  0.05828185300025113  0.7506862299234989  0.11935356810294939  1.0000
  C   C38       1.0  0.11027449100969466  0.7163664011244559  0.03393205555795009  1.0000
  C   C39       1.0  0.10013589063290396  0.6144217941827921  0.9543463930919183  1.0000
  C   C40       1.0  0.03810139556624438  0.5467503162430005  0.9599738570922333  1.0000
  I   I1        1.0  0.20390531490274522  0.81827440796719  0.025138646282289567  1.0000
  H   H23       1.0  0.9124009422833017  0.49916501471846  0.26123700898911006  1.0000
  H   H24       1.0  0.9115588181230853  0.5019071147087166  0.843884768950296  1.0000
  H   H25       1.0  0.746598857315443  0.32052598308376684  0.06810059420940284  1.0000
  H   H26       1.0  0.8017979419556281  0.38041843594865504  0.6164564823983834  1.0000
  H   H27       1.0  0.9562905889127509  0.7125565429667996  0.191109855666022  1.0000
  H   H28       1.0  0.06588028709524507  0.8298220297355889  0.18087786551465698  1.0000
  H   H29       1.0  0.14036026181816522  0.5873372358090246  0.8883301959512133  1.0000
  H   H30       1.0  0.03169828724266078  0.4670515518425551  0.8986005383458842  1.0000
  Zn  Zn1       1.0  0.7501432289159429  0.40780853020743685  0.5613133737255632  1.0000
  Zn  Zn2       1.0  0.9008651125408399  0.40502033479889055  0.5600580349214951  1.0000
  C   C41       1.0  0.82552721314261  0.4011747168033977  0.7978810198680003  1.0000
  C   C42       1.0  0.8254827739247779  0.4116557563287391  0.32349050257053985  1.0000
  C   C43       1.0  0.825463144078956  0.6436067134457977  0.5555156517826241  1.0000
  C   C44       1.0  0.8255467918288695  0.16922220032638635  0.5658559402912082  1.0000
  O   O1        1.0  0.8826836689531246  0.4123151332068713  0.37140003427834245  1.0000
  O   O2        1.0  0.8827207404530067  0.3983981845133476  0.7490183411885278  1.0000
  O   O3        1.0  0.8826682329313306  0.5941651016591616  0.5533065981339496  1.0000
  O   O4        1.0  0.8827361250336747  0.21654822632987772  0.567111680386802  1.0000
  O   O5        1.0  0.7682721649891253  0.5962806396293396  0.5542597286818111  1.0000
  O   O6        1.0  0.7683246722363811  0.4005152827963687  0.7499714025226514  1.0000
  O   O7        1.0  0.7682876006556153  0.4144321866701668  0.3723515342104526  1.0000
  O   O8        1.0  0.7683400567433091  0.2186652704772427  0.5680632776865853  1.0000
