data_image0
_chemical_formula_structural       NC5NC4H6C9H10C7OH5Zn2C4O8
_chemical_formula_sum              "N2 C29 H21 O9 Zn2"
_cell_length_a       13.854160002989762
_cell_length_b       10.297183801781406
_cell_length_c       9.274074313596559
_cell_angle_alpha    86.09469829957582
_cell_angle_beta     90.23361037791132
_cell_angle_gamma    89.99762469776624

_space_group_name_H-M_alt    "P 1"
_space_group_IT_number       1

loop_
  _space_group_symop_operation_xyz
  'x, y, z'

loop_
  _atom_site_type_symbol
  _atom_site_label
  _atom_site_symmetry_multiplicity
  _atom_site_fract_x
  _atom_site_fract_y
  _atom_site_fract_z
  _atom_site_occupancy
  N   N1        1.0  0.9045243962477116  0.40762355475692796  0.4094955236374941  1.0000
  C   C1        1.0  0.8320298737469917  0.4298109842708332  0.35044966224197444  1.0000
  C   C2        1.0  0.7418456633359682  0.45741274255205777  0.2769943499465197  1.0000
  C   C3        1.0  0.654471003193383  0.4314899976289918  0.34871641461945124  1.0000
  C   C4        1.0  0.5667032509010752  0.4574127552542823  0.2769943267721344  1.0000
  C   C5        1.0  0.47692173263687176  0.4298108523851487  0.35044975391195055  1.0000
  N   N2        1.0  0.40475082565149  0.4076234975624415  0.4094955235795381  1.0000
  C   C6        1.0  0.566342827364189  0.5098046202179793  0.1335688912316546  1.0000
  C   C7        1.0  0.6536844102009881  0.537663137125561  0.06174243665635926  1.0000
  C   C8        1.0  0.6532599840878921  0.5901706866933609  0.9068302125945271  1.0000
  C   C9        1.0  0.7414199161535701  0.5098046182265297  0.13356880097224755  1.0000
  H   H1        1.0  0.6547752723049433  0.3908394672058377  0.45972511842025776  1.0000
  H   H2        1.0  0.4983173864567518  0.5289366765574519  0.07792070241963711  1.0000
  H   H3        1.0  0.7180473742925351  0.6513549696809363  0.8830175843977744  1.0000
  H   H4        1.0  0.5883388968113918  0.6513549719465619  0.883017649468624  1.0000
  H   H5        1.0  0.6530674133067926  0.5080002553361601  0.8353313859641743  1.0000
  H   H6        1.0  0.8091403453024009  0.5289367771201918  0.07792061695971576  1.0000
  C   C10       1.0  0.15464616953943766  0.026149767516137505  0.4096997592284719  1.0000
  C   C11       1.0  0.15141821243441145  0.03466903849279368  0.25803505008532124  1.0000
  C   C12       1.0  0.14976421235190027  0.9224172227516707  0.18033278444586642  1.0000
  C   C13       1.0  0.15140529966486374  0.7994927492593135  0.2574472201302691  1.0000
  C   C14       1.0  0.15463834638431304  0.7890873934996749  0.4093037629677587  1.0000
  C   C15       1.0  0.15623676037647397  0.9028832680471961  0.4844387477118157  1.0000
  C   C16       1.0  0.1462726817535085  0.9410636106803868  0.016296692233285663  1.0000
  C   C17       1.0  0.08953502496411712  0.8416374585607094  0.93606517162731  1.0000
  C   C18       1.0  0.19948734861636547  0.8419051829474096  0.9314866438503135  1.0000
  H   H7        1.0  0.15589917012035448  0.35040547313924586  0.4681410363330125  1.0000
  H   H8        1.0  0.15017224559126774  0.12938031245343096  0.19948410477531803  1.0000
  H   H9        1.0  0.15019159139250085  0.7113898283735463  0.2005222232426218  1.0000
  H   H10       1.0  0.1587267132794199  0.8955830287246859  0.6014512556659244  1.0000
  H   H11       1.0  0.16073183940844332  0.5622181564482356  0.6961180130462525  1.0000
  H   H12       1.0  0.14515132859588267  0.041313095471115606  0.9635726085332715  1.0000
  H   H13       1.0  0.057505175622085895  0.7585797698572828  0.0016553892783643918  1.0000
  H   H14       1.0  0.055203890919404135  0.8816090030159801  0.8340931172464324  1.0000
  H   H15       1.0  0.23424763348586292  0.759010928796933  0.9942964041384329  1.0000
  H   H16       1.0  0.2294185053264594  0.8820308214414917  0.8268373116660355  1.0000
  C   C19       1.0  0.15348657787844533  0.4038771563316671  0.986262540448839  1.0000
  C   C20       1.0  0.06932689474161702  0.4422286939588784  0.056131482124195164  1.0000
  C   C21       1.0  0.9899201953042556  0.4910201237595883  0.9769239211706786  1.0000
  C   C22       1.0  0.9928157077662477  0.5027578016273815  0.8256378278172396  1.0000
  C   C23       1.0  0.07567215665212035  0.46283793019161473  0.7546298140782768  1.0000
  C   C24       1.0  0.1557978884523754  0.41135996128020436  0.8327410629807694  1.0000
  C   C25       1.0  0.9097873932344799  0.555121583422975  0.7402199370209332  1.0000
  O   O1        1.0  0.8341490320363355  0.5913161251783332  0.8009074231712927  1.0000
  H   H17       1.0  0.3893279520350934  0.3707806625895036  0.09306830602720863  1.0000
  H   H18       1.0  0.9265883187886799  0.5207581285898895  0.034310134957822765  1.0000
  H   H19       1.0  0.07679055579323908  0.4691332705916249  0.6374698838745618  1.0000
  H   H20       1.0  0.314327508433277  0.38436029151907425  0.5552892634493145  1.0000
  H   H21       1.0  0.9132148019198669  0.5630066221396444  0.6233463275599793  1.0000
  Zn  Zn1       1.0  0.04887896662784729  0.40762013397860425  0.4095038574176924  1.0000
  Zn  Zn2       1.0  0.26039628887624566  0.4076163927209437  0.409499032073789  1.0000
  C   C26       1.0  0.15535892631077997  0.404770481539979  0.6727411406451269  1.0000
  C   C27       1.0  0.1539186393253167  0.4104676854394831  0.14626188940391543  1.0000
  C   C28       1.0  0.15461916082513638  0.6448251679046411  0.40363528723482284  1.0000
  C   C29       1.0  0.15465833286073583  0.1704114390236493  0.4153678204661977  1.0000
  O   O2        1.0  0.2343333646135312  0.4126724401258246  0.19995730427382097  1.0000
  O   O3        1.0  0.23548095330860963  0.4025619036660628  0.6190416490690454  1.0000
  O   O4        1.0  0.23488250534119381  0.59640911207845  0.4017367677953201  1.0000
  O   O5        1.0  0.2349317401092412  0.21882524005219614  0.41726207747898164  1.0000
  O   O6        1.0  0.07434344321434994  0.5964112866499756  0.40174081200656464  1.0000
  O   O7        1.0  0.07494189095148851  0.4025656382913842  0.6190456156223767  1.0000
  O   O8        1.0  0.07379429758952027  0.41267611416460026  0.19995953802448435  1.0000
  O   O9        1.0  0.0743926733764344  0.21882890575483713  0.41726441929227454  1.0000
