data_image0
_chemical_formula_structural       NC9NC4H8C6NO2H5C8NH11Zn2C4O8
_chemical_formula_sum              "N4 C31 H24 O10 Zn2"
_cell_length_a       16.32274767691083
_cell_length_b       9.273392599741051
_cell_length_c       9.275652972338538
_cell_angle_alpha    86.06806642986213
_cell_angle_beta     89.90519038886141
_cell_angle_gamma    88.93063911827517

_space_group_name_H-M_alt    "P 1"
_space_group_IT_number       1

loop_
  _space_group_symop_operation_xyz
  'x, y, z'

loop_
  _atom_site_type_symbol
  _atom_site_label
  _atom_site_symmetry_multiplicity
  _atom_site_fract_x
  _atom_site_fract_y
  _atom_site_fract_z
  _atom_site_occupancy
  N   N1        1.0  0.7554078989737422  0.5576888867303025  0.4019157040842716  1.0000
  C   C1        1.0  0.7031339867718683  0.5046025793029318  0.3415422538117572  1.0000
  C   C2        1.0  0.638156899928838  0.4386689720954249  0.2665579458338627  1.0000
  C   C3        1.0  0.6498143383154301  0.348483531872565  0.16398799271723186  1.0000
  C   C4        1.0  0.5704998291146907  0.3044725847462737  0.11393725751097739  1.0000
  C   C5        1.0  0.5114920545511645  0.3688816461195963  0.18719367352244465  1.0000
  C   C6        1.0  0.4215743405956365  0.35185893596223217  0.16783657709950384  1.0000
  C   C7        1.0  0.36589126135518507  0.42693180258072644  0.2532134557242496  1.0000
  C   C8        1.0  0.28119964320956065  0.4123833744645619  0.2366696550220895  1.0000
  C   C9        1.0  0.22510195551555762  0.48976411345272663  0.3246703240514759  1.0000
  N   N2        1.0  0.180018369022024  0.5519654915113874  0.3954079581646368  1.0000
  C   C10       1.0  0.2511382099234728  0.32264066842869815  0.13461159113536536  1.0000
  C   C11       1.0  0.3054992569471625  0.24766724380623306  0.049348179189490964  1.0000
  C   C12       1.0  0.39003253342124355  0.26182380336659716  0.06544619256353013  1.0000
  C   C13       1.0  0.5491370598931167  0.4627971246870945  0.2940029997928302  1.0000
  H   H1        1.0  0.7087625756500953  0.31341465038953564  0.12410086896458015  1.0000
  H   H2        1.0  0.5622901701589301  0.23076413550046482  0.030106757648956206  1.0000
  H   H3        1.0  0.3879222658736042  0.4969911144673808  0.33288709818735884  1.0000
  H   H4        1.0  0.1857603882806801  0.31065577923420773  0.12098318013696718  1.0000
  H   H5        1.0  0.2820714689656597  0.17824289522920694  0.9703969201763086  1.0000
  H   H6        1.0  0.42988349703084466  0.20184989257881297  0.9972413890538818  1.0000
  H   H7        1.0  0.533069680311841  0.4249515574905902  0.40656455467825836  1.0000
  H   H8        1.0  0.5315717477520542  0.5782134608638233  0.2696645038565131  1.0000
  C   C14       1.0  0.970210796715716  0.1312588138153128  0.39771717240028903  1.0000
  C   C15       1.0  0.959214919686905  0.21386710797219607  0.2662190209629658  1.0000
  C   C16       1.0  0.9410090003859769  0.14816259578391944  0.1396089781706229  1.0000
  C   C17       1.0  0.933199085306445  0.9978601636064078  0.14096687317671353  1.0000
  C   C18       1.0  0.9454686922601188  0.914059566211576  0.2714403938905847  1.0000
  C   C19       1.0  0.965223443195879  0.9783843645799682  0.3996187841030199  1.0000
  N   N3        1.0  0.9137002063444521  0.9307272041484621  0.010150213106204337  1.0000
  O   O1        1.0  0.9024033165817362  0.01311620450076756  0.8823597604798685  1.0000
  O   O2        1.0  0.9064862513718748  0.7968927412159376  0.010490885208888528  1.0000
  H   H9        1.0  0.955036271882997  0.21032520213851  0.7517103547385457  1.0000
  H   H10       1.0  0.962778459934986  0.3306327807371441  0.2619058836358876  1.0000
  H   H11       1.0  0.9322142980449311  0.2155314657178242  0.04067955872876694  1.0000
  H   H12       1.0  0.9415156782155714  0.7975176081284538  0.27252698306390766  1.0000
  H   H13       1.0  0.9578017369944822  0.6820090339988741  0.6388183557148341  1.0000
  C   C20       1.0  0.965909692262079  0.5520349736066479  0.9754189013948377  1.0000
  C   C21       1.0  0.9122109468651738  0.6471018328852973  0.042592321363711605  1.0000
  C   C22       1.0  0.8649318904614768  0.7504982687652297  0.9608383123165317  1.0000
  C   C23       1.0  0.8702530355207138  0.7574531735082712  0.8099865229144174  1.0000
  C   C24       1.0  0.922147427473944  0.6624748367330331  0.7414328180785548  1.0000
  C   C25       1.0  0.9695245705009078  0.5576082482311298  0.821917076443154  1.0000
  C   C26       1.0  0.8068458503094084  0.8499526849259564  0.034484898236029286  1.0000
  C   C27       1.0  0.7230178929841712  0.7806134594665219  0.0564051896581419  1.0000
  N   N4        1.0  0.6668743382858755  0.8788381924489199  0.1256835767161637  1.0000
  H   H14       1.0  0.02722576926574272  0.3369236631553376  0.2706246578648379  1.0000
  H   H15       1.0  0.9083373046500831  0.6431413563194865  0.15947057449855384  1.0000
  H   H16       1.0  0.8334653939173862  0.835634798902688  0.7451345373520941  1.0000
  H   H17       1.0  0.9235901925727104  0.6686496587003821  0.6244041792806589  1.0000
  H   H18       1.0  0.08266241952619735  0.42398501022056595  0.5494183091338654  1.0000
  H   H19       1.0  0.8323553880334763  0.8749512648372068  0.1408628387981914  1.0000
  H   H20       1.0  0.7996734488593115  0.9541769791550895  0.9685096972647131  1.0000
  H   H21       1.0  0.6975446540819338  0.7567732178924543  0.9496120354004458  1.0000
  H   H22       1.0  0.7294097646388293  0.6772294627379627  0.12427731685064702  1.0000
  H   H23       1.0  0.6092899867954042  0.8311811828827915  0.13086460090571927  1.0000
  H   H24       1.0  0.6860175531369911  0.885799019275115  0.23252566431270363  1.0000
  Zn  Zn1       1.0  0.877941373082293  0.5560334220386545  0.4000460240996868  1.0000
  Zn  Zn2       1.0  0.05748502119258304  0.5536091977511528  0.3972894191048708  1.0000
  C   C28       1.0  0.9688732617235382  0.5508086376708893  0.6618979318674321  1.0000
  C   C29       1.0  0.9665550830518244  0.5588357765147764  0.13543762678474058  1.0000
  C   C30       1.0  0.9661374135011908  0.8182218728149211  0.39351594330391526  1.0000
  C   C31       1.0  0.9692908805391863  0.2914208097499342  0.4038196892408259  1.0000
  O   O3        1.0  0.03490759790222774  0.5601919149438608  0.18809524145944034  1.0000
  O   O4        1.0  0.03679022606609461  0.5476114782374204  0.6071477004424248  1.0000
  O   O5        1.0  0.034580081922666706  0.7635510697870639  0.39042736329937733  1.0000
  O   O6        1.0  0.03711768025733431  0.3442523338281398  0.40481547149838737  1.0000
  O   O7        1.0  0.8983086527480649  0.7653902867904565  0.3925199726392865  1.0000
  O   O8        1.0  0.9005187863570006  0.5494524276904118  0.609240236822882  1.0000
  O   O9        1.0  0.8986361511435808  0.5620328027234345  0.19018604485971102  1.0000
  O   O10       1.0  0.9008462340175316  0.3460932120025799  0.40690638293587567  1.0000
