data_image0
_chemical_formula_structural       NC9NC5H8C7OH6C6NH7Zn2C4O8
_chemical_formula_sum              "N3 C31 H21 O9 Zn2"
_cell_length_a       17.807436237873137
_cell_length_b       9.274078303013077
_cell_length_c       9.274774538082514
_cell_angle_alpha    85.24273556262948
_cell_angle_beta     89.72824813723155
_cell_angle_gamma    87.81002060722456

_space_group_name_H-M_alt    "P 1"
_space_group_IT_number       1

loop_
  _space_group_symop_operation_xyz
  'x, y, z'

loop_
  _atom_site_type_symbol
  _atom_site_label
  _atom_site_symmetry_multiplicity
  _atom_site_fract_x
  _atom_site_fract_y
  _atom_site_fract_z
  _atom_site_occupancy
  N   N1        1.0  0.6941011870844758  0.5555656738072076  0.40152668058102403  1.0000
  C   C1        1.0  0.6336804019429172  0.5165904739135445  0.389153329419613  1.0000
  C   C2        1.0  0.5585235859353912  0.4681096175876164  0.3737622242498899  1.0000
  C   C3        1.0  0.5404742053489997  0.38982745651753137  0.2568310017240494  1.0000
  C   C4        1.0  0.46750116640206185  0.3426332630008999  0.24179502355201807  1.0000
  C   C5        1.0  0.4115308862368349  0.37330224211348734  0.3436528832091297  1.0000
  C   C6        1.0  0.3339789778099389  0.32327379289446184  0.32776513738049906  1.0000
  C   C7        1.0  0.2714164010192873  0.41382151018527186  0.3568755607117675  1.0000
  C   C8        1.0  0.19830229649497705  0.366401674580046  0.34185407319700856  1.0000
  C   C9        1.0  0.1346751583796126  0.4599349894753597  0.3713783091048304  1.0000
  N   N2        1.0  0.0835319592705199  0.5351292928568763  0.3951149670023877  1.0000
  C   C10       1.0  0.1871686452742815  0.228147842729745  0.2976930886291296  1.0000
  C   C11       1.0  0.2488739033547878  0.13758482296520214  0.26857329395837093  1.0000
  C   C12       1.0  0.3218701622717829  0.18456845430769292  0.28336833410287543  1.0000
  C   C13       1.0  0.4302695596045092  0.4521313151856708  0.4608294507510069  1.0000
  C   C14       1.0  0.503296027731194  0.4991155801769191  0.4756917997054197  1.0000
  H   H1        1.0  0.5827437308471184  0.36556145709794174  0.17706382369839724  1.0000
  H   H2        1.0  0.4546058996731823  0.28382840241739893  0.14946427397192563  1.0000
  H   H3        1.0  0.279446093767469  0.5217873291962927  0.38930594799069684  1.0000
  H   H4        1.0  0.13086514142731417  0.19044976490054433  0.285800538434849  1.0000
  H   H5        1.0  0.2401367530998499  0.030541702194101683  0.23481186683664768  1.0000
  H   H6        1.0  0.3688280766914277  0.11173575862236686  0.26197091246194715  1.0000
  H   H7        1.0  0.3887247171937766  0.47578584035201543  0.5420332052105503  1.0000
  H   H8        1.0  0.516708752987158  0.5592863779182835  0.566869357620652  1.0000
  C   C15       1.0  0.8910557070333295  0.12177381411112176  0.3969898406325796  1.0000
  C   C16       1.0  0.8761058110864881  0.2071563945507043  0.2669568885364768  1.0000
  C   C17       1.0  0.854679339294669  0.1442694370293125  0.14196017029424635  1.0000
  C   C18       1.0  0.8480028320267557  0.993933952283321  0.14691972627269823  1.0000
  C   C19       1.0  0.863789656287707  0.9074722274490303  0.27425296700335444  1.0000
  C   C20       1.0  0.8865847282716075  0.9689095776489113  0.39966422019982106  1.0000
  C   C21       1.0  0.8387650149639284  0.23719115560567028  0.00790700886747708  1.0000
  O   O1        1.0  0.8190836958825706  0.1839213873885406  0.8939603718452943  1.0000
  H   H9        1.0  0.8898914199241432  0.1953704579663762  0.7523400432223337  1.0000
  H   H10       1.0  0.8794568661956612  0.32387324087101277  0.2637889824607691  1.0000
  H   H11       1.0  0.8312580066354531  0.9427902599964516  0.051919719569226024  1.0000
  H   H12       1.0  0.8598702902949543  0.7912474773725152  0.27354548028269154  1.0000
  H   H13       1.0  0.8890885102228758  0.667810773738722  0.638299566424219  1.0000
  H   H14       1.0  0.8439475047153625  0.3532469728201697  0.006305193125911495  1.0000
  C   C22       1.0  0.8874521722193425  0.5491016573756473  0.9745445458580594  1.0000
  C   C23       1.0  0.9402484696812033  0.6314268858016514  0.04067312293156244  1.0000
  C   C24       1.0  0.996478659883538  0.7016934647654974  0.9592072601157526  1.0000
  C   C25       1.0  0.00036934452498594157  0.6899429113332083  0.8101303303135072  1.0000
  C   C26       1.0  0.9477973612724292  0.6107825186959659  0.7423052524779914  1.0000
  C   C27       1.0  0.8901882431118425  0.5415817185115199  0.822109473070161  1.0000
  N   N3        1.0  0.05013867397844641  0.7837727522615598  0.028326245839303873  1.0000
  H   H15       1.0  0.7766185391662987  0.2730299659584459  0.10142400878027025  1.0000
  H   H16       1.0  0.9388597373417671  0.6383388306152415  0.1567371186076012  1.0000
  H   H17       1.0  0.043787582254284335  0.7433779878211062  0.7460558007357481  1.0000
  H   H18       1.0  0.9511693509553291  0.6065944401429517  0.6260643680568134  1.0000
  H   H19       1.0  0.8132069085825717  0.36014995166375185  0.5567255707052774  1.0000
  H   H20       1.0  0.04790883652265099  0.7929325728073994  0.13976065059591947  1.0000
  H   H21       1.0  0.09247829847621136  0.8361304599551567  0.9685546771630786  1.0000
  Zn  Zn1       1.0  0.8064825418322707  0.5496642528905086  0.3996847324899573  1.0000
  Zn  Zn2       1.0  0.9711506866789704  0.541018850809727  0.39696874197565024  1.0000
  C   C28       1.0  0.8896997222237603  0.5372570386050943  0.6618834424302253  1.0000
  C   C29       1.0  0.8879352953104135  0.5534277893897566  0.1347701497648166  1.0000
  C   C30       1.0  0.8874073954222439  0.8088341292900249  0.3934080143813734  1.0000
  C   C31       1.0  0.8902275753168247  0.28184896799744896  0.4032456502085153  1.0000
  O   O2        1.0  0.950588171838931  0.551592501034024  0.18751260200351738  1.0000
  O   O3        1.0  0.9520261618743066  0.53252958236394  0.6070791973767871  1.0000
  O   O4        1.0  0.9501742414311467  0.7518315485674734  0.3902834083484614  1.0000
  O   O5        1.0  0.9524400356882492  0.3322905490589392  0.4043082837871097  1.0000
  O   O6        1.0  0.8251931366298031  0.7583925575931849  0.39234519159774606  1.0000
  O   O7        1.0  0.8270450476748795  0.5390923250489177  0.6091409091504736  1.0000
  O   O8        1.0  0.8256070523537403  0.5581552088461115  0.1895725785674478  1.0000
  O   O9        1.0  0.8274589166037108  0.3388532455944675  0.4063683685150221  1.0000
