data_image0
_chemical_formula_structural       NC6NC3H6C10H5C8H9Zn2C4O8
_chemical_formula_sum              "N2 C31 H20 Zn2 O8"
_cell_length_a       14.934028789175542
_cell_length_b       9.275150299802176
_cell_length_c       9.275657083861812
_cell_angle_alpha    85.52524859498646
_cell_angle_beta     89.47814586950791
_cell_angle_gamma    89.44625895822752

_space_group_name_H-M_alt    "P 1"
_space_group_IT_number       1

loop_
  _space_group_symop_operation_xyz
  'x, y, z'

loop_
  _atom_site_type_symbol
  _atom_site_label
  _atom_site_symmetry_multiplicity
  _atom_site_fract_x
  _atom_site_fract_y
  _atom_site_fract_z
  _atom_site_occupancy
  N   N1        1.0  0.8430235487546025  0.56999941253231  0.40048764629018974  1.0000
  C   C1        1.0  0.7655472676033036  0.5688972417788531  0.39981502796941726  1.0000
  C   C2        1.0  0.6691629124036556  0.5675210747506263  0.39897539087789013  1.0000
  C   C3        1.0  0.6204521960590981  0.6746973321189287  0.46425988217405384  1.0000
  C   C4        1.0  0.5269502468140388  0.6735923712347267  0.46358668575412093  1.0000
  C   C5        1.0  0.48124597991264667  0.5653658490218019  0.39766251505336286  1.0000
  C   C6        1.0  0.38457966250129466  0.5676879649958047  0.3990782792546099  1.0000
  N   N2        1.0  0.3070832324807228  0.5695308584730318  0.40020219499225496  1.0000
  C   C7        1.0  0.529964246034348  0.4567068287229432  0.33147427218226544  1.0000
  C   C8        1.0  0.4826889340529179  0.3390421087231408  0.259802226033772  1.0000
  C   C9        1.0  0.6240872891361368  0.45893929612888046  0.33283419181632756  1.0000
  H   H1        1.0  0.654749411715607  0.7591422843136533  0.5156985949436657  1.0000
  H   H2        1.0  0.4901732714792565  0.7573869740954609  0.5146291061543842  1.0000
  H   H3        1.0  0.4401461818735244  0.387680129530326  0.17091615020665477  1.0000
  H   H4        1.0  0.43986003109525207  0.276578209927006  0.34027316456787493  1.0000
  H   H5        1.0  0.5308220398093811  0.2628289372207848  0.213371904586956  1.0000
  H   H6        1.0  0.662347461275139  0.3762594127394123  0.28247107307968955  1.0000
  C   C10       1.0  0.07740727265486401  0.14606959901190808  0.40275674087530594  1.0000
  C   C11       1.0  0.1250881563759132  0.22751390701022697  0.2936687175884716  1.0000
  C   C12       1.0  0.1651196930520833  0.16073587787663413  0.17904317941429704  1.0000
  C   C13       1.0  0.15787825407433131  0.011539663566328736  0.17202930166847732  1.0000
  C   C14       1.0  0.11215580582288823  0.9286462130377933  0.2804682561360703  1.0000
  C   C15       1.0  0.07270807872397797  0.9934495754654574  0.39794561160939157  1.0000
  C   C16       1.0  0.21282495984079153  0.24590950351530805  0.06746162513459897  1.0000
  C   C17       1.0  0.25276629755090574  0.3172449221385232  0.9740446062068102  1.0000
  C   C18       1.0  0.2995357519548205  0.40078366183897124  0.8646573512273085  1.0000
  C   C19       1.0  0.3394693890254743  0.4721136979517939  0.7712582397125929  1.0000
  H   H7        1.0  0.12937843400127913  0.34396936641281384  0.2958930175512229  1.0000
  H   H8        1.0  0.18837527765222306  0.9589086944522724  0.08333351330771799  1.0000
  H   H9        1.0  0.10945104837081887  0.8126169491241926  0.2742463504781285  1.0000
  H   H10       1.0  0.01266771418950774  0.8647968197248922  0.7404813207787755  1.0000
  H   H11       1.0  0.37453445315451406  0.5347475261452759  0.6892461055076846  1.0000
  C   C20       1.0  0.07735065524163096  0.5675822777858206  0.9770422401777493  1.0000
  C   C21       1.0  0.12312548966167419  0.6775209930966226  0.041329624438419595  1.0000
  C   C22       1.0  0.16095937944329947  0.7936429812566393  0.9569078450164086  1.0000
  C   C23       1.0  0.15435286837808337  0.7988405691303975  0.806243532368828  1.0000
  C   C24       1.0  0.11050848146009495  0.6895458890237207  0.7404986868219092  1.0000
  C   C25       1.0  0.07276471981552501  0.5719369079529939  0.8236601349215397  1.0000
  C   C26       1.0  0.21084241565860773  0.909293257914327  0.027419748513104473  1.0000
  C   C27       1.0  0.3094269745618956  0.8680228390791581  0.045437613216753325  1.0000
  H   H12       1.0  0.12777013624077216  0.6748413747181841  0.1580669897218565  1.0000
  H   H13       1.0  0.18405172959081284  0.8869945861111784  0.7393380476950925  1.0000
  H   H14       1.0  0.10817300473584265  0.6951709692384584  0.6234938598687068  1.0000
  H   H15       1.0  0.9679613023765484  0.4057575921424856  0.5568348965953613  1.0000
  H   H16       1.0  0.2053576395455582  0.01404255969942536  0.9609877522807309  1.0000
  H   H17       1.0  0.18096910646703712  0.9256639988008118  0.1352217874188517  1.0000
  H   H18       1.0  0.31637072442613223  0.7653761420062979  0.11476463504938539  1.0000
  H   H19       1.0  0.3410123254267151  0.8547120671344045  0.9383188089667636  1.0000
  H   H20       1.0  0.3449565986942924  0.9545973031800723  0.09749032153648973  1.0000
  Zn  Zn1       1.0  0.9769411391347876  0.5698603744028097  0.4004136111323775  1.0000
  Zn  Zn2       1.0  0.17316567386888465  0.569658138406386  0.4002880826225228  1.0000
  C   C28       1.0  0.07366143925955049  0.565365919544553  0.6636638374317668  1.0000
  C   C29       1.0  0.07644750564801805  0.5741544122674772  0.1370379861005122  1.0000
  C   C30       1.0  0.07362285545919489  0.8332472025086332  0.39311071880421156  1.0000
  C   C31       1.0  0.07648603168738455  0.3062713962932943  0.40759119146593936  1.0000
  O   O1        1.0  0.15061062359949173  0.5762770385703104  0.1906864183344501  1.0000
  O   O2        1.0  0.14842821112839136  0.5630887102074436  0.6099197231845299  1.0000
  O   O3        1.0  0.14839604226269754  0.7794062427663753  0.39144615780898917  1.0000
  O   O4        1.0  0.1506427260352683  0.3599595158457616  0.40915987561103906  1.0000
  O   O5        1.0  0.9994640200066327  0.7795589970339789  0.3915418181791068  1.0000
  O   O6        1.0  0.9994961796715449  0.5632431975556955  0.6100152968520207  1.0000
  O   O7        1.0  0.0016786018688828006  0.5764314667253584  0.1907802591758494  1.0000
  O   O8        1.0  0.00171070377280569  0.3601139342369717  0.4092538245866353  1.0000
