data_image0
_chemical_formula_structural       NC9NC5H8C7OC4NC3H8C7OC6H10Zn2C4O8
_chemical_formula_sum              "N3 C45 H26 O10 Zn2"
_cell_length_a       17.807436237873137
_cell_length_b       10.299371701877256
_cell_length_c       10.299382801718284
_cell_angle_alpha    85.59153606020502
_cell_angle_beta     89.37299496534969
_cell_angle_gamma    88.40037932452064

_space_group_name_H-M_alt    "P 1"
_space_group_IT_number       1

loop_
  _space_group_symop_operation_xyz
  'x, y, z'

loop_
  _atom_site_type_symbol
  _atom_site_label
  _atom_site_symmetry_multiplicity
  _atom_site_fract_x
  _atom_site_fract_y
  _atom_site_fract_z
  _atom_site_occupancy
  N   N1        1.0  0.7078382756385099  0.3874707064092811  0.5576011630746671  1.0000
  C   C1        1.0  0.647249302091443  0.3522789182127131  0.5465649732699581  1.0000
  C   C2        1.0  0.5718832782938637  0.3085042092153054  0.532837151468513  1.0000
  C   C3        1.0  0.5538052214320129  0.2370688578139903  0.4278088560333839  1.0000
  C   C4        1.0  0.4806287060856218  0.19445547652736672  0.4143973584209082  1.0000
  C   C5        1.0  0.4244814966947629  0.2228999115958519  0.5059815735001336  1.0000
  C   C6        1.0  0.3467137200967075  0.1777277945366389  0.4918107394566029  1.0000
  C   C7        1.0  0.2845406572457609  0.2594888156123367  0.5177781659444223  1.0000
  C   C8        1.0  0.2112218134747872  0.21667239940441596  0.5043802791540927  1.0000
  C   C9        1.0  0.1479988657753248  0.3011248367824251  0.5307125439725369  1.0000
  N   N2        1.0  0.0971806036605834  0.36901875389067734  0.5518829563688676  1.0000
  C   C10       1.0  0.1994924661847477  0.09183697786432798  0.46498952652104464  1.0000
  C   C11       1.0  0.2608081594435417  0.010062102890641583  0.439013705477514  1.0000
  C   C12       1.0  0.3340075705950191  0.05248393955697206  0.45220891576123856  1.0000
  C   C13       1.0  0.44325096563351635  0.2948296708872633  0.6112292714115624  1.0000
  C   C14       1.0  0.5164803634324159  0.3372526279121826  0.6244850512214686  1.0000
  H   H1        1.0  0.5962119673433  0.21456970906325717  0.3560878282003703  1.0000
  H   H2        1.0  0.4677269822824674  0.14075717329614257  0.3314577412474302  1.0000
  H   H3        1.0  0.2930424462424604  0.3569590717637181  0.5466891706649033  1.0000
  H   H4        1.0  0.143026032065376  0.057798954182114004  0.4543827789116219  1.0000
  H   H5        1.0  0.2516083466781568  0.9134117099557867  0.4089025656806593  1.0000
  H   H6        1.0  0.3806454026418824  0.986735368548196  0.4331376066818349  1.0000
  H   H7        1.0  0.4015607894814046  0.31679002418959834  0.6842446194421972  1.0000
  H   H8        1.0  0.5299107675262271  0.39217131042324715  0.7063834576699256  1.0000
  C   C15       1.0  0.902473757326336  0.9968759778632953  0.5546156129965094  1.0000
  C   C16       1.0  0.9061508814728763  0.00601744977359697  0.4178992868359317  1.0000
  C   C17       1.0  0.9071524891484803  0.8934996583822127  0.3488934925840357  1.0000
  C   C18       1.0  0.9061601121116478  0.7707487549697902  0.4182165411674291  1.0000
  C   C19       1.0  0.9025522960763638  0.7596031624985566  0.5548796665798228  1.0000
  C   C20       1.0  0.9005323382235116  0.8732766066595748  0.6222755433766897  1.0000
  C   C21       1.0  0.9118242593048103  0.9029712833686323  0.20457760746272058  1.0000
  O   O1        1.0  0.9479930608483529  0.815500218457435  0.14910157196052262  1.0000
  C   C22       1.0  0.8754521300459037  0.011593254028112957  0.12320115205013325  1.0000
  C   C23       1.0  0.9076510628980612  0.05468947513947531  0.0027602419452725747  1.0000
  C   C24       1.0  0.8732596803328362  0.15620808759204016  0.924476040791189  1.0000
  C   C25       1.0  0.9069164933900188  0.20041886485575586  0.8018276112060496  1.0000
  N   N3        1.0  0.9339750701134095  0.235954774718097  0.7032360098658267  1.0000
  C   C26       1.0  0.8061086820004159  0.21457636696833204  0.9656333542416982  1.0000
  C   C27       1.0  0.7732759050331809  0.1712992383551868  0.08434405635331776  1.0000
  C   C28       1.0  0.8074515870740877  0.07008832083900907  0.16262002804479778  1.0000
  H   H9        1.0  0.9090817000439859  0.10079255038046164  0.36497061365006256  1.0000
  H   H10       1.0  0.9074890483564809  0.6838384932726584  0.3651857604437414  1.0000
  H   H11       1.0  0.8976979551759289  0.8654252886893306  0.7276740799583008  1.0000
  H   H12       1.0  0.9017986467020374  0.42783116193379933  0.6074150169969551  1.0000
  H   H13       1.0  0.9597566838418715  0.010123097556831835  0.9704186848760873  1.0000
  H   H14       1.0  0.7790380783127546  0.2930644558231481  0.9057925773266535  1.0000
  H   H15       1.0  0.7210422330057813  0.21588765770756702  0.1155345095947522  1.0000
  H   H16       1.0  0.7802923601457981  0.03668217172667033  0.25317354483587806  1.0000
  C   C29       1.0  0.9025879598534771  0.3781628046062381  0.1733767280039615  1.0000
  C   C30       1.0  0.9815133114113828  0.375285798989797  0.1709142200985327  1.0000
  C   C31       1.0  0.021320867368226804  0.37234664441888077  0.05261357021529589  1.0000
  C   C32       1.0  0.9813302444610387  0.375322511822221  0.9356713498098722  1.0000
  C   C33       1.0  0.9024380618641106  0.3783163646257908  0.9361185145940314  1.0000
  C   C34       1.0  0.8635245143410676  0.37937442351600703  0.055530188635783295  1.0000
  C   C35       1.0  0.10465592205090354  0.37069285063147683  0.04976195954310514  1.0000
  O   O2        1.0  0.13776328932962278  0.4298328639542359  0.9547699770261096  1.0000
  C   C36       1.0  0.15043250967121757  0.30193998797704075  0.15457266332895636  1.0000
  C   C37       1.0  0.22105063337677547  0.3490531568455628  0.18465448043223764  1.0000
  C   C38       1.0  0.2649953433470402  0.28403643760243336  0.28224160265772036  1.0000
  C   C39       1.0  0.23924185731237313  0.17095304572724013  0.34994402773092914  1.0000
  C   C40       1.0  0.16961978581750592  0.12234570416191647  0.3198240598059394  1.0000
  C   C41       1.0  0.12546102379466206  0.1869938543917826  0.22234201031625211  1.0000
  H   H17       1.0  0.7536442139785108  0.3856038352296299  0.3851890890235503  1.0000
  H   H18       1.0  0.012119259203531964  0.37678578832484777  0.2610645900859663  1.0000
  H   H19       1.0  0.011943618219168119  0.3740430163407479  0.8442703173626981  1.0000
  H   H20       1.0  0.8026790150157975  0.38159317678478355  0.056624361669617804  1.0000
  H   H21       1.0  0.8721312787086041  0.3805714464752852  0.6087488674023231  1.0000
  H   H22       1.0  0.241917036628714  0.43673755233383926  0.1334433787607303  1.0000
  H   H23       1.0  0.3190772564710197  0.3213572229007393  0.3053338789241036  1.0000
  H   H24       1.0  0.2733646058731198  0.12070847302701802  0.42536936216128307  1.0000
  H   H25       1.0  0.1499761846188139  0.03414744691245631  0.371645806006561  1.0000
  H   H26       1.0  0.0722808594813955  0.14634815418920333  0.19904912780099404  1.0000
  Zn  Zn1       1.0  0.8201940582229627  0.38214240772539054  0.5559585217714705  1.0000
  Zn  Zn2       1.0  0.9848247996910876  0.37433646855881375  0.5535362706750273  1.0000
  C   C42       1.0  0.9024642097792333  0.37311373627552946  0.7919422515299137  1.0000
  C   C43       1.0  0.9025564460410739  0.3833666934119262  0.31755264250009074  1.0000
  C   C44       1.0  0.9025345986117924  0.6154306462741268  0.5496546164606164  1.0000
  C   C45       1.0  0.9024860008572841  0.14104822578962373  0.5598403470947457  1.0000
  O   O3        1.0  0.9650223775411932  0.3821451870638595  0.3650201628393104  1.0000
  O   O4        1.0  0.964949201729942  0.36840973561636403  0.7426359244683917  1.0000
  O   O5        1.0  0.9650051991238713  0.5640837451610698  0.5469869577840771  1.0000
  O   O6        1.0  0.9649663239900332  0.18647118945340324  0.5606690329782131  1.0000
  O   O7        1.0  0.8400524777436258  0.5700076894959976  0.5488257602880496  1.0000
  O   O8        1.0  0.8399964805205362  0.37433524024019316  0.7444746582667714  1.0000
  O   O9        1.0  0.8400696566838898  0.38807064611505815  0.3668573352124156  1.0000
  O   O10       1.0  0.8400136031095696  0.19239663923554898  0.5625063027164958  1.0000
