data_image0
_chemical_formula_structural       NC5NC3H4C7NH5C6NH7Zn2C4O8
_chemical_formula_sum              "N4 C25 H16 Zn2 O8"
_cell_length_a       13.859018345313864
_cell_length_b       9.275154477615127
_cell_length_c       9.274774538082514
_cell_angle_alpha    85.29330631285735
_cell_angle_beta     90.34966595504997
_cell_angle_gamma    89.43370600770291

_space_group_name_H-M_alt    "P 1"
_space_group_IT_number       1

loop_
  _space_group_symop_operation_xyz
  'x, y, z'

loop_
  _atom_site_type_symbol
  _atom_site_label
  _atom_site_symmetry_multiplicity
  _atom_site_fract_x
  _atom_site_fract_y
  _atom_site_fract_z
  _atom_site_occupancy
  N   N1        1.0  0.8915858930349555  0.5916841243354882  0.41436756584307943  1.0000
  C   C1        1.0  0.8197047397214322  0.5517063134863389  0.465525564557828  1.0000
  C   C2        1.0  0.7302887703242353  0.5019792710803803  0.529159310249252  1.0000
  C   C3        1.0  0.6420995867631989  0.5504573104284461  0.4671242021380635  1.0000
  C   C4        1.0  0.5550584672492551  0.5019789818073095  0.5291591833963749  1.0000
  C   C5        1.0  0.4644648604362877  0.5517062016773631  0.4655254666825106  1.0000
  N   N2        1.0  0.39163699041484495  0.5916840910474994  0.41436749660013206  1.0000
  C   C6        1.0  0.5563891815310852  0.40500827425500807  0.6532478340607284  1.0000
  C   C7        1.0  0.6443936144711571  0.35671684817849064  0.7150442164193629  1.0000
  C   C8        1.0  0.7312545239816649  0.40500856756324344  0.6532480391313473  1.0000
  H   H1        1.0  0.6412107844329427  0.6255152824843204  0.37107624897232644  1.0000
  H   H2        1.0  0.489545522064868  0.3668511036671265  0.7020752722666264  1.0000
  H   H3        1.0  0.6452805503795336  0.2818112557142901  0.8108973666602071  1.0000
  H   H4        1.0  0.7990017819994167  0.3668516297770098  0.7020757001811782  1.0000
  C   C9        1.0  0.14440129090488685  0.16830932089538964  0.41269752891311073  1.0000
  C   C10       1.0  0.11738909951438226  0.2525955482249507  0.28545286209532  1.0000
  C   C11       1.0  0.0825565127323773  0.18760562020732668  0.1649485355399371  1.0000
  C   C12       1.0  0.0741649237210753  0.037438798098828  0.17026967607098298  1.0000
  C   C13       1.0  0.10205938410414905  0.9519701319527519  0.29461390195118997  1.0000
  C   C14       1.0  0.13883093811467195  0.01504766995259277  0.416050050311393  1.0000
  C   C15       1.0  0.05425426990629734  0.2754870039455648  0.036170238731573864  1.0000
  N   N3        1.0  0.03150710589450044  0.3461274434206876  0.932665474361702  1.0000
  H   H5        1.0  0.16457785212935572  0.24189811868177025  0.7669447312996287  1.0000
  H   H6        1.0  0.12131188864420972  0.36959220578806506  0.28117077963573855  1.0000
  H   H7        1.0  0.04687976083886691  0.9861180581939569  0.07765453287105761  1.0000
  H   H8        1.0  0.09699214901944098  0.8355036417082355  0.2944868949342502  1.0000
  H   H9        1.0  0.1565060958641371  0.7142122222651053  0.6534057521066516  1.0000
  C   C16       1.0  0.13986021605163912  0.5953659340919775  0.990572052900366  1.0000
  C   C17       1.0  0.20767078931141936  0.6804454072704813  0.05764540926319106  1.0000
  C   C18       1.0  0.2798882812435101  0.753648716225572  0.9771703178935365  1.0000
  C   C19       1.0  0.2848818134165787  0.7421045553826968  0.8281471956808566  1.0000
  C   C20       1.0  0.21735991234343932  0.6602010786238834  0.7593838513921876  1.0000
  C   C21       1.0  0.14337199923302024  0.5879909950513891  0.8381754795101903  1.0000
  N   N4        1.0  0.3488078749998209  0.8385276125482218  0.04724812516169564  1.0000
  H   H10       1.0  0.9974867741843199  0.3135321936758407  0.1153765214947997  1.0000
  H   H11       1.0  0.2058889566369999  0.6872831602312488  0.17369261135697123  1.0000
  H   H12       1.0  0.34064450806835267  0.7978073908941925  0.7648369628763747  1.0000
  H   H13       1.0  0.22168892923900266  0.6561907241481464  0.643194923341995  1.0000
  H   H14       1.0  0.04448624752417118  0.4025551177614632  0.5713595145644232  1.0000
  H   H15       1.0  0.34594645991639617  0.8475686786161221  0.15865384442106767  1.0000
  H   H16       1.0  0.403185340874481  0.8930966946041068  0.9882220882809198  1.0000
  Zn  Zn1       1.0  0.03588989648925378  0.5916801722566921  0.4143758738819865  1.0000
  Zn  Zn2       1.0  0.24733309038201035  0.5916761076798105  0.4143709951649445  1.0000
  C   C22       1.0  0.14274383425525294  0.5836415153356591  0.6779375442672604  1.0000
  C   C23       1.0  0.14048145018881808  0.5997165824289387  0.1508094735776828  1.0000
  C   C24       1.0  0.1398550550291932  0.8550461176947376  0.4096653324851478  1.0000
  C   C25       1.0  0.14337016897809274  0.32831024724004026  0.41908175544576787  1.0000
  O   O1        1.0  0.2209315735552082  0.6011688674755713  0.20458473939313634  1.0000
  O   O2        1.0  0.22277420802484982  0.582185061350126  0.6241581558704015  1.0000
  O   O3        1.0  0.220440406788603  0.8013476970987283  0.4075264527462209  1.0000
  O   O4        1.0  0.2232653021240354  0.382006242983362  0.42121633435080896  1.0000
  O   O5        1.0  0.05995761259200226  0.8013500369561635  0.40753053469020173  1.0000
  O   O6        1.0  0.06229140210980754  0.5821891340404033  0.62416216772249  1.0000
  O   O7        1.0  0.06044876084586391  0.6011729050223347  0.20458701591724224  1.0000
  O   O8        1.0  0.06278248992688362  0.3820102692767549  0.4212187190355028  1.0000
