data_image0
_chemical_formula_structural       NC8NH4C6ClH5C7F3H5Zn2C4O8
_chemical_formula_sum              "N2 C25 H14 Cl1 F3 Zn2 O8"
_cell_length_a       13.859017981522156
_cell_length_b       9.276545438789551
_cell_length_c       9.272721663655243
_cell_angle_alpha    85.91497059500672
_cell_angle_beta     90.5161758670597
_cell_angle_gamma    89.4096370293992

_space_group_name_H-M_alt    "P 1"
_space_group_IT_number       1

loop_
  _space_group_symop_operation_xyz
  'x, y, z'

loop_
  _atom_site_type_symbol
  _atom_site_label
  _atom_site_symmetry_multiplicity
  _atom_site_fract_x
  _atom_site_fract_y
  _atom_site_fract_z
  _atom_site_occupancy
  N   N1        1.0  0.8881849708174082  0.5692796042933335  0.41037095467382834  1.0000
  C   C1        1.0  0.8155114786970485  0.5619110842395736  0.3490315477072855  1.0000
  C   C2        1.0  0.7251099681823149  0.5527459815743119  0.27273330721674793  1.0000
  C   C3        1.0  0.7241539528543592  0.5348731448317896  0.12394799494631159  1.0000
  C   C4        1.0  0.6363360755977268  0.5259735006195869  0.049852598245694976  1.0000
  C   C5        1.0  0.5492886635428227  0.5348748656348343  0.12394774757200341  1.0000
  C   C6        1.0  0.549879723482601  0.5527469537261176  0.27273312393415383  1.0000
  C   C7        1.0  0.6378816285090805  0.561681365706278  0.347114628124142  1.0000
  C   C8        1.0  0.4602716542596607  0.5619119865734996  0.34903130772889907  1.0000
  N   N2        1.0  0.3882360524300701  0.5692799172271803  0.4103708612213024  1.0000
  H   H1        1.0  0.7911450489594721  0.527840050522898  0.0654025438710304  1.0000
  H   H2        1.0  0.6357385008749232  0.5121677621442617  0.9349223466819279  1.0000
  H   H3        1.0  0.4816887553630284  0.5278431456208468  0.0654021255893511  1.0000
  H   H4        1.0  0.6384804117689352  0.5755149468583172  0.4622785403743059  1.0000
  C   C9        1.0  0.14112580247815165  0.14584332068137007  0.410133200225996  1.0000
  C   C10       1.0  0.1406846036388234  0.22875971358042846  0.2770399385161683  1.0000
  C   C11       1.0  0.13148250682606744  0.16296123955295672  0.1468434770564555  1.0000
  C   C12       1.0  0.12251024876398686  0.01337502711506811  0.14773723670813577  1.0000
  C   C13       1.0  0.12442529887917986  0.9289067275856508  0.27838756963164  1.0000
  C   C14       1.0  0.1353046361414283  0.9927052389543833  0.41062108356495597  1.0000
  Cl  Cl1       1.0  0.12973744092550876  0.2686734413928167  0.9822221039411912  1.0000
  H   H5        1.0  0.1918478661154972  0.41005447216044066  0.6368386947112367  1.0000
  H   H6        1.0  0.14518851102870795  0.34546451461560723  0.27418503592848875  1.0000
  H   H7        1.0  0.1149689779657932  0.9620971026096344  0.047009479975963275  1.0000
  H   H8        1.0  0.1196919909801295  0.8126316143336649  0.27573602713550427  1.0000
  H   H9        1.0  0.10437202815243851  0.695257448500159  0.6437907557527556  1.0000
  C   C15       1.0  0.13567832506589372  0.5669355212865945  0.9869325634168947  1.0000
  C   C16       1.0  0.1775549788072337  0.4489931239238396  0.06958694732368295  1.0000
  C   C17       1.0  0.22782967108316665  0.3396277036931217  0.0036189273723166164  1.0000
  C   C18       1.0  0.23328472751213836  0.3462676914273708  0.8524729326835763  1.0000
  C   C19       1.0  0.1908568629132821  0.4612079432779743  0.7688485174025481  1.0000
  C   C20       1.0  0.14075211265443952  0.5716130196228162  0.8338216850757483  1.0000
  C   C21       1.0  0.2700001584133709  0.21214904449305427  0.09389283430069195  1.0000
  F   F1        1.0  0.30220666625658327  0.2540572915438981  0.22614992054876712  1.0000
  F   F2        1.0  0.34732296620868186  0.15250635947564728  0.02473854325639557  1.0000
  F   F3        1.0  0.19987481789467904  0.10835793798432425  0.1168687630737506  1.0000
  H   H10       1.0  0.07215593859717062  0.9103022704403488  0.06334977934759123  1.0000
  H   H11       1.0  0.1727723049917167  0.44387034325935376  0.1864296306100235  1.0000
  H   H12       1.0  0.26953068952614445  0.26156313291830346  0.7985162676945876  1.0000
  H   H13       1.0  0.19498835197945752  0.46166912045647396  0.6521941647989666  1.0000
  H   H14       1.0  0.9659268370496864  0.8148185013300645  0.7126709810318865  1.0000
  Zn  Zn1       1.0  0.03248899359807346  0.5692758900756287  0.410379248726905  1.0000
  Zn  Zn2       1.0  0.24393218390616395  0.5692719316981223  0.4103743585543065  1.0000
  C   C22       1.0  0.13983037185192448  0.5649844841243692  0.6737382153628576  1.0000
  C   C23       1.0  0.1365931029472345  0.5735651577582279  0.14701553444264334  1.0000
  C   C24       1.0  0.1363655496165057  0.8325985400563627  0.404782714681894  1.0000
  C   C25       1.0  0.14005786540078335  0.30594936983770205  0.415971111004833  1.0000
  O   O1        1.0  0.21714174277859977  0.5757823314260053  0.200738982475841  1.0000
  O   O2        1.0  0.21976222599247852  0.5627632160545422  0.6200106400834324  1.0000
  O   O3        1.0  0.21696326550651368  0.778864958962725  0.4028271712675221  1.0000
  O   O4        1.0  0.21994063039468315  0.35968059823702103  0.41792234318154575  1.0000
  O   O5        1.0  0.05648047495431443  0.7788672235396086  0.40283126409375103  1.0000
  O   O6        1.0  0.059279423066910274  0.5627672126228365  0.6200146570225202  1.0000
  O   O7        1.0  0.05665892987609644  0.5757862681710324  0.2007412657191303  1.0000
  O   O8        1.0  0.05945781820682172  0.3596845252657279  0.4179247345291258  1.0000
