data_image0
_chemical_formula_structural       NC6NC2H4C12H8C12H9Zn2C4O8
_chemical_formula_sum              "N2 C36 H21 Zn2 O8"
_cell_length_a       14.927258858638513
_cell_length_b       14.994057918209652
_cell_length_c       14.388129018870242
_cell_angle_alpha    83.27612054347796
_cell_angle_beta     90.8946685499874
_cell_angle_gamma    89.9901835886132

_space_group_name_H-M_alt    "P 1"
_space_group_IT_number       1

loop_
  _space_group_symop_operation_xyz
  'x, y, z'

loop_
  _atom_site_type_symbol
  _atom_site_label
  _atom_site_symmetry_multiplicity
  _atom_site_fract_x
  _atom_site_fract_y
  _atom_site_fract_z
  _atom_site_occupancy
  N   N1        1.0  0.8278991269089733  0.015864111301088692  0.9704827320725293  1.0000
  C   C1        1.0  0.7503726358475553  0.01586409340151062  0.9704827389275288  1.0000
  C   C2        1.0  0.6539401278049845  0.015864165841976034  0.9704827066479711  1.0000
  C   C3        1.0  0.605655161868575  0.0043610780670793065  0.8884533166711652  1.0000
  C   C4        1.0  0.5119438492211982  0.0043610972460201855  0.888453230258758  1.0000
  C   C5        1.0  0.4661240640137021  0.015864055545790075  0.9704827187032337  1.0000
  C   C6        1.0  0.3696914889795371  0.015864127988236554  0.9704826864198399  1.0000
  N   N2        1.0  0.29216499791811956  0.015864110088658512  0.9704826932748394  1.0000
  C   C7        1.0  0.5144089629585175  0.027367143322668538  0.05251210867620348  1.0000
  C   C8        1.0  0.6081202756058938  0.027367124143727214  0.052512195088610936  1.0000
  H   H1        1.0  0.6403923318843232  0.9954110304137068  0.8246297433771907  1.0000
  H   H2        1.0  0.4752886763042006  0.9954111527335043  0.8246297401895475  1.0000
  H   H3        1.0  0.47967186098545206  0.036317181904338414  0.11633575195431123  1.0000
  H   H4        1.0  0.6447754495830844  0.036317126126361704  0.11633575640485494  1.0000
  C   C9        1.0  0.060073537465793046  0.7538962837107761  0.9704730970167228  1.0000
  C   C10       1.0  0.11281317913842286  0.6989610674643993  0.03572201433894551  1.0000
  C   C11       1.0  0.11276894117135174  0.6057359371416647  0.03576064336287177  1.0000
  C   C12       1.0  0.06006065378256564  0.565393442864209  0.9705227890151744  1.0000
  C   C13       1.0  0.0073716158993570825  0.6204277687474874  0.9052765330763333  1.0000
  C   C14       1.0  0.007357642900396762  0.7136510313698585  0.9052873229247487  1.0000
  C   C15       1.0  0.060039799554882256  0.4663186478763686  0.9705304530474608  1.0000
  C   C16       1.0  0.06014310482466592  0.4281397625907094  0.8858349668252847  1.0000
  C   C17       1.0  0.060160778711122964  0.334915402512872  0.8858341881629117  1.0000
  C   C18       1.0  0.059999323802257365  0.27782474088501546  0.9705004093743415  1.0000
  C   C19       1.0  0.05985850774796053  0.3159003020522429  0.05523089699782657  1.0000
  C   C20       1.0  0.059916471083877126  0.409121030463292  0.055231891508176756  1.0000
  H   H5        1.0  0.1543671257148327  0.7279908971724042  0.08669181500073342  1.0000
  H   H6        1.0  0.15496993000673964  0.565270169800726  0.08611082890302502  1.0000
  H   H7        1.0  0.9651568541983261  0.5912945546259707  0.8549346990861442  1.0000
  H   H8        1.0  0.9658111624413348  0.7541223150702981  0.8543030980351407  1.0000
  H   H9        1.0  0.06142696420009641  0.4703925869074633  0.8194678775373399  1.0000
  H   H10       1.0  0.06053047551042503  0.3076426252708879  0.8194076245576523  1.0000
  H   H11       1.0  0.05947420052090882  0.2736743180258314  0.12165116393792486  1.0000
  H   H12       1.0  0.058648282689679254  0.43646641662928826  0.12159657767500731  1.0000
  C   C21       1.0  0.055908721615910005  0.026393172799717073  0.6963876501463959  1.0000
  C   C22       1.0  0.022712102407798765  0.11102189226999613  0.7119308788163172  1.0000
  C   C23       1.0  0.9981281446473026  0.17392772045143576  0.636548177043575  1.0000
  C   C24       1.0  0.006283628037980329  0.15332995213180614  0.5449303948942683  1.0000
  C   C25       1.0  0.039230442460729514  0.06912793627856306  0.5275652665160062  1.0000
  C   C26       1.0  0.04781942648311402  0.04712657563264799  0.4300785957379538  1.0000
  C   C27       1.0  0.07988319061439353  0.11140140056940194  0.3594755647069485  1.0000
  C   C28       1.0  0.08800503946413252  0.09070340895952178  0.26774482059684224  1.0000
  C   C29       1.0  0.06416408514742278  0.005327870856988158  0.2445858862618735  1.0000
  C   C30       1.0  0.032035186258728254  0.9410208042425279  0.31509801295231304  1.0000
  C   C31       1.0  0.0239827690069543  0.961697407906308  0.40683936791433517  1.0000
  C   C32       1.0  0.0639385451237442  0.006021861275492081  0.603906801400732  1.0000
  H   H13       1.0  0.13322682864295235  0.8295594592908795  0.8142322681820864  1.0000
  H   H14       1.0  0.015714542808517917  0.12865646019083443  0.7823222061405523  1.0000
  H   H15       1.0  0.9724053384908133  0.23885015335298587  0.6491965114654539  1.0000
  H   H16       1.0  0.9856978010406227  0.202819355886804  0.48768099034255163  1.0000
  H   H17       1.0  0.09984361497401766  0.17741974194206844  0.37543245344344456  1.0000
  H   H18       1.0  0.113197304387473  0.14161527473042912  0.2150533019035612  1.0000
  H   H19       1.0  0.01285744006874334  0.8746966884987535  0.2993937214933089  1.0000
  H   H20       1.0  0.9979381629732756  0.9111457002134745  0.4593954938199992  1.0000
  H   H21       1.0  0.09058384406175413  0.9414699762880158  0.5910981897154459  1.0000
  Zn  Zn1       1.0  0.9618763181257363  0.015861513294228604  0.9704881141430945  1.0000
  Zn  Zn2       1.0  0.15818793392349462  0.015859106782565288  0.9704849675905547  1.0000
  C   C33       1.0  0.06260217203473695  0.005755782559935032  0.14096447510975219  1.0000
  C   C34       1.0  0.05746422495135817  0.02596595956100336  0.8000086982614589  1.0000
  C   C35       1.0  0.05995270732219021  0.1789340444431331  0.966775728761291  1.0000
  C   C36       1.0  0.06011362357773666  0.8527866239726464  0.974197494318598  1.0000
  O   O1        1.0  0.13248550174056514  0.025817777759499887  0.8347836742956316  1.0000
  O   O2        1.0  0.1365768653435273  0.005901475214518116  0.10618684218769114  1.0000
  O   O3        1.0  0.1344363994114366  0.14574507454070407  0.9655281971614891  1.0000
  O   O4        1.0  0.13462589962997343  0.8859741875050152  0.9754422493377005  1.0000
  O   O5        1.0  0.9854382854276633  0.14574643257375938  0.9655308323921135  1.0000
  O   O6        1.0  0.9875787504543291  0.005903906954713539  0.10618942770580209  1.0000
  O   O7        1.0  0.9834873700157377  0.02582022153554098  0.8347851375955098  1.0000
  O   O8        1.0  0.9856277689562343  0.8859766222113357  0.9754437826178761  1.0000
