data_image0
_chemical_formula_structural       NC8NC6H8C9H10C12H10Zn2C4O8
_chemical_formula_sum              "N2 C39 H28 Zn2 O8"
_cell_length_a       17.457602349358154
_cell_length_b       9.272676604525723
_cell_length_c       10.299141136925908
_cell_angle_alpha    85.79349771759213
_cell_angle_beta     92.89850146643516
_cell_angle_gamma    92.2282679722568

_space_group_name_H-M_alt    "P 1"
_space_group_IT_number       1

loop_
  _space_group_symop_operation_xyz
  'x, y, z'

loop_
  _atom_site_type_symbol
  _atom_site_label
  _atom_site_symmetry_multiplicity
  _atom_site_fract_x
  _atom_site_fract_y
  _atom_site_fract_z
  _atom_site_occupancy
  N   N1        1.0  0.730397939260676  0.6141094320634997  0.6334138439209291  1.0000
  C   C1        1.0  0.6690557050210799  0.5631030898033054  0.622575349417499  1.0000
  C   C2        1.0  0.5927434173471808  0.49965754406357  0.6091018326039606  1.0000
  C   C3        1.0  0.5344608209885101  0.5442422617788942  0.6841996721182353  1.0000
  C   C4        1.0  0.4595988350798825  0.4831493022959213  0.6713508786261215  1.0000
  C   C5        1.0  0.3977391381413482  0.5302241228212059  0.7508817207606574  1.0000
  C   C6        1.0  0.32328512874050197  0.5507547092475258  0.6952029038385088  1.0000
  C   C7        1.0  0.2650015052092507  0.5951351048743851  0.7704078171262214  1.0000
  C   C8        1.0  0.1891122923128607  0.6163393152961005  0.7125162861053191  1.0000
  N   N2        1.0  0.1281102453052456  0.6333804144233313  0.6659716153986811  1.0000
  C   C9        1.0  0.2806812303737306  0.6192548144361272  0.9018012812060474  1.0000
  C   C10       1.0  0.3543528419932544  0.5991561583333731  0.9578696073676329  1.0000
  C   C11       1.0  0.4126259913109227  0.5549756073728246  0.8831233226923897  1.0000
  C   C12       1.0  0.4443039029659537  0.37671965748475245  0.5819679359448335  1.0000
  C   C13       1.0  0.5025764611950614  0.3324443472595096  0.507271478893768  1.0000
  C   C14       1.0  0.5766544471528747  0.39366195089545597  0.5206708099865172  1.0000
  H   H1        1.0  0.5472487905462573  0.6277405622339769  0.751199143437363  1.0000
  H   H2        1.0  0.3108315916069933  0.5341590969984291  0.5930977750045845  1.0000
  H   H3        1.0  0.236009729181004  0.6535381879196074  0.9607911337705012  1.0000
  H   H4        1.0  0.3663014659745651  0.617481999597742  0.05960897168658453  1.0000
  H   H5        1.0  0.4690365838351492  0.5383095436977492  0.9291610938095822  1.0000
  H   H6        1.0  0.3875583011599109  0.32636827791493556  0.571096170815774  1.0000
  H   H7        1.0  0.49030839599639203  0.2501864902385305  0.4390789833066524  1.0000
  H   H8        1.0  0.6213211488260703  0.35841243310140786  0.4621879217522407  1.0000
  C   C15       1.0  0.9270829684309627  0.20015160890388706  0.6478559026082589  1.0000
  C   C16       1.0  0.896384395938835  0.2627429983325935  0.752903302360803  1.0000
  C   C17       1.0  0.8727078565455696  0.1774380279533674  0.861699663782409  1.0000
  C   C18       1.0  0.8789658783660427  0.026990680929146475  0.8691122319901139  1.0000
  C   C19       1.0  0.908406903073538  0.9628888790898763  0.7629612643349382  1.0000
  C   C20       1.0  0.9314325212799139  0.04732744362224239  0.6515413576779863  1.0000
  C   C21       1.0  0.852548153416478  0.942071365697358  0.9917084322713298  1.0000
  C   C22       1.0  0.813759682424161  0.7940998523128142  0.9756020413055333  1.0000
  C   C23       1.0  0.894804507648881  0.8054600902099457  0.03718953312599238  1.0000
  H   H9        1.0  0.9440838930926138  0.49984047703061285  0.43642645041483785  1.0000
  H   H10       1.0  0.8923350528767253  0.37906933943260324  0.7524469623382284  1.0000
  H   H11       1.0  0.8499890627551188  0.22976866632787796  0.941442594223109  1.0000
  H   H12       1.0  0.9120682220809747  0.84666572511161  0.7644670019727912  1.0000
  H   H13       1.0  0.9512846876690922  0.9715323266910773  0.3351622711685574  1.0000
  H   H14       1.0  0.8308397093373914  0.0011273914902136832  0.07170318081998239  1.0000
  H   H15       1.0  0.8101792198190051  0.7546943051738659  0.8763000311321478  1.0000
  H   H16       1.0  0.7692979468980263  0.7631494517969846  0.04688785915291105  1.0000
  H   H17       1.0  0.9404310838589233  0.7728256561247889  0.9753734072876488  1.0000
  H   H18       1.0  0.8977076022831677  0.7811430477769974  0.14448727247679927  1.0000
  C   C24       1.0  0.9291711361505035  0.6238584128027967  0.2682990172010673  1.0000
  C   C25       1.0  0.009409960882763585  0.6432775975445015  0.2731133792022038  1.0000
  C   C26       1.0  0.05018340378884868  0.6530017659586058  0.15842753705422874  1.0000
  C   C27       1.0  0.00963343931920279  0.6430445611201587  0.03786501051564861  1.0000
  C   C28       1.0  0.9293443504203966  0.6236206492683974  0.031098257676236418  1.0000
  C   C29       1.0  0.8896075612398686  0.6141447987428861  0.1468019749290299  1.0000
  C   C30       1.0  0.13506801639615973  0.6735471266458906  0.16456541917720657  1.0000
  C   C31       1.0  0.1803343373594457  0.5968813157224457  0.08573766375276826  1.0000
  C   C32       1.0  0.26022685278850544  0.6163987867313403  0.09175316226420717  1.0000
  C   C33       1.0  0.29577404995274614  0.7124398998371504  0.1761920069186691  1.0000
  C   C34       1.0  0.25150065976366137  0.7891633886601199  0.2548564030356184  1.0000
  C   C35       1.0  0.1715898914373385  0.7700065975504067  0.24931064799068192  1.0000
  H   H19       1.0  0.8983023879872943  0.6164617605706906  0.5939177157893427  1.0000
  H   H20       1.0  0.040484166312352736  0.648900037220862  0.3664257664683128  1.0000
  H   H21       1.0  0.04066761306450296  0.6524451427267659  0.9490107576769332  1.0000
  H   H22       1.0  0.8277173393074571  0.5991703356734802  0.14237263400327382  1.0000
  H   H23       1.0  0.7777577220265813  0.5878716809714408  0.8109709668446352  1.0000
  H   H24       1.0  0.15404331465237883  0.5205442403501448  0.020778975272745633  1.0000
  H   H25       1.0  0.2946143644408439  0.5567018924231781  0.031098383778948684  1.0000
  H   H26       1.0  0.35762316881981265  0.7274079435077005  0.18066675848063074  1.0000
  H   H27       1.0  0.2791009386231402  0.8638617364366847  0.3199957904775146  1.0000
  H   H28       1.0  0.13832017455386736  0.831928736459467  0.30996134140360576  1.0000
  Zn  Zn1       1.0  0.8451691016009648  0.6196667506572959  0.6428167957266462  1.0000
  Zn  Zn2       1.0  0.013339010409124231  0.6278112657857707  0.6565792455266606  1.0000
  C   C36       1.0  0.9292803740130079  0.6179190118453668  0.8868877024964003  1.0000
  C   C37       1.0  0.9292295837805805  0.6295609135407283  0.4125086244368131  1.0000
  C   C38       1.0  0.930605216825344  0.8871946102556498  0.6456688026086232  1.0000
  C   C39       1.0  0.9279046747015594  0.36028357927293425  0.6537275813333769  1.0000
  O   O1        1.0  0.993068770997592  0.6345592328839231  0.46612943659526285  1.0000
  O   O2        1.0  0.9930782507227303  0.6191011029541635  0.8437118926846927  1.0000
  O   O3        1.0  0.9941472180364529  0.8365445120387864  0.6489258604798169  1.0000
  O   O4        1.0  0.9919997463297391  0.41711583136930264  0.6609153667663323  1.0000
  O   O5        1.0  0.8665083082922204  0.830362182296013  0.6384806697837013  1.0000
  O   O6        1.0  0.8654393498570532  0.6129205062911489  0.8332666402765163  1.0000
  O   O7        1.0  0.8654298695703381  0.628378586443465  0.4556826224462559  1.0000
  O   O8        1.0  0.8643608448684856  0.41093517458109097  0.6504686499478578  1.0000
