data_image0
_chemical_formula_structural       NC12NC2H8C12ClH9C11NCOCH12Zn2C4O8
_chemical_formula_sum              "N3 C43 H29 Cl1 O9 Zn2"
_cell_length_a       19.240039667572717
_cell_length_b       10.299768534541528
_cell_length_c       10.299158637457994
_cell_angle_alpha    85.58253282463849
_cell_angle_beta     89.9815795743678
_cell_angle_gamma    90.01670575511149

_space_group_name_H-M_alt    "P 1"
_space_group_IT_number       1

loop_
  _space_group_symop_operation_xyz
  'x, y, z'

loop_
  _atom_site_type_symbol
  _atom_site_label
  _atom_site_symmetry_multiplicity
  _atom_site_fract_x
  _atom_site_fract_y
  _atom_site_fract_z
  _atom_site_occupancy
  N   N1        1.0  0.6549454056665767  0.42075482853593055  0.5675191883216681  1.0000
  C   C1        1.0  0.5947970368764997  0.42075491248746505  0.5675191063888121  1.0000
  C   C2        1.0  0.5199789997772636  0.42075502972359785  0.5675189690895979  1.0000
  C   C3        1.0  0.4834774336654054  0.3563268012663808  0.6709282248021917  1.0000
  C   C4        1.0  0.4108066533706043  0.3562159515871961  0.6710147613407016  1.0000
  C   C5        1.0  0.3736467648935493  0.42075512220764977  0.5675187414110348  1.0000
  C   C6        1.0  0.410862554799424  0.485294479881091  0.464022916035218  1.0000
  C   C7        1.0  0.483533211010515  0.48518339474792976  0.46410957506148537  1.0000
  C   C8        1.0  0.2964416744580602  0.4207550435136713  0.5675186459897565  1.0000
  C   C9        1.0  0.259228984869981  0.3075101284339106  0.6093828553654164  1.0000
  C   C10       1.0  0.1865583288818122  0.30761699544836985  0.6092915355470607  1.0000
  C   C11       1.0  0.15010938750422348  0.42075491436352025  0.5675187068927385  1.0000
  C   C12       1.0  0.0752913502887394  0.42075480070928295  0.5675189555491182  1.0000
  N   N2        1.0  0.015143033394412402  0.4207547599594628  0.5675191639681085  1.0000
  C   C13       1.0  0.18660795700418167  0.5338929090869204  0.5257458253517726  1.0000
  C   C14       1.0  0.2592786856741127  0.5339999561633253  0.525654342948231  1.0000
  H   H1        1.0  0.5111706192879606  0.30644530364074796  0.7516672599192933  1.0000
  H   H2        1.0  0.3836915989180579  0.3071329232413571  0.7528693638574491  1.0000
  H   H3        1.0  0.3837910784768122  0.5343775352612066  0.38216826267117954  1.0000
  H   H4        1.0  0.511269796787946  0.5350647922090441  0.3833708157364881  1.0000
  H   H5        1.0  0.2863029826310133  0.21836659336061137  0.6405453049048779  1.0000
  H   H6        1.0  0.15882417211394306  0.21937299458995585  0.6414870178014114  1.0000
  H   H7        1.0  0.1589122903179281  0.62213688541384  0.4935503576464968  1.0000
  H   H8        1.0  0.28639116675035037  0.6231435703967063  0.4944918486416454  1.0000
  C   C15       1.0  0.8349820050320779  0.03938941053893408  0.567517037262278  1.0000
  C   C16       1.0  0.8395829292645767  0.04890693692270709  0.431046935998395  1.0000
  C   C17       1.0  0.8419810702460128  0.9365901786193211  0.36190383925537173  1.0000
  C   C18       1.0  0.8397156703420243  0.8136192249213282  0.43106242606391443  1.0000
  C   C19       1.0  0.8351131110848539  0.802110169478343  0.5675324652778471  1.0000
  C   C20       1.0  0.8327725648578573  0.915552106751873  0.6349955377318572  1.0000
  C   C21       1.0  0.8468493886457036  0.9477125959219963  0.21752984882169257  1.0000
  C   C22       1.0  0.8073221475103929  0.04122639502648817  0.14306541189310162  1.0000
  C   C23       1.0  0.8119662721917055  0.051499339066293004  0.007184493988873659  1.0000
  C   C24       1.0  0.8560708093274024  0.9687800215957001  0.9440761406452748  1.0000
  C   C25       1.0  0.8955869193383084  0.8755779334871026  0.017029344055506268  1.0000
  C   C26       1.0  0.8910662180806995  0.8649127433589336  0.1529249053272479  1.0000
  Cl  Cl1       1.0  0.8618201130032845  0.9819149989851965  0.7735896751696808  1.0000
  H   H9        1.0  0.8331931655033625  0.3632165136320602  0.619515610619958  1.0000
  H   H10       1.0  0.8422715587201766  0.14390069133025427  0.3783138922792191  1.0000
  H   H11       1.0  0.8405905367933522  0.7267667486948263  0.37811582554889256  1.0000
  H   H12       1.0  0.829222459715664  0.9074415845490772  0.7402759387527649  1.0000
  H   H13       1.0  0.833386992801383  0.47027093647106266  0.6195388396734749  1.0000
  H   H14       1.0  0.7721728600188844  0.10521881949538292  0.1898092869300423  1.0000
  H   H15       1.0  0.781117224761523  0.12359345517646439  0.9510722573139927  1.0000
  H   H16       1.0  0.9299613830622185  0.8115382976749039  0.9685959766515144  1.0000
  H   H17       1.0  0.9227974731598151  0.793111408731873  0.20754282383413591  1.0000
  C   C27       1.0  0.8351126921358283  0.4206118449623973  0.1861516790325386  1.0000
  C   C28       1.0  0.8367510413745756  0.5573138409627214  0.1748409079069082  1.0000
  C   C29       1.0  0.8375271817118621  0.6267635003087122  0.05194856099485489  1.0000
  C   C30       1.0  0.8366180534816545  0.5576737074077207  0.9395294366454109  1.0000
  C   C31       1.0  0.8349824181469339  0.42088780329413966  0.9488978999167316  1.0000
  C   C32       1.0  0.8342428472191984  0.3531979365851723  0.0725969284817718  1.0000
  C   C33       1.0  0.8392611870762173  0.7713774374561302  0.04095669163255832  1.0000
  C   C34       1.0  0.8835690666130889  0.975300049329431  0.1130506569503511  1.0000
  C   C35       1.0  0.8430093340472707  0.04628476637097956  0.018902547580412772  1.0000
  C   C36       1.0  0.7995112755830054  0.9788118811076951  0.938116883040633  1.0000
  C   C37       1.0  0.7979023600741078  0.8427504484906188  0.9483306827908585  1.0000
  N   N3        1.0  0.8427679853980998  0.1863294454453479  0.007670010244549717  1.0000
  C   C38       1.0  0.902329171236224  0.2653165965548765  0.030903168710033176  1.0000
  O   O1        1.0  0.9622448450333457  0.21590437738176546  0.03941828983535899  1.0000
  C   C39       1.0  0.894201153079908  0.40913041735080924  0.03550864713776303  1.0000
  H   H18       1.0  0.8345042874543689  0.368028548145797  0.5179780587243215  1.0000
  H   H19       1.0  0.8364562951137428  0.610130599918782  0.26179283436339484  1.0000
  H   H20       1.0  0.8381339562659277  0.610686819509467  0.8445589032987866  1.0000
  H   H21       1.0  0.8329815294079747  0.2477564932433658  0.08060629336909231  1.0000
  H   H22       1.0  0.8323171787072853  0.1626961875904318  0.7592881675632457  1.0000
  H   H23       1.0  0.9156492283617017  0.02463916801916532  0.18008316906645927  1.0000
  H   H24       1.0  0.7670109426904185  0.031913444489000145  0.8664947161496794  1.0000
  H   H25       1.0  0.7635452095294256  0.7933645505539205  0.8849824119890242  1.0000
  H   H26       1.0  0.7977225275115561  0.23378401032570695  0.972724246755002  1.0000
  H   H27       1.0  0.8453336443703365  0.4308449039772202  0.08692689784938645  1.0000
  H   H28       1.0  0.892340533539325  0.45579732720682875  0.9347907988049678  1.0000
  H   H29       1.0  0.938549409460544  0.44989767495502697  0.08816422739614427  1.0000
  Zn  Zn1       1.0  0.7588906676283526  0.4207513442851694  0.567526669731345  1.0000
  Zn  Zn2       1.0  0.9111977865726004  0.4207476546622071  0.5675222813595204  1.0000
  C   C40       1.0  0.8350046008314617  0.4156619905213583  0.8047224016206096  1.0000
  C   C41       1.0  0.8350855168183714  0.4258386470362907  0.3303266769234261  1.0000
  C   C42       1.0  0.8350856298915125  0.6579378736812658  0.562354357645624  1.0000
  C   C43       1.0  0.8350044355065332  0.1835612036145207  0.5726947901076438  1.0000
  O   O2        1.0  0.8928761534438671  0.42758574367793845  0.3787114577912989  1.0000
  O   O3        1.0  0.8928115432332665  0.4139111136925546  0.7563339162100533  1.0000
  O   O4        1.0  0.892876195824982  0.6095519538483103  0.560620005955976  1.0000
  O   O5        1.0  0.892811448898277  0.23194491277835108  0.5744252706713269  1.0000
  O   O6        1.0  0.7772769533277325  0.6095540861716957  0.5606236804142051  1.0000
  O   O7        1.0  0.7772123010128609  0.41391480628047206  0.7563375214537165  1.0000
  O   O8        1.0  0.7772769115285948  0.42758939044544353  0.3787135016162413  1.0000
  O   O9        1.0  0.7772122069619356  0.23194855029235817  0.5744274118649855  1.0000
