data_image0
_chemical_formula_structural       NC10NC5H10C12OCH12C12IH9Zn2C4O8
_chemical_formula_sum              "N2 C44 H31 O9 I1 Zn2"
_cell_length_a       19.4436361288709
_cell_length_b       10.29979075500242
_cell_length_c       10.29977335064465
_cell_angle_alpha    85.5398229900983
_cell_angle_beta     89.71371329934453
_cell_angle_gamma    89.40046160214462

_space_group_name_H-M_alt    "P 1"
_space_group_IT_number       1

loop_
  _space_group_symop_operation_xyz
  'x, y, z'

loop_
  _atom_site_type_symbol
  _atom_site_label
  _atom_site_symmetry_multiplicity
  _atom_site_fract_x
  _atom_site_fract_y
  _atom_site_fract_z
  _atom_site_occupancy
  N   N1        1.0  0.6472910725706824  0.4097218848774358  0.5620096620027759  1.0000
  C   C1        1.0  0.5884555959558833  0.4196170225292955  0.5763930966881727  1.0000
  C   C2        1.0  0.5151268919627247  0.4319575606324937  0.5943847403518863  1.0000
  C   C3        1.0  0.47293464376511124  0.4000050048504167  0.49971264600581655  1.0000
  C   C4        1.0  0.39702900889672216  0.4104407559386305  0.5050401350802838  1.0000
  C   C5        1.0  0.35730922158327777  0.38564297789608154  0.6121142156158628  1.0000
  C   C6        1.0  0.28118616328227675  0.38956562961783203  0.599154584068587  1.0000
  C   C7        1.0  0.24062709447603642  0.4471828843652148  0.69292215033089  1.0000
  C   C8        1.0  0.16896157918793792  0.4508255439666462  0.6823780182796528  1.0000
  C   C9        1.0  0.13686048399921974  0.3964548055044217  0.578352869939222  1.0000
  C   C10       1.0  0.06306569158921102  0.4001587805879907  0.5676534520422516  1.0000
  N   N2        1.0  0.0037396836939655085  0.4031365821250903  0.5590518294089808  1.0000
  C   C11       1.0  0.1766948344104837  0.3381302846918295  0.484968579986701  1.0000
  C   C12       1.0  0.24837675174692667  0.3344335189743599  0.4952609371817041  1.0000
  C   C13       1.0  0.38546750171634  0.3451211712412792  0.7432114455928408  1.0000
  C   C14       1.0  0.4441306556608293  0.38822075808907197  0.7904515730265183  1.0000
  C   C15       1.0  0.4883111491595958  0.486113198296339  0.7160783788574192  1.0000
  H   H1        1.0  0.49502562264175803  0.3709302501192726  0.4094073034399  1.0000
  H   H2        1.0  0.37231354062718264  0.43297882982759855  0.4118802974010891  1.0000
  H   H3        1.0  0.2645018693760623  0.49043577366884433  0.773768169652739  1.0000
  H   H4        1.0  0.13861961940288092  0.49610585337465346  0.7552964393535571  1.0000
  H   H5        1.0  0.1523481921081402  0.295072895577537  0.4044570331404818  1.0000
  H   H6        1.0  0.2780535682384265  0.28690950655494873  0.423038979025931  1.0000
  H   H7        1.0  0.3545218943184368  0.2808744161940351  0.8074621677590386  1.0000
  H   H8        1.0  0.4593002339655007  0.35410794563839065  0.8883881691934568  1.0000
  H   H9        1.0  0.4581834368748629  0.576838786250224  0.6908212233562897  1.0000
  H   H10       1.0  0.5316009798947446  0.5116695779536364  0.7791620284961374  1.0000
  C   C16       1.0  0.8255804797107287  0.025060266876266286  0.5605691804701942  1.0000
  C   C17       1.0  0.8056823787474491  0.014223061208583184  0.6921726430872852  1.0000
  C   C18       1.0  0.795545276592796  0.8915964995680593  0.7588244200250049  1.0000
  C   C19       1.0  0.8055588068268064  0.7789430703339305  0.6921078832502146  1.0000
  C   C20       1.0  0.8254568771781606  0.7877880620734851  0.5605034883703905  1.0000
  C   C21       1.0  0.8353578967049303  0.9112896182896916  0.4954716905966019  1.0000
  C   C22       1.0  0.7744984033155247  0.8811853755211285  0.8980547154714584  1.0000
  C   C23       1.0  0.7243179246945274  0.7912329400728356  0.9435367618525393  1.0000
  C   C24       1.0  0.704571091233835  0.7817068359854885  0.0744399456863778  1.0000
  C   C25       1.0  0.7345599353818459  0.8614723460977545  0.16153945685587912  1.0000
  C   C26       1.0  0.7849236788842009  0.9520299289757819  0.11792759948693787  1.0000
  C   C27       1.0  0.8044572454571642  0.9611989407744286  0.9864994845128037  1.0000
  O   O1        1.0  0.8167229775422643  0.03411763911500887  0.20153233877075472  1.0000
  C   C28       1.0  0.8019890667745777  0.03532694978264361  0.33699098986511267  1.0000
  H   H11       1.0  0.8331926104236518  0.35664062230775784  0.5104436542803361  1.0000
  H   H12       1.0  0.7971096153541177  0.10139267528283603  0.7426726476750147  1.0000
  H   H13       1.0  0.7987066648177134  0.6841541503495967  0.7435327253875184  1.0000
  H   H14       1.0  0.8507089702369078  0.9188816583401982  0.3939451750176075  1.0000
  H   H15       1.0  0.8330047259632273  0.4637075806691826  0.510340860410869  1.0000
  H   H16       1.0  0.6997117026398099  0.7294783692262573  0.8775312743455264  1.0000
  H   H17       1.0  0.6657294497720101  0.712444281767992  0.10844112071099475  1.0000
  H   H18       1.0  0.7182690764176731  0.8519936293099949  0.2623414391002108  1.0000
  H   H19       1.0  0.8438539645279161  0.03002457626883537  0.9540065642938849  1.0000
  H   H20       1.0  0.8138744457731564  0.9385631398613646  0.3875150529092659  1.0000
  H   H21       1.0  0.8344488238713635  0.10935361535048439  0.37893604421702587  1.0000
  H   H22       1.0  0.7470843202195496  0.06124763171094317  0.35188210226006955  1.0000
  C   C29       1.0  0.8254858605183447  0.4065308626519506  0.1791674251252342  1.0000
  C   C30       1.0  0.8878223005562133  0.47438252624532057  0.17230691559329836  1.0000
  C   C31       1.0  0.9194417514081442  0.508655056788162  0.05170034040434923  1.0000
  C   C32       1.0  0.8878884947298582  0.47416714742016586  0.9370367716699546  1.0000
  C   C33       1.0  0.8255514783549597  0.4063174994150174  0.9419053276072057  1.0000
  C   C34       1.0  0.7946994893740309  0.37287822516574276  0.06343589922059012  1.0000
  C   C35       1.0  0.9853882348668551  0.5804341404141011  0.04549651392384879  1.0000
  C   C36       1.0  0.9961909557782328  0.6832533761724824  0.12520849033348624  1.0000
  C   C37       1.0  0.05829580019066016  0.750698049999878  0.11916732611392013  1.0000
  C   C38       1.0  0.11028816478435433  0.716377989484271  0.03374946459048545  1.0000
  C   C39       1.0  0.10014875224555554  0.6144326942450586  0.9541746472239595  1.0000
  C   C40       1.0  0.03811371806059373  0.5467607594089797  0.9598093102702469  1.0000
  I   I1        1.0  0.2039198005478311  0.8182866843774418  0.024945214108920595  1.0000
  H   H23       1.0  0.8017128449025319  0.38074167207207915  0.509230240094535  1.0000
  H   H24       1.0  0.9124128856798721  0.49917513660362456  0.2610775243998944  1.0000
  H   H25       1.0  0.9115707833651414  0.501917255107668  0.8437249926502375  1.0000
  H   H26       1.0  0.7466093775486011  0.32053489885503095  0.06796011364729426  1.0000
  H   H27       1.0  0.8018089393339365  0.3804277560947036  0.6163096303407101  1.0000
  H   H28       1.0  0.9563042323354167  0.7125681056036646  0.1909276699999467  1.0000
  H   H29       1.0  0.06589486473675898  0.8298343841117084  0.18068320487897993  1.0000
  H   H30       1.0  0.14037290765628985  0.587347953004971  0.8881613314002701  1.0000
  H   H31       1.0  0.03170997480093529  0.46706145690783674  0.8984444700600007  1.0000
  Zn  Zn1       1.0  0.7501544445028907  0.40781803528268634  0.5611636078472713  1.0000
  Zn  Zn2       1.0  0.9008763059150738  0.4050298210491321  0.5599085656577818  1.0000
  C   C41       1.0  0.8255383758799624  0.4011841770892504  0.7977319597098891  1.0000
  C   C42       1.0  0.8254940201614185  0.41166528737923574  0.3233403274155695  1.0000
  C   C43       1.0  0.8254762381990777  0.6436178105553523  0.5553408011564742  1.0000
  C   C44       1.0  0.8255561066703182  0.1692300945426517  0.565731555770165  1.0000
  O   O2        1.0  0.8826949204428223  0.41232466870927054  0.3712497889773576  1.0000
  O   O3        1.0  0.882731881070562  0.3984076260529373  0.7488695764042461  1.0000
  O   O4        1.0  0.8826809331650081  0.5941758649546853  0.5531370072190844  1.0000
  O   O5        1.0  0.882745816907332  0.216556440076412  0.5669822612153084  1.0000
  O   O6        1.0  0.7682848820766572  0.5962914172083027  0.5540899127111976  1.0000
  O   O7        1.0  0.7683358297202213  0.40052473862993243  0.749822412516632  1.0000
  O   O8        1.0  0.768298869011241  0.4144417364662374  0.3722010636924975  1.0000
  O   O9        1.0  0.7683497654828203  0.2186734985173855  0.5679336332991127  1.0000
