data_image0
_chemical_formula_structural       NC9NC5H8C9H10C9H9Zn2C4O8
_chemical_formula_sum              "N2 C36 H27 Zn2 O8"
_cell_length_a       17.807436237873137
_cell_length_b       9.272676604525724
_cell_length_c       9.272679976505533
_cell_angle_alpha    86.26619108519446
_cell_angle_beta     89.80029134641114
_cell_angle_gamma    88.94495835625186

_space_group_name_H-M_alt    "P 1"
_space_group_IT_number       1

loop_
  _space_group_symop_operation_xyz
  'x, y, z'

loop_
  _atom_site_type_symbol
  _atom_site_label
  _atom_site_symmetry_multiplicity
  _atom_site_fract_x
  _atom_site_fract_y
  _atom_site_fract_z
  _atom_site_occupancy
  N   N1        1.0  0.7093540086441149  0.5280990183308845  0.40488529960232666  1.0000
  C   C1        1.0  0.6485250104217143  0.488935886533862  0.3924805114103942  1.0000
  C   C2        1.0  0.5728604222887161  0.44022126329952505  0.37705030205597256  1.0000
  C   C3        1.0  0.5539453876503999  0.3600227859841545  0.2601485275579909  1.0000
  C   C4        1.0  0.48047802614250174  0.31260013809328413  0.24507453665352255  1.0000
  C   C5        1.0  0.4248747366425149  0.34495655698654915  0.34686450143758973  1.0000
  C   C6        1.0  0.3467988444761598  0.29468678953935346  0.3309364085104416  1.0000
  C   C7        1.0  0.2851848150047473  0.38567720416625617  0.36011950027540784  1.0000
  C   C8        1.0  0.2115740674148269  0.33802926551688994  0.345059731425305  1.0000
  C   C9        1.0  0.14892648141255804  0.43201074916278936  0.3746595808994407  1.0000
  N   N2        1.0  0.09857077492543567  0.5075653695214992  0.39845702563935564  1.0000
  C   C10       1.0  0.1989922581331434  0.19910428589076146  0.3007875040253061  1.0000
  C   C11       1.0  0.2597488063788577  0.10809841957657197  0.2715950331163448  1.0000
  C   C12       1.0  0.3332370959956092  0.15530658053413648  0.2864280912124  1.0000
  C   C13       1.0  0.44448482786977084  0.42570578199892695  0.46401198996974685  1.0000
  C   C14       1.0  0.5180033666778826  0.4729157011819651  0.478912289907113  1.0000
  H   H1        1.0  0.5959249517011992  0.33443543474951465  0.1804342398423533  1.0000
  H   H2        1.0  0.46693025526602133  0.25228066862039933  0.1527704261376699  1.0000
  H   H3        1.0  0.29434438840481375  0.4941327783511895  0.39263882722974525  1.0000
  H   H4        1.0  0.1422939547943263  0.1612256936056471  0.288864471140917  1.0000
  H   H5        1.0  0.249890632570861  0.0005428525581265876  0.23774704352858889  1.0000
  H   H6        1.0  0.3794330422812137  0.08215151935959297  0.2649701892644514  1.0000
  H   H7        1.0  0.4032243528080904  0.4507059632501582  0.545160721169764  1.0000
  H   H8        1.0  0.5320821139666411  0.5345811745622069  0.5700659061396414  1.0000
  C   C15       1.0  0.9018313137754832  0.09444119204931178  0.39986465098424895  1.0000
  C   C16       1.0  0.8721988560896116  0.16107848502460853  0.5197551506365626  1.0000
  C   C17       1.0  0.8494505434753934  0.07914535364214738  0.6430554909077721  1.0000
  C   C18       1.0  0.8556012132424138  0.9281341306641312  0.6506137835845826  1.0000
  C   C19       1.0  0.8839991681116168  0.8601032293518781  0.5296328990620194  1.0000
  C   C20       1.0  0.9061006579017539  0.9412118394935949  0.4034900393916854  1.0000
  C   C21       1.0  0.8302237745081607  0.8469879287687607  0.7895256225873613  1.0000
  C   C22       1.0  0.7922145308632789  0.7027814811433434  0.7757988138895815  1.0000
  C   C23       1.0  0.8717378103471078  0.7065277943059264  0.8354877854698228  1.0000
  H   H9        1.0  0.9176571316053308  0.3905024097890377  0.16335398456202424  1.0000
  H   H10       1.0  0.8682355348308651  0.27780896986193504  0.5196820139255163  1.0000
  H   H11       1.0  0.8275283750526733  0.13448831922111149  0.7340034184120285  1.0000
  H   H12       1.0  0.887586878729051  0.7435245515959195  0.5309124196731669  1.0000
  H   H13       1.0  0.9243155205218434  0.8605517524439634  0.05017795575050953  1.0000
  H   H14       1.0  0.809291018865984  0.9089566926251695  0.8806449334042795  1.0000
  H   H15       1.0  0.7883328145456394  0.6628382026690338  0.6659547744847327  1.0000
  H   H16       1.0  0.7489883976915733  0.6769590926901814  0.8596863679560519  1.0000
  H   H17       1.0  0.9161396667166435  0.6687336086539297  0.7619871079432698  1.0000
  H   H18       1.0  0.874987344613342  0.6828891437889433  0.9542797481239507  1.0000
  C   C24       1.0  0.902426148825834  0.5145022866727227  0.9783252368997535  1.0000
  C   C25       1.0  0.9530137508903224  0.42262508380113895  0.0573666970194433  1.0000
  C   C26       1.0  0.007358605273815933  0.3422362757639634  0.9875298662254526  1.0000
  C   C27       1.0  0.012953913906724292  0.35107827355715804  0.8366150748529889  1.0000
  C   C28       1.0  0.9614549950706895  0.44104626287232945  0.7561958484774829  1.0000
  C   C29       1.0  0.9055057866004346  0.5211507829691049  0.8250294889336889  1.0000
  C   C30       1.0  0.07425496725297129  0.2609693967919071  0.7690753124949241  1.0000
  C   C31       1.0  0.056039858607880744  0.19593066790070357  0.6269882880716797  1.0000
  C   C32       1.0  0.10951407407963942  0.3222413749460111  0.6288501204086017  1.0000
  H   H19       1.0  0.7898390811176982  0.6179497410655728  0.2535610746670054  1.0000
  H   H20       1.0  0.9517881809328581  0.4154150807314825  0.17442979693702565  1.0000
  H   H21       1.0  0.045900962451661975  0.2735550249073164  0.05223488893383865  1.0000
  H   H22       1.0  0.9631663401708795  0.44719048445774545  0.6394158851974812  1.0000
  H   H23       1.0  0.7356890348321453  0.6657827060901316  0.7137234453855426  1.0000
  H   H24       1.0  0.1131792436790553  0.19403990808301438  0.8403356297485356  1.0000
  H   H25       1.0  0.00038019011957213223  0.22347751252245243  0.578333339279185  1.0000
  H   H26       1.0  0.08468698957553666  0.09059593665135757  0.611768120422891  1.0000
  H   H27       1.0  0.1694232673611884  0.29071981040705364  0.6147140978522581  1.0000
  Zn  Zn1       1.0  0.8216735695841052  0.522169669188103  0.40303855974552816  1.0000
  Zn  Zn2       1.0  0.9862511796409962  0.5134830590934392  0.40031556713036176  1.0000
  C   C33       1.0  0.9048930418309453  0.5141503937154948  0.6649596490801697  1.0000
  C   C34       1.0  0.9030335142632666  0.5215040599940326  0.13839459734801407  1.0000
  C   C35       1.0  0.9052688790920796  0.7811092694399577  0.39705993125194694  1.0000
  C   C36       1.0  0.9026576123891668  0.2545434556093349  0.40629438554982555  1.0000
  O   O1        1.0  0.965693665251976  0.520551105788994  0.19108194852944727  1.0000
  O   O2        1.0  0.9671434818153568  0.5085093209191518  0.610205189851742  1.0000
  O   O3        1.0  0.9674461386677543  0.7240820454318606  0.3938742926193758  1.0000
  O   O4        1.0  0.9653909518992276  0.3049783937055468  0.4074127386409383  1.0000
  O   O5        1.0  0.842533741163593  0.7306743375418188  0.3959413891565988  1.0000
  O   O6        1.0  0.8422310927618807  0.5151033446551685  0.6122722169370236  1.0000
  O   O7        1.0  0.8407812696907835  0.5271450656696903  0.19314724211054204  1.0000
  O   O8        1.0  0.8404785566761053  0.31157234412280527  0.40947814026455637  1.0000
