data_image0
_chemical_formula_structural       NC9NC4H8C8NH7C6SCNH5Zn2C4O8
_chemical_formula_sum              "N4 C32 H20 S1 Zn2 O8"
_cell_length_a       16.32274767691083
_cell_length_b       9.274263428431858
_cell_length_c       10.302218930750287
_cell_angle_alpha    85.51116070618167
_cell_angle_beta     89.48597253194706
_cell_angle_gamma    90.1410557844374

_space_group_name_H-M_alt    "P 1"
_space_group_IT_number       1

loop_
  _space_group_symop_operation_xyz
  'x, y, z'

loop_
  _atom_site_type_symbol
  _atom_site_label
  _atom_site_symmetry_multiplicity
  _atom_site_fract_x
  _atom_site_fract_y
  _atom_site_fract_z
  _atom_site_occupancy
  N   N1        1.0  0.7807908319292003  0.5684209261797465  0.5560984680306629  1.0000
  C   C1        1.0  0.7281307316264145  0.5157435245847528  0.5018570538781109  1.0000
  C   C2        1.0  0.6626739962073985  0.4503177816902808  0.4344887837618534  1.0000
  C   C3        1.0  0.6736753805768945  0.36082704160481915  0.3423366874630156  1.0000
  C   C4        1.0  0.594040697394551  0.31715508521117797  0.2973695303082793  1.0000
  C   C5        1.0  0.5355014560415923  0.3810679853435637  0.36318542202601933  1.0000
  C   C6        1.0  0.44545989695113025  0.3641763797262769  0.3457944009462839  1.0000
  C   C7        1.0  0.3903229569924787  0.43867099372766605  0.4224996817262632  1.0000
  C   C8        1.0  0.3055254960531297  0.4242346158477619  0.4076362128369826  1.0000
  C   C9        1.0  0.24999074045160774  0.5010193314165048  0.4866987876376338  1.0000
  N   N2        1.0  0.20535966045791124  0.562741607577007  0.5502517067327553  1.0000
  C   C10       1.0  0.274811194568993  0.33518314318167053  0.31594403421303907  1.0000
  C   C11       1.0  0.32862682416284983  0.26078720268334443  0.23934069638367195  1.0000
  C   C12       1.0  0.413263093225991  0.27483473129537833  0.2538036555539289  1.0000
  C   C13       1.0  0.5738296615935069  0.4742600506752088  0.4591462985503152  1.0000
  H   H1        1.0  0.7323685196911811  0.32602831314973324  0.30650082546795687  1.0000
  H   H2        1.0  0.5852948471469386  0.24401441490486128  0.22205355217141443  1.0000
  H   H3        1.0  0.4128636347172428  0.5081906806406726  0.49408099149323365  1.0000
  H   H4        1.0  0.209346179353875  0.3232905584589876  0.3036998433838036  1.0000
  H   H5        1.0  0.3046939810766148  0.19189758642633728  0.16840839934382923  1.0000
  H   H6        1.0  0.4526777562097865  0.2153227676819545  0.1925263104863042  1.0000
  H   H7        1.0  0.5568381067518677  0.4356563448401991  0.5606506819439279  1.0000
  H   H8        1.0  0.5577528130556978  0.5898369960078973  0.43690430722663853  1.0000
  C   C14       1.0  0.9904867747066369  0.14203237205397404  0.5534866520772932  1.0000
  C   C15       1.0  0.9798756086960455  0.22555613193744217  0.4349735328642978  1.0000
  C   C16       1.0  0.9772998807070231  0.16070115248674632  0.317423886744316  1.0000
  C   C17       1.0  0.9859375599137352  0.010804119726278255  0.31547062421212324  1.0000
  C   C18       1.0  0.994349959534313  0.9258053174942219  0.4332181320631259  1.0000
  C   C19       1.0  0.995671507554828  0.9891189569855723  0.5528746747737276  1.0000
  C   C20       1.0  0.9819382989224047  0.9408933827598902  0.1888445695961447  1.0000
  C   C21       1.0  0.8969322352218604  0.9030995160208901  0.16115902524589742  1.0000
  N   N3        1.0  0.8298387633797386  0.8732682752888754  0.13931600128646826  1.0000
  H   H9        1.0  0.06124080495198369  0.21929691861904413  0.8518521370778787  1.0000
  H   H10       1.0  0.9753464562837025  0.3422360130588389  0.4329094093624033  1.0000
  H   H11       1.0  0.9693324990373877  0.2277523645930548  0.22755553088758096  1.0000
  H   H12       1.0  0.9978869885676912  0.8092687584588876  0.4314591907912222  1.0000
  H   H13       1.0  0.04011988848643089  0.6909916066055805  0.7555585123043003  1.0000
  H   H14       1.0  0.019789203800090194  0.8412708420196023  0.1933478814823859  1.0000
  H   H15       1.0  0.006116811107464539  0.015397983154267438  0.10771246719708327  1.0000
  C   C22       1.0  0.9930031682881119  0.5656442202218431  0.17190648962915267  1.0000
  C   C23       1.0  0.0697504931034385  0.497408232827586  0.1746711782556878  1.0000
  C   C24       1.0  0.1079006795497912  0.4630010926425838  0.05907046879778588  1.0000
  C   C25       1.0  0.06994915385306943  0.49722692846766403  0.9395143096503684  1.0000
  C   C26       1.0  0.9931550937083773  0.5655070513368088  0.9344548145308589  1.0000
  C   C27       1.0  0.9550895579174579  0.5992882217676131  0.05121423022066707  1.0000
  S   S1        1.0  0.20601327314121387  0.3764562851471469  0.06403577617205491  1.0000
  C   C28       1.0  0.16209238293769812  0.20177790448841315  0.0770152639192343  1.0000
  N   N4        1.0  0.13327379067035783  0.08726847659953818  0.08552474425958256  1.0000
  H   H16       1.0  0.9638068035193224  0.5916804528521934  0.4981842251323158  1.0000
  H   H17       1.0  0.1001621241952344  0.47045744625794655  0.266341158907222  1.0000
  H   H18       1.0  0.1004969520711636  0.470151801186117  0.8509152727929167  1.0000
  H   H19       1.0  0.8958969630767579  0.6518947184467145  0.04823529988285547  1.0000
  H   H20       1.0  0.8484463668431292  0.6943464350309576  0.7176901733511238  1.0000
  Zn  Zn1       1.0  0.9033122086587024  0.5667781250753718  0.5544187199393094  1.0000
  Zn  Zn2       1.0  0.08283821957829951  0.5643725711222418  0.5519420999117468  1.0000
  C   C29       1.0  0.9930893909286657  0.5597871201779068  0.790321032474201  1.0000
  C   C30       1.0  0.993063008890884  0.5713653695812553  0.31603988645223136  1.0000
  C   C31       1.0  0.9946862303993557  0.8290025121294071  0.5478165085615041  1.0000
  C   C32       1.0  0.991466097567977  0.30214824556407427  0.5585444816834062  1.0000
  O   O1        1.0  0.06121223896663608  0.5723662520012538  0.3634725112535151  1.0000
  O   O2        1.0  0.061196242457514316  0.5569593899543501  0.7410083374100376  1.0000
  O   O3        1.0  0.06248479237987991  0.7743542357119442  0.5451842301773042  1.0000
  O   O4        1.0  0.059923627827957786  0.35497141739975535  0.5592965219734223  1.0000
  O   O5        1.0  0.9262267391456359  0.7761792796203275  0.5470642987159524  1.0000
  O   O6        1.0  0.924938199812079  0.5587861667508831  0.7428883354685272  1.0000
  O   O7        1.0  0.9249541957570182  0.5741929788164941  0.36535094833480564  1.0000
  O   O8        1.0  0.9236655845712443  0.35679813388136905  0.5611750564058582  1.0000
