data_image0
_chemical_formula_structural       NC12NC2H8C6BrH5C6ClH5Zn2C4O8
_chemical_formula_sum              "N2 C30 H18 Br1 Cl1 Zn2 O8"
_cell_length_a       19.240039667572717
_cell_length_b       9.276564384272257
_cell_length_c       10.302974078461048
_cell_angle_alpha    85.51203645114332
_cell_angle_beta     89.99986526728996
_cell_angle_gamma    90.58593109150864

_space_group_name_H-M_alt    "P 1"
_space_group_IT_number       1

loop_
  _space_group_symop_operation_xyz
  'x, y, z'

loop_
  _atom_site_type_symbol
  _atom_site_label
  _atom_site_symmetry_multiplicity
  _atom_site_fract_x
  _atom_site_fract_y
  _atom_site_fract_z
  _atom_site_occupancy
  N   N1        1.0  0.6622605029278346  0.5782294775136931  0.5667645832484647  1.0000
  C   C1        1.0  0.6021121345704599  0.5782295707692182  0.5667645012700917  1.0000
  C   C2        1.0  0.5272940980716181  0.5782297010073265  0.566764363915143  1.0000
  C   C3        1.0  0.49046730019274054  0.506644882413686  0.6701946845388598  1.0000
  C   C4        1.0  0.4177959449018292  0.5065217564335547  0.6702812885843079  1.0000
  C   C5        1.0  0.38096186364138057  0.5782298037962021  0.5667641362334523  1.0000
  C   C6        1.0  0.4185034617916464  0.649938058790615  0.4632471782060086  1.0000
  C   C7        1.0  0.49117354177493255  0.6498146713052555  0.4633339049035856  1.0000
  C   C8        1.0  0.3037567727712063  0.5782297164500989  0.566764040913764  1.0000
  C   C9        1.0  0.265948803597404  0.45246193368093857  0.6087131396214489  1.0000
  C   C10       1.0  0.1932787006138982  0.45258063909795254  0.6086217574218467  1.0000
  C   C11       1.0  0.1574244851407051  0.5782295730129576  0.5667641019090561  1.0000
  C   C12       1.0  0.0826064473626825  0.5782294467075673  0.5667643505799329  1.0000
  N   N2        1.0  0.022458130286800694  0.5782294013738605  0.5667645589633166  1.0000
  C   C13       1.0  0.19451778093935193  0.7038785911292418  0.5249063934613016  1.0000
  C   C14       1.0  0.26718906354424016  0.7039974965584188  0.5248148485743891  1.0000
  H   H1        1.0  0.5179087999479199  0.45122235121644855  0.7509497966180549  1.0000
  H   H2        1.0  0.3904336400040274  0.4519854241857018  0.7521508868592834  1.0000
  H   H3        1.0  0.3916792360494991  0.7044744210786662  0.38137752907745415  1.0000
  H   H4        1.0  0.5191618129335346  0.7052370911656386  0.38257906860988933  1.0000
  H   H5        1.0  0.2925539097217468  0.3534614336231465  0.6399430250024232  1.0000
  H   H6        1.0  0.1650806112583484  0.3545785970528774  0.640883534010031  1.0000
  H   H7        1.0  0.16728604671275304  0.8018806059278742  0.49264463143870557  1.0000
  H   H8        1.0  0.2947704366706597  0.8029980845362146  0.4935849183722558  1.0000
  C   C15       1.0  0.8402686228091988  0.1547484896302167  0.5670965426628549  1.0000
  C   C16       1.0  0.8313617560843415  0.2382477885948939  0.4484388207026495  1.0000
  C   C17       1.0  0.8289232300381185  0.1732589290553777  0.3308894200189263  1.0000
  C   C18       1.0  0.8353761284219994  0.023851767791613465  0.3297657206558695  1.0000
  C   C19       1.0  0.8430585703338558  0.9386591400591783  0.4466291376868518  1.0000
  C   C20       1.0  0.8444566322997102  0.0016992916891942396  0.5664437569411307  1.0000
  Br  Br1       1.0  0.8325511659120839  0.9354940064998495  0.16846740452595754  1.0000
  H   H9        1.0  0.8198875586330714  0.41730087616059874  0.7781635420845983  1.0000
  H   H10       1.0  0.8279318224590706  0.35490418179817773  0.4462162289573377  1.0000
  H   H11       1.0  0.8226775360894026  0.23947916971047659  0.24045770067662464  1.0000
  H   H12       1.0  0.8462743903553729  0.8224191574725308  0.44383010082516855  1.0000
  H   H13       1.0  0.8827978054773806  0.7037666094036839  0.7686446976311205  1.0000
  C   C21       1.0  0.8423626322737341  0.5782239246683858  0.18552767829901784  1.0000
  C   C22       1.0  0.8295321296621657  0.4284439365698134  0.19487678411096976  1.0000
  C   C23       1.0  0.8231660198341174  0.3541271860358146  0.08255876423034225  1.0000
  C   C24       1.0  0.8295321611499243  0.4284440180128304  0.9597688850770907  1.0000
  C   C25       1.0  0.8423626301328033  0.5782238502290709  0.9480126974298079  1.0000
  C   C26       1.0  0.848715351085042  0.6523837609564103  0.061545320761963174  1.0000
  Cl  Cl1       1.0  0.8071376762457753  0.1670163983549524  0.09574156117075083  1.0000
  H   H14       1.0  0.8471960619143737  0.634643460985066  0.5093089705934728  1.0000
  H   H15       1.0  0.8244291486088214  0.36887293763535167  0.2891203715285977  1.0000
  H   H16       1.0  0.8244291970751002  0.3688729170578627  0.8739194054705418  1.0000
  H   H17       1.0  0.8586105886231584  0.7678985833749294  0.053406684719656594  1.0000
  H   H18       1.0  0.8471959295971399  0.6346434482235603  0.6162813401219518  1.0000
  Zn  Zn1       1.0  0.7662057476202019  0.5782256054786576  0.5667720651510022  1.0000
  Zn  Zn2       1.0  0.9185128461983716  0.5782215101603103  0.5667676815130274  1.0000
  C   C27       1.0  0.8423326627709418  0.5724789184152843  0.8038911028630293  1.0000
  C   C28       1.0  0.8423876032337864  0.583970016740444  0.3296487697749968  1.0000
  C   C29       1.0  0.8436614294517673  0.8416075844109463  0.5613937263762916  1.0000
  C   C30       1.0  0.8410587760138413  0.3148396181497192  0.5721462168142151  1.0000
  O   O1        1.0  0.9001957027617884  0.5858906122073495  0.3780154659177395  1.0000
  O   O2        1.0  0.9001221215379213  0.5705541267897647  0.7555207067568339  1.0000
  O   O3        1.0  0.9011943382689354  0.7878789281986616  0.5597023584014142  1.0000
  O   O4        1.0  0.8991234341096915  0.3685658211159346  0.5738337169243157  1.0000
  O   O5        1.0  0.7855951077339517  0.787881294526001  0.5597060297343797  1.0000
  O   O6        1.0  0.7845228995671273  0.5705582257151331  0.7555243075319849  1.0000
  O   O7        1.0  0.7845964805887529  0.5858946608795174  0.37801750584852845  1.0000
  O   O8        1.0  0.7835242118828091  0.36856985947358756  0.5738358541986146  1.0000
