data_image0
_chemical_formula_structural       NC8NH4C6ClH5C6FH3Zn2C4O8
_chemical_formula_sum              "N2 C24 H12 Cl1 F1 Zn2 O8"
_cell_length_a       11.048855714531884
_cell_length_b       9.276545438789551
_cell_length_c       9.275646106892307
_cell_angle_alpha    84.98577803735094
_cell_angle_beta     90.02253791369307
_cell_angle_gamma    89.40961225544244

_space_group_name_H-M_alt    "P 1"
_space_group_IT_number       1

loop_
  _space_group_symop_operation_xyz
  'x, y, z'

loop_
  _atom_site_type_symbol
  _atom_site_label
  _atom_site_symmetry_multiplicity
  _atom_site_fract_x
  _atom_site_fract_y
  _atom_site_fract_z
  _atom_site_occupancy
  N   N1        1.0  0.1253564939250454  0.5950011673086526  0.408894831424075  1.0000
  C   C1        1.0  0.0713104843222876  0.5379655982190081  0.32376085030698376  1.0000
  C   C2        1.0  0.003877730403245799  0.46680147086304125  0.21753767148267333  1.0000
  C   C3        1.0  0.87616097670804  0.46680127922449066  0.21753777322760426  1.0000
  C   C4        1.0  0.8139645206973305  0.3964523601822201  0.11253171404228036  1.0000
  C   C5        1.0  0.8779595539608137  0.32665990240763  0.008356172293782825  1.0000
  C   C6        1.0  0.004365767342562557  0.32665979205339135  0.008356194922878757  1.0000
  C   C7        1.0  0.0672220586507235  0.39645245890302583  0.11253168634749612  1.0000
  C   C8        1.0  0.8075670625903365  0.5379656732841551  0.323760837201273  1.0000
  N   N2        1.0  0.7525903797071882  0.5950012096684728  0.4088948602785414  1.0000
  H   H1        1.0  0.7159094665246643  0.39557143536525863  0.11121614302638892  1.0000
  H   H2        1.0  0.8295033400035798  0.27252723574312365  0.9275558133768658  1.0000
  H   H3        1.0  0.05370538028385387  0.2725273451605881  0.927555812831735  1.0000
  H   H4        1.0  0.16529147882760853  0.3955713833906376  0.11121641847978503  1.0000
  C   C9        1.0  0.44263189932903235  0.1715685619152858  0.40865691952240146  1.0000
  C   C10       1.0  0.44302214912635995  0.2566385680430858  0.2754400491982534  1.0000
  C   C11       1.0  0.4324027180331083  0.19294683929917245  0.14512266729245216  1.0000
  C   C12       1.0  0.42114212183449506  0.04334617072172864  0.1460172547635037  1.0000
  C   C13       1.0  0.42261790311062186  0.9567637865764158  0.276788927834587  1.0000
  C   C14       1.0  0.43532672024971425  0.018422589522849142  0.40914525451808226  1.0000
  Cl  Cl1       1.0  0.43138101748720215  0.3013228189211328  0.9803484039441269  1.0000
  H   H5        1.0  0.504647199877639  0.43211130533398423  0.6355729762672728  1.0000
  H   H6        1.0  0.4486918207828066  0.3733895619109337  0.27258249628790815  1.0000
  H   H7        1.0  0.41239699054577655  0.9936981504451406  0.04519594664827009  1.0000
  H   H8        1.0  0.416699527305319  0.8405315817099078  0.2741349215698625  1.0000
  H   H9        1.0  0.39487349425914986  0.7172018471875339  0.6425314720269968  1.0000
  C   C15       1.0  0.43879950586525096  0.5995086738097426  0.985063239681221  1.0000
  C   C16       1.0  0.5494872133587174  0.6145790455861075  0.057132787427988996  1.0000
  C   C17       1.0  0.6587915216591302  0.6161102214295546  0.9816878575833745  1.0000
  C   C18       1.0  0.6593289991428497  0.6024531930376542  0.8333037279705953  1.0000
  C   C19       1.0  0.5505171064788109  0.5897870388737056  0.7593036076350113  1.0000
  C   C20       1.0  0.4391590377587487  0.5904824577809128  0.8327389178416449  1.0000
  F   F1        1.0  0.7646681187956319  0.6291284149078169  0.05313058283012961  1.0000
  H   H10       1.0  0.15916599632555117  0.48236219843947703  0.0981485834829785  1.0000
  H   H11       1.0  0.7441952688165256  0.6030564177984612  0.7749887172360008  1.0000
  H   H12       1.0  0.2497919524167978  0.5175438949418991  0.557851096619788  1.0000
  Zn  Zn1       1.0  0.3063626956341714  0.5949972225011075  0.4089031693257823  1.0000
  Zn  Zn2       1.0  0.5715843121568152  0.5949932020279711  0.40889832757434186  1.0000
  C   C21       1.0  0.43913796680418843  0.5864442723396063  0.6725067538027123  1.0000
  C   C22       1.0  0.43881192156442494  0.6035479699905654  0.1452948857546441  1.0000
  C   C23       1.0  0.4366988615388437  0.8584103619171378  0.4033014635973844  1.0000
  C   C24       1.0  0.4412509513049818  0.33158014719669016  0.41450025191165674  1.0000
  O   O1        1.0  0.5394663639077504  0.604895778287341  0.19906824886422747  1.0000
  O   O2        1.0  0.5397806037983648  0.5850923292384678  0.6187292998113487  1.0000
  O   O3        1.0  0.5378096392733893  0.8047083700931303  0.4013441241877638  1.0000
  O   O4        1.0  0.5414372377956691  0.38527974890128136  0.4164533162771824  1.0000
  O   O5        1.0  0.336509679488179  0.8047106756308195  0.4013481806170036  1.0000
  O   O6        1.0  0.3384806290308051  0.5850963679955232  0.618733280282965  1.0000
  O   O7        1.0  0.3381663889180418  0.6048997852744699  0.19907049402989685  1.0000
  O   O8        1.0  0.3401372629358797  0.38528374442282964  0.416455669647543  1.0000
