data_image0
_chemical_formula_structural       NC5NC4H6C6NH7C6H6Zn2C4O8
_chemical_formula_sum              "N3 C25 H19 Zn2 O8"
_cell_length_a       13.854160002989762
_cell_length_b       9.274771166103582
_cell_length_c       10.681121600428286
_cell_angle_alpha    85.45578074471726
_cell_angle_beta     89.99987030852816
_cell_angle_gamma    90.59704847255895

_space_group_name_H-M_alt    "P 1"
_space_group_IT_number       1

loop_
  _space_group_symop_operation_xyz
  'x, y, z'

loop_
  _atom_site_type_symbol
  _atom_site_label
  _atom_site_symmetry_multiplicity
  _atom_site_fract_x
  _atom_site_fract_y
  _atom_site_fract_z
  _atom_site_occupancy
  N   N1        1.0  0.9199238439074806  0.5786600525944438  0.6161556908630269  1.0000
  C   C1        1.0  0.8477671623815021  0.6038769225688401  0.5648216950711158  1.0000
  C   C2        1.0  0.7580032371064015  0.6352473927782851  0.5009602391904635  1.0000
  C   C3        1.0  0.670226201460217  0.605758339357392  0.5633134626787748  1.0000
  C   C4        1.0  0.5828608248351671  0.6352474071105174  0.5009602190375514  1.0000
  C   C5        1.0  0.492659019989092  0.6038767752210389  0.564821774897281  1.0000
  N   N2        1.0  0.4201502728666198  0.5786599890853424  0.6161556908884055  1.0000
  C   C6        1.0  0.5833093491340312  0.6948320341052878  0.37626929150295957  1.0000
  C   C7        1.0  0.6710686541942379  0.7264716243262144  0.31382280090404135  1.0000
  C   C8        1.0  0.6714862310054213  0.7862974636540374  0.17915091448818776  1.0000
  C   C9        1.0  0.7583864381605917  0.6948320327799364  0.37626921307970784  1.0000
  H   H1        1.0  0.6699035804906183  0.5595296802418346  0.6598221273637237  1.0000
  H   H2        1.0  0.5155884763309608  0.716622817389369  0.32789156010539783  1.0000
  H   H3        1.0  0.7368161109357463  0.8544712127884141  0.15837923718289296  1.0000
  H   H4        1.0  0.6071076332900672  0.8544712146654654  0.15837929371958714  1.0000
  H   H5        1.0  0.6708547702658894  0.6957559375305667  0.11713479627915292  1.0000
  H   H6        1.0  0.8264114361979177  0.7166229298947147  0.3278914857165913  1.0000
  C   C10       1.0  0.16707832414448576  0.155063465680914  0.6168382906178111  1.0000
  C   C11       1.0  0.14486726073876222  0.23837221241318685  0.5048504753560636  1.0000
  C   C12       1.0  0.13166817182157975  0.1733228207021595  0.3921521465038953  1.0000
  C   C13       1.0  0.14073074902946203  0.023587209191852743  0.39062534839769236  1.0000
  C   C14       1.0  0.1611569410434195  0.9389590345120322  0.5010747784133835  1.0000
  C   C15       1.0  0.17300497246105354  0.002245503536894455  0.6154839959642049  1.0000
  N   N3        1.0  0.11005013934636748  0.2597310652450567  0.2789335203122505  1.0000
  H   H7        1.0  0.27570659010858  0.23472378528084972  0.8909069310681486  1.0000
  H   H8        1.0  0.1400004584451653  0.35496492113651984  0.504369432620301  1.0000
  H   H9        1.0  0.13103222020025163  0.9720999818171123  0.30391535453661517  1.0000
  H   H10       1.0  0.16541070881273745  0.8227950183447391  0.49748826102075494  1.0000
  H   H11       1.0  0.24225832287416565  0.7051791944547775  0.8019477100275108  1.0000
  H   H12       1.0  0.10339983269551078  0.3718049673929642  0.27889284556020977  1.0000
  H   H13       1.0  0.10044247821397256  0.21226104573114205  0.1942829919661649  1.0000
  C   C16       1.0  0.1700416621890486  0.5786544464355099  0.24841590218111123  1.0000
  C   C17       1.0  0.10039358765430784  0.49842893348518374  0.18712165572363393  1.0000
  C   C18       1.0  0.1003935280375567  0.49842902597837063  0.05623951562287434  1.0000
  C   C19       1.0  0.17004158680429704  0.5786545171458013  0.9839063377444104  1.0000
  C   C20       1.0  0.23963217396278327  0.6588135471714307  0.04520011012909864  1.0000
  C   C21       1.0  0.23963216145701843  0.6588135248037437  0.17609240882790034  1.0000
  H   H14       1.0  0.24047433348255765  0.6597844835212134  0.5415439575209167  1.0000
  H   H15       1.0  0.04580013881532996  0.4355443848072456  0.24025901230792449  1.0000
  H   H16       1.0  0.045800119131682804  0.43554445270730274  0.011754982973843475  1.0000
  H   H17       1.0  0.29423275253837566  0.7217063824138943  0.9921070756663269  1.0000
  H   H18       1.0  0.29423270355280273  0.721706331846844  0.22053144323156573  1.0000
  H   H19       1.0  0.24047463121693763  0.6597839809546473  0.6796149326109191  1.0000
  Zn  Zn1       1.0  0.06427836435515455  0.5786561723032169  0.6161629365673222  1.0000
  Zn  Zn2       1.0  0.275795671015566  0.5786520653165657  0.6161587488073526  1.0000
  C   C22       1.0  0.16999927202934884  0.5729079358986318  0.844892099230096  1.0000
  C   C23       1.0  0.17007708583636227  0.5844021217344351  0.38742970610222116  1.0000
  C   C24       1.0  0.1718797300210395  0.8421100339329723  0.6107496665065164  1.0000
  C   C25       1.0  0.16819654354455596  0.315198290632142  0.6215722083629576  1.0000
  O   O1        1.0  0.25035864585733614  0.5863232424014879  0.43408242943209396  1.0000
  O   O2        1.0  0.2502544459735734  0.5709826099200159  0.7982358387358388  1.0000
  O   O3        1.0  0.251771857509266  0.7883667086290196  0.6091641653386843  1.0000
  O   O4        1.0  0.24884116221730812  0.36893915401277666  0.6231540089180401  1.0000
  O   O5        1.0  0.091232800972947  0.7883690836099786  0.6091676764514742  1.0000
  O   O6        1.0  0.08971540155690506  0.5709867179718993  0.7982392803063112  1.0000
  O   O7        1.0  0.08981960115329721  0.5863273001862936  0.4340843654603386  1.0000
  O   O8        1.0  0.0883021174371399  0.36894320148026144  0.6231560388523328  1.0000
