data_image0
_chemical_formula_structural       NC6NC2H4C6BrH3C7F3H4Zn2C4O8
_chemical_formula_sum              "N2 C25 H11 Br1 F3 Zn2 O8"
_cell_length_a       14.927258858638513
_cell_length_b       9.276564384272257
_cell_length_c       10.299327507215196
_cell_angle_alpha    85.50433020317719
_cell_angle_beta     89.98118973128214
_cell_angle_gamma    90.58593300640023

_space_group_name_H-M_alt    "P 1"
_space_group_IT_number       1

loop_
  _space_group_symop_operation_xyz
  'x, y, z'

loop_
  _atom_site_type_symbol
  _atom_site_label
  _atom_site_symmetry_multiplicity
  _atom_site_fract_x
  _atom_site_fract_y
  _atom_site_fract_z
  _atom_site_occupancy
  N   N1        1.0  0.8539245649422107  0.5784496479286152  0.5662415732245918  1.0000
  C   C1        1.0  0.7763980735911858  0.5784496194176543  0.5662415827859009  1.0000
  C   C2        1.0  0.6799655667885987  0.5784497345220414  0.566241537778206  1.0000
  C   C3        1.0  0.632788594480714  0.554776627430309  0.45212513331782334  1.0000
  C   C4        1.0  0.5390772833274499  0.5547766530844813  0.452125013062643  1.0000
  C   C5        1.0  0.4921495016647028  0.5784495569705523  0.5662415546967581  1.0000
  C   C6        1.0  0.3957169278706002  0.5784496720779047  0.5662415096837237  1.0000
  N   N2        1.0  0.3181904365195748  0.5784496435669444  0.5662415192450327  1.0000
  C   C7        1.0  0.5393264069810719  0.6021226640652497  0.6803579591518014  1.0000
  C   C8        1.0  0.6330377181343366  0.602122638411078  0.6803580794069817  1.0000
  H   H1        1.0  0.6683878472851552  0.5363576154204017  0.36333602117416586  1.0000
  H   H2        1.0  0.5032841930304743  0.5363578129574318  0.3633360165777173  1.0000
  H   H3        1.0  0.5037272210767443  0.6205416657427266  0.7691471686798328  1.0000
  H   H4        1.0  0.6688308090251027  0.6205415758511242  0.7691471749456593  1.0000
  C   C9        1.0  0.08336268223782595  0.15496862033596015  0.5665736660075247  1.0000
  C   C10       1.0  0.07190925951764565  0.23848614319680572  0.447872639612751  1.0000
  C   C11       1.0  0.06879275878695858  0.17351533773780448  0.3302803394174625  1.0000
  C   C12       1.0  0.07711028128859515  0.02410834947008933  0.3291562304062956  1.0000
  C   C13       1.0  0.08698592408651919  0.9388977733485097  0.4460622969609278  1.0000
  C   C14       1.0  0.08876083815708084  0.0019195229206019344  0.5659206423408913  1.0000
  Br  Br1       1.0  0.07350558131922696  0.9357753615642359  0.16779904868683082  1.0000
  H   H5        1.0  0.060762995870551145  0.23974946726851518  0.23981561682859878  1.0000
  H   H6        1.0  0.09113149074831961  0.8226582208654151  0.4432622388188905  1.0000
  H   H7        1.0  0.13813384251256955  0.7039557873266095  0.7681953783638305  1.0000
  C   C15       1.0  0.08614791941316402  0.5785026600925893  0.18486554923545606  1.0000
  C   C16       1.0  0.17357211763937785  0.6363253025953606  0.1795504907745309  1.0000
  C   C17       1.0  0.21703563081695876  0.667942247991873  0.05957111800922443  1.0000
  C   C18       1.0  0.17334587893897813  0.6361723801012218  0.9443131510335463  1.0000
  C   C19       1.0  0.08597562579350161  0.5783855351834633  0.9476288158458316  1.0000
  C   C20       1.0  0.04275369707760368  0.5504204176028575  0.06837793981604001  1.0000
  C   C21       1.0  0.3120841676863988  0.7251279071310817  0.055264687302465594  1.0000
  F   F1        1.0  0.32826907580133113  0.8093408013178176  0.15809092288163806  1.0000
  F   F2        1.0  0.37052481544580607  0.6101500059241041  0.0632222859668774  1.0000
  F   F3        1.0  0.3280228478369174  0.8093212355292205  0.9404475343180237  1.0000
  H   H8        1.0  0.9217605558521401  0.4669735271653639  0.4023036402437561  1.0000
  H   H9        1.0  0.2080562540269456  0.6566081503051848  0.26893138097653746  1.0000
  H   H10       1.0  0.20767481035942292  0.6563464547325923  0.8519175621982331  1.0000
  H   H11       1.0  0.9753709959403194  0.5058568502459717  0.07166957009254715  1.0000
  Zn  Zn1       1.0  0.9879016484401248  0.578445781328882  0.5662490649938048  1.0000
  Zn  Zn2       1.0  0.18421328621065214  0.5784416963317407  0.5662446902124036  1.0000
  C   C22       1.0  0.08596955342672512  0.5726626803327679  0.803454643900427  1.0000
  C   C23       1.0  0.08614753650944729  0.5842266168253727  0.32903923732586726  1.0000
  C   C24       1.0  0.08773702665762302  0.8418285912185519  0.560868768726106  1.0000
  C   C25       1.0  0.08437998523253554  0.3150589733336859  0.5716251830784123  1.0000
  O   O1        1.0  0.1606466113517977  0.5861397873863056  0.3774235887356796  1.0000
  O   O2        1.0  0.16046646246065388  0.5707453215040479  0.755066599113013  1.0000
  O   O3        1.0  0.1618927148568312  0.7881001984253571  0.55917678744076  1.0000
  O   O4        1.0  0.15922029205550714  0.36878492079742703  0.5733133030235582  1.0000
  O   O5        1.0  0.012894575603753964  0.7881025568661606  0.5591804521773107  1.0000
  O   O6        1.0  0.011468334262074505  0.5707494125537182  0.7550701932659996  1.0000
  O   O7        1.0  0.011648483245265243  0.5861438284225033  0.3774256214746785  1.0000
  O   O8        1.0  0.010222163857571907  0.3687889515041589  0.573315433141592  1.0000
