data_image0
_chemical_formula_structural       NC8NH4C6BrH5C7NH4Zn2C4O8
_chemical_formula_sum              "N3 C25 H13 Br1 Zn2 O8"
_cell_length_a       13.859017124695912
_cell_length_b       9.276564384272257
_cell_length_c       9.275157849593905
_cell_angle_alpha    86.064957766791
_cell_angle_beta     89.74086887057864
_cell_angle_gamma    90.58596084768166

_space_group_name_H-M_alt    "P 1"
_space_group_IT_number       1

loop_
  _space_group_symop_operation_xyz
  'x, y, z'

loop_
  _atom_site_type_symbol
  _atom_site_label
  _atom_site_symmetry_multiplicity
  _atom_site_fract_x
  _atom_site_fract_y
  _atom_site_fract_z
  _atom_site_occupancy
  N   N1        1.0  0.9241034747272953  0.5629060366268377  0.4090516206756838  1.0000
  C   C1        1.0  0.8517586995247484  0.5395070358650156  0.3529175226551662  1.0000
  C   C2        1.0  0.7617660966268318  0.5104020934054714  0.2830939187672874  1.0000
  C   C3        1.0  0.6741391041830694  0.538776451594041  0.3511631471023078  1.0000
  C   C4        1.0  0.5865357868756699  0.5104033135978221  0.2830933385339145  1.0000
  C   C5        1.0  0.5867418814845694  0.45364811661933446  0.1469334064286285  1.0000
  C   C6        1.0  0.6741862671470047  0.4253828175899421  0.0791261949090536  1.0000
  C   C7        1.0  0.761607220783319  0.45364577860980404  0.14693458655713054  1.0000
  C   C8        1.0  0.4965188686253204  0.5395079575827946  0.3529170239429098  1.0000
  N   N2        1.0  0.4241546031640767  0.5629063571428281  0.40905140443160626  1.0000
  H   H1        1.0  0.674120790802613  0.5827071715756456  0.4565541959569903  1.0000
  H   H2        1.0  0.5194557619697482  0.4313164044642084  0.09335547054383042  1.0000
  H   H3        1.0  0.6742046146109621  0.38154181560878125  0.9739485800941869  1.0000
  H   H4        1.0  0.8289119416716475  0.43131197543935307  0.09335765150000919  1.0000
  C   C9        1.0  0.17122548676158833  0.13942879424377286  0.4094200441861455  1.0000
  C   C10       1.0  0.15925013349649442  0.22165939356332687  0.27770527137969636  1.0000
  C   C11       1.0  0.15625093453034  0.15541369169234964  0.14722077678655943  1.0000
  C   C12       1.0  0.16521298259517136  0.005994522932983411  0.14597342359814447  1.0000
  C   C13       1.0  0.1754943992044007  0.922051408765745  0.27569644723507314  1.0000
  C   C14       1.0  0.17704171357656337  0.9863726213254389  0.40869542463283315  1.0000
  Br  Br1       1.0  0.1618210139664198  0.9159121549395843  0.9669258983981202  1.0000
  H   H5        1.0  0.1422377727887194  0.4042378892763997  0.6437127895416503  1.0000
  H   H6        1.0  0.1544957648247145  0.33829201900802186  0.27523810766357015  1.0000
  H   H7        1.0  0.1478772863816091  0.22066702840385455  0.046837985053707065  1.0000
  H   H8        1.0  0.1799680158838366  0.805781502386621  0.27258940417245947  1.0000
  H   H9        1.0  0.22960536768503426  0.6906019162516462  0.6331464719544674  1.0000
  C   C15       1.0  0.17538592549680046  0.5588244925794168  0.9858634751487415  1.0000
  C   C16       1.0  0.258874365220805  0.6058361539076083  0.055519255816371745  1.0000
  C   C17       1.0  0.33749106099405046  0.6641873835703118  0.9755911399147559  1.0000
  C   C18       1.0  0.3335375114517165  0.6764546156168018  0.824921699606363  1.0000
  C   C19       1.0  0.252024815185931  0.6282752047827229  0.7539253753328925  1.0000
  C   C20       1.0  0.1728812968444016  0.5669769141499527  0.8322520722073912  1.0000
  C   C21       1.0  0.4219389950446788  0.7132073306433313  0.04855279423903314  1.0000
  N   N3        1.0  0.48981350632827253  0.7526061502626069  0.10720166016183974  1.0000
  H   H10       1.0  0.9402837280342642  0.5102017941500929  0.09374277292479727  1.0000
  H   H11       1.0  0.3939344284930444  0.7220697935341205  0.7620598553309703  1.0000
  H   H12       1.0  0.2518634245418414  0.6358568632499488  0.6368544494526338  1.0000
  H   H13       1.0  0.015557891671148067  0.5281851215523388  0.554878818267837  1.0000
  Zn  Zn1       1.0  0.06840738062353591  0.5629023591484965  0.4090598881611181  1.0000
  Zn  Zn2       1.0  0.27985057387000967  0.5628983848208895  0.4090549668750034  1.0000
  C   C22       1.0  0.1733130976910631  0.5596910356658693  0.67227139393281  1.0000
  C   C23       1.0  0.1749471778323897  0.5661115291690362  0.14584360093883575  1.0000
  C   C24       1.0  0.1759543468661533  0.8262269181816126  0.40308969076566026  1.0000
  C   C25       1.0  0.17230584438098107  0.2995739148125114  0.41502538242205805  1.0000
  O   O1        1.0  0.25504147679536016  0.5685493256599008  0.19953253037036078  1.0000
  O   O2        1.0  0.25369928369640604  0.55724913085868  0.6185783154433495  1.0000
  O   O3        1.0  0.2558310396790946  0.7724802412502025  0.40121218437304074  1.0000
  O   O4        1.0  0.25290964905203217  0.3533182245449482  0.4168985533796119  1.0000
  O   O5        1.0  0.09534823328636174  0.7724825194272908  0.4012163016506074  1.0000
  O   O6        1.0  0.09321648942484038  0.557253140879403  0.6185823543989413  1.0000
  O   O7        1.0  0.09455868737014606  0.5685532687388553  0.19953483672682482  1.0000
  O   O8        1.0  0.09242685923230631  0.353322158350186  0.4169009677912312  1.0000
