data_image0
_chemical_formula_structural       NC12NH6C10H8C12H10Zn2C4O8
_chemical_formula_sum              "N2 C38 H24 Zn2 O8"
_cell_length_a       10.983627670091314
_cell_length_b       12.067250634219235
_cell_length_c       14.99406129037835
_cell_angle_alpha    87.91431575502413
_cell_angle_beta     90.0223096529441
_cell_angle_gamma    92.90297359049036

_space_group_name_H-M_alt    "P 1"
_space_group_IT_number       1

loop_
  _space_group_symop_operation_xyz
  'x, y, z'

loop_
  _atom_site_type_symbol
  _atom_site_label
  _atom_site_symmetry_multiplicity
  _atom_site_fract_x
  _atom_site_fract_y
  _atom_site_fract_z
  _atom_site_occupancy
  N   N1        1.0  0.21437954478311316  0.2115909885354821  0.056599461767245285  1.0000
  C   C1        1.0  0.1586150270632931  0.17475643417443987  0.11710582905930804  1.0000
  C   C2        1.0  0.08898931722144021  0.12875845200373237  0.19266409981857233  1.0000
  C   C3        1.0  0.15185875652298408  0.08431710418830374  0.2656624510578903  1.0000
  C   C4        1.0  0.08868248856287297  0.039039673256554774  0.3400379588207858  1.0000
  C   C5        1.0  0.9611613860845056  0.03742986581206753  0.34268649600949064  1.0000
  C   C6        1.0  0.8982467580946502  0.9916385698191561  0.4179044398583142  1.0000
  C   C7        1.0  0.7711809071963339  0.9897531333147108  0.4210001152852847  1.0000
  C   C8        1.0  0.7058248125094106  0.03340572629023364  0.3492958225132371  1.0000
  C   C9        1.0  0.7669858019886544  0.07928372378143723  0.27393704100628413  1.0000
  C   C10       1.0  0.8955365516391844  0.08211465158027198  0.2692866041158316  1.0000
  C   C11       1.0  0.9603781087277615  0.1280926981189281  0.1937592568018146  1.0000
  C   C12       1.0  0.8963555272170155  0.17443499648721783  0.11763445210628931  1.0000
  N   N2        1.0  0.8453299109408221  0.21143776981933773  0.05685150114049675  1.0000
  H   H1        1.0  0.25054563048218204  0.08467174636922992  0.26507780805503356  1.0000
  H   H2        1.0  0.1397053111371389  0.005179517838133969  0.3956544639877229  1.0000
  H   H3        1.0  0.9473732013322625  0.957311599673593  0.47429108608037857  1.0000
  H   H4        1.0  0.7232130403688433  0.9543354222653393  0.4791773590074382  1.0000
  H   H5        1.0  0.607268560330392  0.03170879830751949  0.3520813217694503  1.0000
  H   H6        1.0  0.7130026830176724  0.11229650504208366  0.21970786136156495  1.0000
  C   C13       1.0  0.5116717095234071  0.8863517416083446  0.04595971798166465  1.0000
  C   C14       1.0  0.43972867155316364  0.8153689794237792  0.993040910604813  1.0000
  C   C15       1.0  0.4512788276346351  0.7006211040355502  0.999016967298528  1.0000
  C   C16       1.0  0.5344657033111055  0.6532267007637592  0.05910842258726334  1.0000
  C   C17       1.0  0.6097332817903629  0.7253975228089762  0.11084217550424935  1.0000
  C   C18       1.0  0.5969954975887698  0.8406015017398796  0.10443134589083018  1.0000
  C   C19       1.0  0.698027571054722  0.6818011176206015  0.16780315100626778  1.0000
  C   C20       1.0  0.7132044131725388  0.5679163584809751  0.17349673987662106  1.0000
  C   C21       1.0  0.6392349814641219  0.4960296110538078  0.12383452469061307  1.0000
  C   C22       1.0  0.5480489283040504  0.5366684625317543  0.06749869701676448  1.0000
  H   H7        1.0  0.5631404127589972  0.16123447478852415  0.08814837148473142  1.0000
  H   H8        1.0  0.37456502129253155  0.848615377422215  0.9462838398249749  1.0000
  H   H9        1.0  0.3961645887490553  0.6505195537597067  0.9546888083966518  1.0000
  H   H10       1.0  0.654333230207444  0.8946550449214121  0.14479584103288287  1.0000
  H   H11       1.0  0.7561985109526338  0.7360179914887766  0.20740298236798235  1.0000
  H   H12       1.0  0.7820981324656526  0.5349900743624164  0.21724034179462914  1.0000
  H   H13       1.0  0.6516057722323113  0.4076382085191326  0.13096378736274827  1.0000
  H   H14       1.0  0.28749701786203063  0.4105259908737944  0.9857255529147644  1.0000
  C   C23       1.0  0.5299125749025044  0.211524172400551  0.794762982750148  1.0000
  C   C24       1.0  0.5918139027276105  0.13125515554297637  0.7495364816216193  1.0000
  C   C25       1.0  0.5917482310275223  0.13121188093651437  0.656316903465958  1.0000
  C   C26       1.0  0.5298879004096462  0.21146606071306184  0.6062674290705847  1.0000
  C   C27       1.0  0.4680546769791468  0.29172910576927413  0.65159363834425  1.0000
  C   C28       1.0  0.4680342170753846  0.29171700819599056  0.7448183750313646  1.0000
  C   C29       1.0  0.5298584818161505  0.21145812863931604  0.5071937883726143  1.0000
  C   C30       1.0  0.5423709032958095  0.31174694330351277  0.4565652469606038  1.0000
  C   C31       1.0  0.5423949613587346  0.311746869598571  0.36334080227538834  1.0000
  C   C32       1.0  0.5298080417069397  0.21149602881250695  0.3186954332505526  1.0000
  C   C33       1.0  0.517239826069241  0.11116796488850733  0.36922566582938665  1.0000
  C   C34       1.0  0.517318123626302  0.11116352291824283  0.4624466583933098  1.0000
  H   H15       1.0  0.4674394001375007  0.29277150934036444  0.005157596566227717  1.0000
  H   H16       1.0  0.6406506199649757  0.06853194326321654  0.786151031322424  1.0000
  H   H17       1.0  0.6415520222692055  0.06918567478034408  0.6233463186161639  1.0000
  H   H18       1.0  0.418231237659755  0.35374625027923123  0.6149664679239668  1.0000
  H   H19       1.0  0.41920967835345024  0.3544568703868003  0.7777028479390269  1.0000
  H   H20       1.0  0.5538047184700259  0.3902642978677737  0.48906520136858045  1.0000
  H   H21       1.0  0.5525993845743561  0.39038668427384265  0.32630440500986024  1.0000
  H   H22       1.0  0.542372378200275  0.3129554895784694  0.10293519688205377  1.0000
  H   H23       1.0  0.507016511893402  0.032536354492901834  0.33676234711010933  1.0000
  H   H24       1.0  0.505905831851877  0.03264806589251145  0.4995445873438783  1.0000
  Zn  Zn1       1.0  0.39645802299360255  0.21154380771428238  0.0566772437292945  1.0000
  Zn  Zn2       1.0  0.6632508970264392  0.21147588779884652  0.05678071048376143  1.0000
  C   C35       1.0  0.5295783238410633  0.20709018864315532  0.2195148548746878  1.0000
  C   C36       1.0  0.530133587682958  0.2159309032428296  0.8939432342998097  1.0000
  C   C37       1.0  0.5411672771255363  0.4137449687377339  0.059872467589074385  1.0000
  C   C38       1.0  0.518544468934888  0.009274792824251588  0.05358562504888509  1.0000
  O   O1        1.0  0.6314539966645276  0.21737923639313528  0.9272681378398169  1.0000
  O   O2        1.0  0.6307474864083354  0.2055894705317287  0.1862681957418536  1.0000
  O   O3        1.0  0.6401043477114585  0.3724658192621775  0.0573558761162124  1.0000
  O   O4        1.0  0.6220970447794993  0.050502895610478715  0.056180390804846166  1.0000
  O   O5        1.0  0.43761178419729696  0.37251679992703357  0.05727756336824932  1.0000
  O   O6        1.0  0.42825499731452515  0.20564178154496715  0.18618987949046772  1.0000
  O   O7        1.0  0.4289615057072831  0.21743150887779206  0.927188747768352  1.0000
  O   O8        1.0  0.41960455336091407  0.050555160171726676  0.05610106735403286  1.0000
