data_image0
_chemical_formula_structural       NC8NH4C7NH5C9H10Zn2C4O8
_chemical_formula_sum              "N3 C28 H19 Zn2 O8"
_cell_length_a       13.859017124695912
_cell_length_b       9.275154477615127
_cell_length_c       10.29718717394978
_cell_angle_alpha    85.79368962705624
_cell_angle_beta     89.97407186165773
_cell_angle_gamma    89.43373790894346

_space_group_name_H-M_alt    "P 1"
_space_group_IT_number       1

loop_
  _space_group_symop_operation_xyz
  'x, y, z'

loop_
  _atom_site_type_symbol
  _atom_site_label
  _atom_site_symmetry_multiplicity
  _atom_site_fract_x
  _atom_site_fract_y
  _atom_site_fract_z
  _atom_site_occupancy
  N   N1        1.0  0.8986341098278752  0.5776934960941709  0.572811585107355  1.0000
  C   C1        1.0  0.8264478489864269  0.554833203724342  0.5221150992676138  1.0000
  C   C2        1.0  0.7366524120992285  0.5263983451846124  0.45905518788573135  1.0000
  C   C3        1.0  0.6488331981629256  0.5541194557123036  0.5205306700990895  1.0000
  C   C4        1.0  0.5614220843079577  0.5263995706297203  0.4590546701949426  1.0000
  C   C5        1.0  0.5620126492836143  0.4709510745352082  0.3360843213310254  1.0000
  C   C6        1.0  0.6496485186985576  0.4433365086751356  0.274845474126741  1.0000
  C   C7        1.0  0.736878023339451  0.47094872581114156  0.336085374877922  1.0000
  C   C8        1.0  0.47120800429138543  0.5548341299843069  0.5221146537603074  1.0000
  N   N2        1.0  0.39868523334806993  0.5776938185967613  0.5728113915901969  1.0000
  H   H1        1.0  0.6485172842293548  0.5970387577297008  0.6157126692302558  1.0000
  H   H2        1.0  0.4948778020154447  0.4491335393811074  0.2876963943517776  1.0000
  H   H3        1.0  0.649963853916086  0.4005048762099086  0.17985623730221323  1.0000
  H   H4        1.0  0.8043340474074476  0.44912909057843975  0.28769834090766233  1.0000
  C   C9        1.0  0.15145695187963604  0.15430417283614584  0.5713083528106655  1.0000
  C   C10       1.0  0.1250103613706086  0.23746758851784341  0.4567786138688775  1.0000
  C   C11       1.0  0.090713413982342  0.1714143179474532  0.34831568914727584  1.0000
  C   C12       1.0  0.0822981717852933  0.021294441632133006  0.3531051172986929  1.0000
  C   C13       1.0  0.1096399238325636  0.9369229948176779  0.4650242415301036  1.0000
  C   C14       1.0  0.14587169665726596  0.0010720992903567863  0.5743258752213898  1.0000
  C   C15       1.0  0.06298358892342781  0.2581593564046931  0.2324055685278978  1.0000
  N   N3        1.0  0.04069650217298882  0.32788646534662336  0.13924352166011156  1.0000
  H   H5        1.0  0.17005888437774283  0.23101881395548343  0.8901574069020919  1.0000
  H   H6        1.0  0.12895218469970193  0.35442646496171903  0.4529244172422312  1.0000
  H   H7        1.0  0.05542468137544021  0.9691564557525474  0.26974454781506774  1.0000
  H   H8        1.0  0.10457325287650465  0.82045537954534  0.4649099271644517  1.0000
  H   H9        1.0  0.16249180871432167  0.7023310591040767  0.7879638095824519  1.0000
  C   C16       1.0  0.14879222627121913  0.5776360080129089  0.1913637552430707  1.0000
  C   C17       1.0  0.0507478076187562  0.617237217763486  0.18802300027651972  1.0000
  C   C18       1.0  0.0005167637617102765  0.6375258429425743  0.0696950284076241  1.0000
  C   C19       1.0  0.050367742920164105  0.617390178443869  0.9528008204088674  1.0000
  C   C20       1.0  0.14853642635441022  0.5777402688191744  0.9542704365612251  1.0000
  C   C21       1.0  0.1971075996095888  0.5581206916594612  0.07394179653574096  1.0000
  C   C22       1.0  0.8944746605729401  0.6803570866589149  0.07551393208301693  1.0000
  C   C23       1.0  0.8273057678790904  0.6223660419790749  0.9750354585469305  1.0000
  C   C24       1.0  0.8549487918602579  0.7814273403345116  0.9645027678083995  1.0000
  H   H10       1.0  0.1865743963187778  0.5623894760807571  0.520188512326961  1.0000
  H   H11       1.0  0.012897354617623872  0.6325258186837752  0.27815564506539187  1.0000
  H   H12       1.0  0.013567617208004147  0.632250840433519  0.8602466897325945  1.0000
  H   H13       1.0  0.27275074337942673  0.5275668092479275  0.07579190937084766  1.0000
  H   H14       1.0  0.33394588893578  0.5028343050310236  0.7498309133368813  1.0000
  H   H15       1.0  0.8603911335872315  0.6941249917370724  0.17164028884578264  1.0000
  H   H16       1.0  0.860411813101052  0.5572906310620358  0.9002785665274442  1.0000
  H   H17       1.0  0.7524421462408751  0.6028574791185758  0.010084544685691643  1.0000
  H   H18       1.0  0.9048469370344114  0.8129727902971491  0.8833487698509542  1.0000
  H   H19       1.0  0.7962404371022255  0.8548835372552241  0.9933935444204116  1.0000
  Zn  Zn1       1.0  0.04293808825968104  0.5776897408122146  0.5728190208625685  1.0000
  Zn  Zn2       1.0  0.25438132128490665  0.5776858141283948  0.5728145679590864  1.0000
  C   C25       1.0  0.14862050204455746  0.5719768053827468  0.8100442670701371  1.0000
  C   C26       1.0  0.14870120441161871  0.5834005687008956  0.335589455680223  1.0000
  C   C27       1.0  0.14692419375544152  0.8410142100824307  0.5685791498576878  1.0000
  C   C28       1.0  0.15039745195241228  0.3143614317897692  0.5770546359753227  1.0000
  O   O1        1.0  0.2289123031202165  0.5853274277587751  0.3839912059966599  1.0000
  O   O2        1.0  0.2288899320383675  0.5700458783398196  0.761638759298245  1.0000
  O   O3        1.0  0.22751905949404927  0.787296985281803  0.5666539741084471  1.0000
  O   O4        1.0  0.23028310347791026  0.3680763311186763  0.5789758938285068  1.0000
  O   O5        1.0  0.06703623391147143  0.7872992238248422  0.5666576949878408  1.0000
  O   O6        1.0  0.06840709504890576  0.5700498490972101  0.7616424170896801  1.0000
  O   O7        1.0  0.06842946704999302  0.5853313480603619  0.38399330186271763  1.0000
  O   O8        1.0  0.06980026743910493  0.3680802411212871  0.5789780870472085  1.0000
