data_image0
_chemical_formula_structural       NC8NH4C6NH7C9H8Zn2C4O8
_chemical_formula_sum              "N3 C27 H19 Zn2 O8"
_cell_length_a       13.859017124695912
_cell_length_b       9.274771166103582
_cell_length_c       9.275155815604963
_cell_angle_alpha    85.94411296578332
_cell_angle_beta     90.3574901998649
_cell_angle_gamma    90.59707951677755

_space_group_name_H-M_alt    "P 1"
_space_group_IT_number       1

loop_
  _space_group_symop_operation_xyz
  'x, y, z'

loop_
  _atom_site_type_symbol
  _atom_site_label
  _atom_site_symmetry_multiplicity
  _atom_site_fract_x
  _atom_site_fract_y
  _atom_site_fract_z
  _atom_site_occupancy
  N   N1        1.0  0.9128528058725883  0.5649405419643565  0.4073837961942679  1.0000
  C   C1        1.0  0.8401011509100934  0.5415925537655146  0.3512681959720137  1.0000
  C   C2        1.0  0.7496024419322191  0.5125510644861957  0.2814676005667831  1.0000
  C   C3        1.0  0.6624688393249005  0.5408635639934394  0.34951439783556215  1.0000
  C   C4        1.0  0.574372128159935  0.5125522855924982  0.28146701908488136  1.0000
  C   C5        1.0  0.5735912877464541  0.45592082614628016  0.14535195375534138  1.0000
  C   C6        1.0  0.6605441827425943  0.4277171476447849  0.0775670871177172  1.0000
  C   C7        1.0  0.7484566352418559  0.45591848631588544  0.14535313628168156  1.0000
  C   C8        1.0  0.48486131653845777  0.5415934762352409  0.35126769631174426  1.0000
  N   N2        1.0  0.4129039327938098  0.5649408627854637  0.40738357961706395  1.0000
  H   H1        1.0  0.6632144373974013  0.5846985083828516  0.4548707179058545  1.0000
  H   H2        1.0  0.5059168166614093  0.43363780407929836  0.09179167159194158  1.0000
  H   H3        1.0  0.6598001658935573  0.38397172749328945  0.9724241300161292  1.0000
  H   H4        1.0  0.815373011497603  0.4336333716607424  0.09179385708605925  1.0000
  C   C9        1.0  0.15992399656439504  0.14135093092245077  0.40816926049232527  1.0000
  C   C10       1.0  0.1371745826376698  0.22354934272491045  0.2792865921756836  1.0000
  C   C11       1.0  0.12343051985443565  0.15738257920442544  0.1495862155822738  1.0000
  C   C12       1.0  0.13248247518131695  0.007631837709291429  0.1478290753029674  1.0000
  C   C13       1.0  0.15344014095293512  0.9240987439565392  0.274941273162735  1.0000
  C   C14       1.0  0.1658419632790269  0.988519546458032  0.4066106495805817  1.0000
  N   N3        1.0  0.10126792668684947  0.24266828629880857  0.019287051729878883  1.0000
  H   H5        1.0  0.26985075195177477  0.22372862743217772  0.7235847793864616  1.0000
  H   H6        1.0  0.13230714005930477  0.34013727799518545  0.2787329799540177  1.0000
  H   H7        1.0  0.12236448384008149  0.955284905844129  0.048037720837929676  1.0000
  H   H8        1.0  0.15767492744821454  0.8078991724278753  0.27081367956094193  1.0000
  H   H9        1.0  0.2359803767201363  0.6933020118887707  0.6212048826957526  1.0000
  H   H10       1.0  0.09461975235985398  0.3547417795711736  0.019240243734641282  1.0000
  H   H11       1.0  0.09125081466002417  0.19435898118145278  0.9218658607221375  1.0000
  C   C15       1.0  0.16108959847069573  0.5612891475395017  0.9841654138885204  1.0000
  C   C16       1.0  0.08609797080682056  0.63157493510686  0.051851000190840095  1.0000
  C   C17       1.0  0.017636184590066783  0.7114473561834719  0.9704193059459532  1.0000
  C   C18       1.0  0.02289773844347831  0.7227065308962657  0.8198167914945218  1.0000
  C   C19       1.0  0.0959422574335187  0.6516457350102776  0.7504242670444771  1.0000
  C   C20       1.0  0.16467632661089393  0.568581247752101  0.8306144218317768  1.0000
  C   C21       1.0  0.9525090742920379  0.805948944616427  0.7360662794079165  1.0000
  C   C22       1.0  0.893571273764795  0.8756530982548459  0.6659100130967013  1.0000
  C   C23       1.0  0.8220608561422345  0.9602273030678492  0.5807757694253732  1.0000
  H   H12       1.0  0.38423718335786067  0.44490937146228515  0.09733729381521905  1.0000
  H   H13       1.0  0.08173508185113178  0.6275764059971718  0.16864989659456134  1.0000
  H   H14       1.0  0.9610750230731526  0.7656636660376437  0.025132609477886095  1.0000
  H   H15       1.0  0.09777243043876616  0.6584286351544257  0.6332654910819708  1.0000
  H   H16       1.0  0.3135280399729725  0.4850473911432027  0.5571856644916755  1.0000
  H   H17       1.0  0.8416971656699095  0.9643717728137442  0.4647691487825836  1.0000
  H   H18       1.0  0.7498388006564629  0.9088614289356957  0.5958965827546413  1.0000
  H   H19       1.0  0.8203969845645258  0.07160866761825613  0.6170755746863246  1.0000
  Zn  Zn1       1.0  0.05715677079497272  0.564936855088892  0.407392067970259  1.0000
  Zn  Zn2       1.0  0.26859992812741895  0.5649328847250241  0.4073871501994204  1.0000
  C   C24       1.0  0.1639560782877965  0.5614564696180508  0.6706280423294868  1.0000
  C   C25       1.0  0.16180294290063957  0.56841509140044  0.14415131389397495  1.0000
  C   C26       1.0  0.1646940271339694  0.8283371368462027  0.40116208357289906  1.0000
  C   C27       1.0  0.16106491012300952  0.301532691793698  0.41361735267837063  1.0000
  O   O1        1.0  0.24228388011010663  0.5707988235348838  0.19784218873464177  1.0000
  O   O2        1.0  0.24395559567243444  0.5590686323086861  0.6169330221406124  1.0000
  O   O3        1.0  0.24455042335364507  0.7745781591927217  0.3993373511939975  1.0000
  O   O4        1.0  0.24168897989185  0.35528930603998576  0.41543775160231755  1.0000
  O   O5        1.0  0.08406764687534807  0.7745804337767903  0.3993414665614563  1.0000
  O   O6        1.0  0.08347283097040092  0.5590726392742045  0.6169370574743578  1.0000
  O   O7        1.0  0.0818011077786762  0.5708027653064502  0.19784449139492935  1.0000
  O   O8        1.0  0.08120620794227175  0.3552932384252745  0.41544016233563924  1.0000
