data_image0
_chemical_formula_structural       NC8NC6H8C6NO2H5C7ONH5Zn2C4O8
_chemical_formula_sum              "N4 C31 H18 O11 Zn2"
_cell_length_a       17.457602349358154
_cell_length_b       9.273392599741051
_cell_length_c       10.297855452804892
_cell_angle_alpha    85.66470054647645
_cell_angle_beta     92.86875916188056
_cell_angle_gamma    91.0881455882028

_space_group_name_H-M_alt    "P 1"
_space_group_IT_number       1

loop_
  _space_group_symop_operation_xyz
  'x, y, z'

loop_
  _atom_site_type_symbol
  _atom_site_label
  _atom_site_symmetry_multiplicity
  _atom_site_fract_x
  _atom_site_fract_y
  _atom_site_fract_z
  _atom_site_occupancy
  N   N1        1.0  0.7136231128838553  0.61352308767496  0.6286553907186907  1.0000
  C   C1        1.0  0.6528275629887648  0.5625389512034451  0.6179616850638987  1.0000
  C   C2        1.0  0.5771952801185772  0.4991210261432726  0.6046682684188467  1.0000
  C   C3        1.0  0.5184146678269824  0.5436818669919468  0.6796463256716903  1.0000
  C   C4        1.0  0.44420743343713764  0.4826154954862623  0.6669709670845074  1.0000
  C   C5        1.0  0.3818218325313246  0.5296650893490384  0.7463753616487383  1.0000
  C   C6        1.0  0.3071662204927168  0.5501908244912848  0.690632064397551  1.0000
  C   C7        1.0  0.24838672471836898  0.5945474219605231  0.7657177909647603  1.0000
  C   C8        1.0  0.1722894129754164  0.6157466481871543  0.7077596241146349  1.0000
  N   N2        1.0  0.11112012994377615  0.6327837429958014  0.6611613984840166  1.0000
  C   C9        1.0  0.26376914853135613  0.6186480363548388  0.8970558292257673  1.0000
  C   C10       1.0  0.3376376419174311  0.5985540232287059  0.9531874403703204  1.0000
  C   C11       1.0  0.39640439371246294  0.5543971550961657  0.8785598181105825  1.0000
  C   C12       1.0  0.4300737204618167  0.37623672977845035  0.5778832442940158  1.0000
  C   C13       1.0  0.48884087530371784  0.33198513887287007  0.5033057258723481  1.0000
  C   C14       1.0  0.5622626128324872  0.3931760645971801  0.5165313223657915  1.0000
  H   H1        1.0  0.5302925746058507  0.6271404634685  0.7464138624511241  1.0000
  H   H2        1.0  0.29492083600792823  0.5336091470536526  0.5885638630252805  1.0000
  H   H3        1.0  0.21871431653037535  0.6529129651096173  0.955953703769384  1.0000
  H   H4        1.0  0.3493597940047237  0.616865226341756  0.05488488997236664  1.0000
  H   H5        1.0  0.4529783828321339  0.5377349723936442  0.9246500189741947  1.0000
  H   H6        1.0  0.3738678361029938  0.32590728259470786  0.5671543909968365  1.0000
  H   H7        1.0  0.47747002529246235  0.24976654494462933  0.4353414932034736  1.0000
  H   H8        1.0  0.6073227816246348  0.3579453636652248  0.45814322825734033  1.0000
  C   C15       1.0  0.9147134719104955  0.19973851218285765  0.644283105101475  1.0000
  C   C16       1.0  0.9049551754696066  0.2826447544115933  0.5248318565334917  1.0000
  C   C17       1.0  0.8884278047738041  0.2167796638455686  0.4091324598003694  1.0000
  C   C18       1.0  0.88111155600836  0.06600881033806426  0.4096499794914051  1.0000
  C   C19       1.0  0.8920663358413007  0.9819924245441184  0.528293304642883  1.0000
  C   C20       1.0  0.9100371632103083  0.04655750839857321  0.645545472306793  1.0000
  N   N3        1.0  0.8633909748437487  0.9986695270706705  0.2900442967944108  1.0000
  O   O1        1.0  0.8533358277406927  0.08131218762918357  0.17390585931537128  1.0000
  O   O2        1.0  0.8566367307170222  0.864408943922739  0.28969932205911536  1.0000
  H   H9        1.0  0.8990693020061802  0.27537316422893277  0.96180004059867  1.0000
  H   H10       1.0  0.9083084839218443  0.399650668258962  0.5212684539388768  1.0000
  H   H11       1.0  0.8805975450005734  0.28434201758713495  0.31921904442627863  1.0000
  H   H12       1.0  0.8883615688662525  0.8652105078780994  0.5289149383985741  1.0000
  H   H13       1.0  0.9021170960987595  0.7480296146526155  0.8603532895039632  1.0000
  C   C21       1.0  0.9124046128704042  0.6232928170637733  0.2634749657282036  1.0000
  C   C22       1.0  0.8337581293299127  0.6542519042751407  0.2537219091787013  1.0000
  C   C23       1.0  0.7937063594238596  0.6687044136803626  0.13176168033305702  1.0000
  C   C24       1.0  0.8336666607085123  0.6539230318705598  0.018480886606069946  1.0000
  C   C25       1.0  0.9123460116916492  0.6230031927559498  0.026353621933367554  1.0000
  C   C26       1.0  0.951155426694096  0.6075555949139446  0.14926514254734147  1.0000
  C   C27       1.0  0.7106957011753772  0.7017485732068256  0.12404135316869348  1.0000
  O   O3        1.0  0.6819734978390752  0.7618978327836314  0.21562157025076312  1.0000
  N   N4        1.0  0.6618274602629876  0.6652765949091095  0.015354807869472967  1.0000
  H   H14       1.0  0.8033595333331282  0.6659281726286417  0.34141924906291843  1.0000
  H   H15       1.0  0.8041122118638111  0.669121367365131  0.9237050980120416  1.0000
  H   H16       1.0  0.011768586731640168  0.5836914657870316  0.15602847294700628  1.0000
  H   H17       1.0  0.6043774288865718  0.695528987661286  0.009634481783280309  1.0000
  H   H18       1.0  0.680420055897096  0.600380239102903  0.9450598278940007  1.0000
  Zn  Zn1       1.0  0.8283321864080117  0.6190774272282069  0.6380434164802694  1.0000
  Zn  Zn2       1.0  0.9964111066350684  0.6272175776576667  0.6517839895899941  1.0000
  C   C28       1.0  0.912387103221958  0.6173138110972447  0.882144531371012  1.0000
  C   C29       1.0  0.9123580151814791  0.6289831019087571  0.4076831549479583  1.0000
  C   C30       1.0  0.9109175330306857  0.8864924929190965  0.6401304301133646  1.0000
  C   C31       1.0  0.9138275375801143  0.35980268495611956  0.6496973181858592  1.0000
  O   O4        1.0  0.9761274855837704  0.6339756677566979  0.46129520711633  1.0000
  O   O5        1.0  0.9761856502259535  0.6184983434794677  0.8389608807210907  1.0000
  O   O6        1.0  0.9749980937542034  0.8358634911238388  0.6435327136059548  1.0000
  O   O7        1.0  0.9773149846520919  0.41661052768608886  0.6567232721654666  1.0000
  O   O8        1.0  0.8474282510338932  0.8296844744235232  0.6331041292089835  1.0000
  O   O9        1.0  0.848615797941186  0.6123210591336767  0.8285322296480528  1.0000
  O   O10       1.0  0.8485576337474262  0.6277983337607149  0.4508649942835512  1.0000
  O   O11       1.0  0.8497451328620815  0.41043318334008205  0.6462931567028746  1.0000
