data_image0
_chemical_formula_structural       NC5NC4H6C6NCH9C6H6Zn2C4O8
_chemical_formula_sum              "N3 C26 H21 Zn2 O8"
_cell_length_a       13.854160002989762
_cell_length_b       9.273386996610926
_cell_length_c       10.681121600428288
_cell_angle_alpha    85.46621756597041
_cell_angle_beta     89.99987030852816
_cell_angle_gamma    89.39858485477477

_space_group_name_H-M_alt    "P 1"
_space_group_IT_number       1

loop_
  _space_group_symop_operation_xyz
  'x, y, z'

loop_
  _atom_site_type_symbol
  _atom_site_label
  _atom_site_symmetry_multiplicity
  _atom_site_fract_x
  _atom_site_fract_y
  _atom_site_fract_z
  _atom_site_occupancy
  N   N1        1.0  0.8978182107448612  0.5788741134607622  0.6164061543905879  1.0000
  C   C1        1.0  0.8253084228764203  0.6040944027558814  0.5650761594006213  1.0000
  C   C2        1.0  0.7351052237339356  0.6354691266930489  0.5012196806261022  1.0000
  C   C3        1.0  0.647741116885286  0.6059760746580702  0.5635682255059111  1.0000
  C   C4        1.0  0.5599628112620095  0.6354691410272248  0.5012196604754635  1.0000
  C   C5        1.0  0.47020028254728913  0.6040942553881  0.565076239203409  1.0000
  N   N2        1.0  0.39804464059330474  0.5788740499430489  0.6164061544058905  1.0000
  C   C6        1.0  0.5595769849960935  0.6950618474922095  0.37653818638579906  1.0000
  C   C7        1.0  0.6468932477599615  0.726705727932605  0.3140967155904566  1.0000
  C   C8        1.0  0.6464730963625588  0.7865396794382042  0.17943432088925856  1.0000
  C   C9        1.0  0.7346540740412126  0.6950618461666779  0.3765381079623371  1.0000
  H   H1        1.0  0.64806582576883  0.5597411470955456  0.6600695557473126  1.0000
  H   H2        1.0  0.4915509805968874  0.7168555855314575  0.3281639122217568  1.0000
  H   H3        1.0  0.7108483541199797  0.8547226726981767  0.15867345974268487  1.0000
  H   H4        1.0  0.5811398764480169  0.8547226745754829  0.15867351627967685  1.0000
  H   H5        1.0  0.6471094689093507  0.6959858761956107  0.11740383774460228  1.0000
  H   H6        1.0  0.8023739388884568  0.7168556980520586  0.32816383785079983  1.0000
  C   C10       1.0  0.15090422180375507  0.15522008830888878  0.617021548102344  1.0000
  C   C11       1.0  0.16785229932636003  0.23869568419770815  0.5037918788508564  1.0000
  C   C12       1.0  0.1757122100506674  0.17419279283786038  0.39055520964617463  1.0000
  C   C13       1.0  0.1667429420589354  0.0238921295690957  0.3876530111088623  1.0000
  C   C14       1.0  0.151495852027824  0.9394536190435968  0.5004893459639772  1.0000
  C   C15       1.0  0.14496793045169065  0.002516945655065553  0.6158016620597884  1.0000
  N   N3        1.0  0.1737868906317354  0.9543528136540792  0.2720784587988814  1.0000
  C   C16       1.0  0.18986643116087573  0.03224930720845865  0.14987332598956948  1.0000
  H   H7        1.0  0.17062404357014826  0.4173648069481724  0.8226195307586571  1.0000
  H   H8        1.0  0.17277543684345079  0.35534157680859524  0.5022554899414984  1.0000
  H   H9        1.0  0.18788467846661683  0.2427949087917169  0.30549146812170735  1.0000
  H   H10       1.0  0.14693991776362322  0.8230525501271116  0.49851378809376024  1.0000
  H   H11       1.0  0.18050696045633133  0.8711549921996883  0.9208141513572299  1.0000
  H   H12       1.0  0.16696286621068368  0.8419856920953999  0.2746752912767956  1.0000
  H   H13       1.0  0.13002928079426157  0.11082287754380359  0.1281150045842563  1.0000
  H   H14       1.0  0.2597297284457778  0.08980104525564966  0.15007540899823968  1.0000
  H   H15       1.0  0.19229967615515045  0.9548127122069563  0.07573616441960085  1.0000
  C   C17       1.0  0.14793610752825304  0.5788685065416523  0.24866636481922308  1.0000
  C   C18       1.0  0.07941141339238156  0.4986321152880617  0.1873593901211463  1.0000
  C   C19       1.0  0.0794113524804687  0.4986322077937907  0.05647725003506188  1.0000
  C   C20       1.0  0.1479360311533604  0.5788685772615318  0.9841568003937411  1.0000
  C   C21       1.0  0.21640416885890335  0.6590384765755692  0.04546329047112829  1.0000
  C   C22       1.0  0.21640415666634882  0.65903845420485  0.17635558916638172  1.0000
  H   H16       1.0  0.21723273256827072  0.6600095445809773  0.5418072919076018  1.0000
  H   H17       1.0  0.02569852320337195  0.43573903968189404  0.2404867697088917  1.0000
  H   H18       1.0  0.025698502568935133  0.4357391075911581  0.011982740385583888  1.0000
  H   H19       1.0  0.27012407274956796  0.7219398398698931  0.9923802343196132  1.0000
  H   H20       1.0  0.2701240244720746  0.7219397892959859  0.22080460187682927  1.0000
  H   H21       1.0  0.21723303733998087  0.660009041946265  0.6798782669178682  1.0000
  Zn  Zn1       1.0  0.042172785527408774  0.5788702326433808  0.6164133994792529  1.0000
  Zn  Zn2       1.0  0.2536901496970607  0.5788661250998368  0.6164092110676858  1.0000
  C   C23       1.0  0.1479741845050242  0.5731212167977362  0.8451416501511485  1.0000
  C   C24       1.0  0.14789104772918638  0.5846169612055536  0.38768108064218754  1.0000
  C   C25       1.0  0.14608506410270006  0.8423598177094539  0.6110419278939483  1.0000
  C   C26       1.0  0.1497801080991685  0.31537662699088476  0.6217808721615838  1.0000
  O   O1        1.0  0.2281457067155408  0.5865383423699524  0.43433410876894113  1.0000
  O   O2        1.0  0.22825631836993107  0.5711956297515485  0.7984850841928137  1.0000
  O   O3        1.0  0.22672974767933562  0.788609204995679  0.6094479000374118  1.0000
  O   O4        1.0  0.2296722051572877  0.3691247774475139  0.6233711990147723  1.0000
  O   O5        1.0  0.06619065788667511  0.7886115802986764  0.6094514115270062  1.0000
  O   O6        1.0  0.06771721642910578  0.5711997383604691  0.7984885264150525  1.0000
  O   O7        1.0  0.06760660519122452  0.5865424007049794  0.43433604544097704  1.0000
  O   O8        1.0  0.0691331037013132  0.3691288254638212  0.6233732295912193  1.0000
