data_image0
_chemical_formula_structural       NC9NC3NH7C7OCH10C6OCH7Zn2C4O8
_chemical_formula_sum              "N3 C31 H24 O10 Zn2"
_cell_length_a       16.053384444249904
_cell_length_b       10.30083208314754
_cell_length_c       9.273891588657152
_cell_angle_alpha    86.0566932857514
_cell_angle_beta     89.48625385378584
_cell_angle_gamma    89.16926536021816

_space_group_name_H-M_alt    "P 1"
_space_group_IT_number       1

loop_
  _space_group_symop_operation_xyz
  'x, y, z'

loop_
  _atom_site_type_symbol
  _atom_site_label
  _atom_site_symmetry_multiplicity
  _atom_site_fract_x
  _atom_site_fract_y
  _atom_site_fract_z
  _atom_site_occupancy
  N   N1        1.0  0.7895059327466117  0.3907614053306929  0.40627231057100865  1.0000
  C   C1        1.0  0.739023844339787  0.3692697301824493  0.3232093811248482  1.0000
  C   C2        1.0  0.6762882770309798  0.34256627260835626  0.22002497613600558  1.0000
  C   C3        1.0  0.6903807803740389  0.3292993958593393  0.07493347835285613  1.0000
  C   C4        1.0  0.6139478664973586  0.3034988250839443  0.016948605722287406  1.0000
  C   C5        1.0  0.5564835367353533  0.3024601024022011  0.1297910814026897  1.0000
  C   C6        1.0  0.4658698165060143  0.2785475920274685  0.11842752494058884  1.0000
  C   C7        1.0  0.4096303284048027  0.322111443567459  0.2226353786239652  1.0000
  C   C8        1.0  0.3241188578434548  0.2994317794876544  0.21175115420780988  1.0000
  C   C9        1.0  0.2670905798200407  0.34476192541001316  0.318590843758368  1.0000
  N   N2        1.0  0.2212565623686243  0.3812009567728959  0.40447322237303096  1.0000
  C   C10       1.0  0.2941208028822737  0.23307641476816188  0.09667433476721987  1.0000
  C   C11       1.0  0.3493509631866394  0.18963409357875083  0.9927013595991091  1.0000
  C   C12       1.0  0.434657917961709  0.21214443609159409  0.0031454933520616048  1.0000
  N   N3        1.0  0.5952657935861665  0.3264458423834957  0.2535932520661368  1.0000
  H   H1        1.0  0.7493020307597783  0.3374637376045486  0.017643470098480885  1.0000
  H   H2        1.0  0.6020555970563346  0.2888055302181325  0.9046629000220071  1.0000
  H   H3        1.0  0.4316551008410072  0.37529192803675104  0.31118095247090816  1.0000
  H   H4        1.0  0.2281302894325203  0.21503458067475048  0.08732214661467608  1.0000
  H   H5        1.0  0.3260365987871506  0.13809309155078364  0.9038956220120946  1.0000
  H   H6        1.0  0.4760452467798749  0.17603651934011563  0.9218637721486056  1.0000
  H   H7        1.0  0.5687649994097204  0.32965785535324654  0.3565424748654167  1.0000
  C   C13       1.0  0.0054079942565437  0.004645096588635322  0.4055238937026302  1.0000
  C   C14       1.0  0.9826896596778029  0.013371930423575764  0.2592597080791095  1.0000
  C   C15       1.0  0.9702765702268065  0.9006440811178636  0.1860491529281445  1.0000
  C   C16       1.0  0.9826307487213187  0.778111200560525  0.25887911840553257  1.0000
  C   C17       1.0  0.005362441584586099  0.7673072330122163  0.40523408017017504  1.0000
  C   C18       1.0  0.01642206205630494  0.8811126832210405  0.47778114617092043  1.0000
  C   C19       1.0  0.9483604640068063  0.9111171303227975  0.028478883515316248  1.0000
  O   O1        1.0  0.022620318095962082  0.9147176809406831  0.9457704066000582  1.0000
  C   C20       1.0  0.0028861925085095193  0.9245758116936484  0.7975597166802535  1.0000
  H   H8        1.0  0.015056990732179585  0.32870692798809853  0.4611095609799007  1.0000
  H   H9        1.0  0.9745729032245809  0.10776782641646256  0.20167142323003562  1.0000
  H   H10       1.0  0.9744727928025999  0.6913584670069846  0.20102956192686516  1.0000
  H   H11       1.0  0.03395051652939585  0.8736191243173147  0.5905821562508626  1.0000
  H   H12       1.0  0.049159206563222486  0.5396829629582812  0.6808782620784521  1.0000
  H   H13       1.0  0.9100820487320351  0.001039794437311507  0.004542094582981268  1.0000
  H   H14       1.0  0.9101165614335904  0.8259468736133192  0.004211444772103551  1.0000
  H   H15       1.0  0.06177954373211225  0.9272944294327519  0.7340039794877282  1.0000
  H   H16       1.0  0.9674980451214668  0.016022873055675298  0.7676490437939822  1.0000
  H   H17       1.0  0.9675136742170178  0.8385376046391859  0.767291797380524  1.0000
  C   C21       1.0  0.006750205211617069  0.38250675822286717  0.9820992614932647  1.0000
  C   C22       1.0  0.07497224899175703  0.43584483681886005  0.0503678229826432  1.0000
  C   C23       1.0  0.1384681480615242  0.49898428930919936  0.970268944763236  1.0000
  C   C24       1.0  0.13396905189623132  0.5091060262159468  0.8188432683527878  1.0000
  C   C25       1.0  0.06749731619266086  0.45494290468629844  0.7492255144749596  1.0000
  C   C26       1.0  0.004020185005757961  0.3894455271562321  0.8286586623995786  1.0000
  O   O2        1.0  0.2044151277858135  0.5507739052272587  0.04518050217609959  1.0000
  C   C27       1.0  0.2730147188415626  0.6175962473639485  0.9777922879977775  1.0000
  H   H18       1.0  0.8085955370357445  0.3071370020440338  0.09397253953811902  1.0000
  H   H19       1.0  0.1819570036571223  0.5576305440528719  0.7537023099050417  1.0000
  H   H20       1.0  0.06682470348747849  0.4616504636222381  0.6321445959482852  1.0000
  H   H21       1.0  0.8718776559820357  0.33352638243688504  0.5537890286869027  1.0000
  H   H22       1.0  0.25064655102505684  0.7059671043579135  0.9134564996351581  1.0000
  H   H23       1.0  0.3077553630800849  0.5523789804766963  0.9072593652797396  1.0000
  H   H24       1.0  0.31565848950314046  0.6476912299257203  0.06244633305734615  1.0000
  Zn  Zn1       1.0  0.9140998092474634  0.387999071329302  0.40576145016431786  1.0000
  Zn  Zn2       1.0  0.09666262504956435  0.3839528078453804  0.40499586750843486  1.0000
  C   C28       1.0  0.004534681784414966  0.38296079771162467  0.6686428007244236  1.0000
  C   C29       1.0  0.006229745538733231  0.38899267691599976  0.14211464943996988  1.0000
  C   C30       1.0  0.005385265021212503  0.6231008723514313  0.39954495635572407  1.0000
  C   C31       1.0  0.0053790998514287045  0.14885104411861838  0.4112125715104884  1.0000
  O   O3        1.0  0.07533671201942001  0.38962820932082026  0.1955267429184755  1.0000
  O   O4        1.0  0.07398866967813378  0.3792532619076002  0.6146492331666789  1.0000
  O   O5        1.0  0.0746745876160324  0.5731694421494982  0.3973508233305205  1.0000
  O   O6        1.0  0.07465073213316864  0.19571203886321786  0.412825044936622  1.0000
  O   O7        1.0  0.9361116398641546  0.5762398416936074  0.39793227298980405  1.0000
  O   O8        1.0  0.935425722077058  0.3823252209914261  0.6152306053778169  1.0000
  O   O9        1.0  0.9367737700650433  0.39270010894690066  0.19610638215469844  1.0000
  O   O10       1.0  0.93608778982744  0.19878393008714498  0.41340479224453097  1.0000
