data_image0
_chemical_formula_structural       NC12NC2H8C7ONC2H11C7OIH4Zn2C4O8
_chemical_formula_sum              "N3 C34 H23 O10 I1 Zn2"
_cell_length_a       19.240039667572717
_cell_length_b       10.299288639353465
_cell_length_c       10.297413674417344
_cell_angle_alpha    85.56151677804391
_cell_angle_beta     90.01510859860609
_cell_angle_gamma    89.97957910774963

_space_group_name_H-M_alt    "P 1"
_space_group_IT_number       1

loop_
  _space_group_symop_operation_xyz
  'x, y, z'

loop_
  _atom_site_type_symbol
  _atom_site_label
  _atom_site_symmetry_multiplicity
  _atom_site_fract_x
  _atom_site_fract_y
  _atom_site_fract_z
  _atom_site_occupancy
  N   N1        1.0  0.6540037253556331  0.4215216747642778  0.5674078606521287  1.0000
  C   C1        1.0  0.5938553565107624  0.4215217587597704  0.5674077787132583  1.0000
  C   C2        1.0  0.5190373193278384  0.4215218760687136  0.5674076414008864  1.0000
  C   C3        1.0  0.4825905046176196  0.3570396797015878  0.670829941250473  1.0000
  C   C4        1.0  0.4099197898890268  0.35692878278505874  0.6709164812286992  1.0000
  C   C5        1.0  0.3727050843407011  0.4215219686697879  0.5674074136871214  1.0000
  C   C6        1.0  0.40986605717138697  0.4861153415172061  0.46389854076441384  1.0000
  C   C7        1.0  0.4825367790687386  0.48600420907697534  0.4639852032249514  1.0000
  C   C8        1.0  0.2954999939026075  0.42152189002057394  0.5674073182356665  1.0000
  C   C9        1.0  0.2583397031433268  0.3082519497638876  0.6092653630373333  1.0000
  C   C10       1.0  0.1856689814715375  0.308358866258245  0.6091740382615909  1.0000
  C   C11       1.0  0.1491677070126525  0.4215217608353143  0.5674073791343546  1.0000
  C   C12       1.0  0.074349669914508  0.42152164705281064  0.5674076278275191  1.0000
  N   N2        1.0  0.014201353099624395  0.4215216061974667  0.5674078362844999  1.0000
  C   C13       1.0  0.185613943388447  0.534684731249796  0.5256406671194305  1.0000
  C   C14       1.0  0.258284606261354  0.5347918278938206  0.5255491797483371  1.0000
  H   H1        1.0  0.510326292130018  0.3071160608413024  0.7515792163086885  1.0000
  H   H2        1.0  0.3828474099324332  0.30780310543926254  0.7527816605210831  1.0000
  H   H3        1.0  0.38275190632751194  0.5352410459236461  0.38203331061771517  1.0000
  H   H4        1.0  0.5102307630774899  0.5359277276314225  0.38323620400303926  1.0000
  H   H5        1.0  0.2854543864104571  0.2190896100307211  0.6404225873276648  1.0000
  H   H6        1.0  0.15797552189763278  0.2200955778577376  0.6413646282089656  1.0000
  H   H7        1.0  0.157877579521297  0.6229479951106518  0.49345009172093496  1.0000
  H   H8        1.0  0.2853564017900078  0.6239542468123012  0.49439191069196653  1.0000
  C   C15       1.0  0.8341726059021991  0.04014235813104317  0.5673556314007286  1.0000
  C   C16       1.0  0.8115982311191438  0.049265800263026405  0.4372438057402417  1.0000
  C   C17       1.0  0.8006185465624256  0.9367151411232475  0.37106116773791165  1.0000
  C   C18       1.0  0.8114527317146178  0.8139893575860184  0.4374050158151938  1.0000
  C   C19       1.0  0.8340391479011303  0.8028909688983045  0.5674712642932476  1.0000
  C   C20       1.0  0.8454272937933516  0.9165416728687253  0.6316216385935478  1.0000
  C   C21       1.0  0.7765499536004651  0.945916682407879  0.23378947843884967  1.0000
  O   O1        1.0  0.743002988850869  0.8524452704757791  0.19205584964539502  1.0000
  N   N3        1.0  0.7915930507736848  0.058469862581731695  0.14720117167283497  1.0000
  C   C22       1.0  0.7610211910247004  0.07471436972332302  0.016861286714906273  1.0000
  C   C23       1.0  0.7851644229930196  0.201438364359739  0.9443515456726633  1.0000
  H   H9        1.0  0.8422312846936157  0.3641054078336258  0.6174637675126655  1.0000
  H   H10       1.0  0.8013013473010175  0.14418776522164367  0.38853772429613254  1.0000
  H   H11       1.0  0.8028413795679545  0.7269113709973081  0.3869734100933868  1.0000
  H   H12       1.0  0.8628563411935382  0.9087703191115002  0.7319577306672269  1.0000
  H   H13       1.0  0.8420706613547067  0.4711720249758067  0.6174352751695047  1.0000
  H   H14       1.0  0.8268164543610235  0.12786496381801626  0.17610777575081427  1.0000
  H   H15       1.0  0.7034341017684111  0.07609579855026548  0.025085297660614403  1.0000
  H   H16       1.0  0.7765216474817296  0.9916586601960078  0.9604222196227274  1.0000
  H   H17       1.0  0.7694595927289802  0.2858021672159581  0.9986392647738552  1.0000
  H   H18       1.0  0.8425912923298883  0.2010929329667821  0.9333264556763852  1.0000
  H   H19       1.0  0.7610909524475277  0.2116698581333769  0.8460765669626747  1.0000
  C   C24       1.0  0.8340515588358505  0.4215690564510217  0.18596102587516627  1.0000
  C   C25       1.0  0.7690898531199561  0.4841246290178695  0.17989944029664806  1.0000
  C   C26       1.0  0.7360968321847717  0.5158955210388583  0.05970555045819159  1.0000
  C   C27       1.0  0.769215094987895  0.48400388663544497  0.9447115886040945  1.0000
  C   C28       1.0  0.8341602104763867  0.42146424278537425  0.9488659149375431  1.0000
  C   C29       1.0  0.8661806098439375  0.39062993764364906  0.06995124224089522  1.0000
  C   C30       1.0  0.6674019960840366  0.5820458234242727  0.05583441693069658  1.0000
  O   O2        1.0  0.6386515070315277  0.6097307656910222  0.16010258621286022  1.0000
  I   I1        1.0  0.6131574492428458  0.634282198953046  0.8803917157627739  1.0000
  H   H20       1.0  0.9567045338200875  0.3034580290891693  0.40461988305582297  1.0000
  H   H21       1.0  0.744125948566071  0.508163958127445  0.2692150793102883  1.0000
  H   H22       1.0  0.7447499969641735  0.5075625567584207  0.8514085190069767  1.0000
  H   H23       1.0  0.9162559141692886  0.3424094211252613  0.07381682290209857  1.0000
  Zn  Zn1       1.0  0.7579489908702903  0.42151818665196567  0.5674153431600684  1.0000
  Zn  Zn2       1.0  0.9102561097192259  0.4215144990851083  0.5674109533911755  1.0000
  C   C31       1.0  0.8341390153376533  0.41631024437923253  0.8046597324427578  1.0000
  C   C32       1.0  0.8340677481723063  0.4267240799642144  0.3301666918033297  1.0000
  C   C33       1.0  0.8340600609558187  0.6587159427452514  0.5622731008423547  1.0000
  C   C34       1.0  0.8341466508652383  0.18431682124491844  0.5725533924224762  1.0000
  O   O3        1.0  0.891872940300812  0.4284470876390263  0.3785617638704919  1.0000
  O   O4        1.0  0.8919314023868291  0.41458345822871623  0.756260954566156  1.0000
  O   O5        1.0  0.8918668667489373  0.6103291251310627  0.5605320348503724  1.0000
  O   O6        1.0  0.8919374239511068  0.23270143004179222  0.5742905861931928  1.0000
  O   O7        1.0  0.7762676246634637  0.6103312556979552  0.5605357103527162  1.0000
  O   O8        1.0  0.7763321600153118  0.41458714915155803  0.7562645610444221  1.0000
  O   O9        1.0  0.7762736977610466  0.4284507335192125  0.3785638085993188  1.0000
  O   O10       1.0  0.7763381814239925  0.23270506661953824  0.5742927283097687  1.0000
