data_image0
_chemical_formula_structural       NC12NC2H8C11NC2H9C6OCH8Zn2C4O8
_chemical_formula_sum              "N3 C38 H25 O9 Zn2"
_cell_length_a       17.80743265337812
_cell_length_b       10.29977213141725
_cell_length_c       10.300312196595936
_cell_angle_alpha    85.56261167751872
_cell_angle_beta     91.53959400843588
_cell_angle_gamma    89.45311095633302

_space_group_name_H-M_alt    "P 1"
_space_group_IT_number       1

loop_
  _space_group_symop_operation_xyz
  'x, y, z'

loop_
  _atom_site_type_symbol
  _atom_site_label
  _atom_site_symmetry_multiplicity
  _atom_site_fract_x
  _atom_site_fract_y
  _atom_site_fract_z
  _atom_site_occupancy
  N   N1        1.0  0.7075884538229963  0.40667524468959204  0.601592711250817  1.0000
  C   C1        1.0  0.6567696645087169  0.4362342855530008  0.5329027319113488  1.0000
  C   C2        1.0  0.5935460759737484  0.47300358672625165  0.44746104467370174  1.0000
  C   C3        1.0  0.6052745597511416  0.52702472249779  0.3208573881582131  1.0000
  C   C4        1.0  0.5439582039851562  0.5622904330868155  0.23781132902693855  1.0000
  C   C5        1.0  0.4707590674935777  0.5437984750433481  0.280709106292073  1.0000
  C   C6        1.0  0.4580538184122794  0.4896585333382992  0.4077808541993954  1.0000
  C   C7        1.0  0.5202274898214456  0.4543960767700239  0.49081040334891596  1.0000
  C   C8        1.0  0.3802864540745138  0.4700524365976762  0.45353857223246913  1.0000
  C   C9        1.0  0.361513692379259  0.4972371168796972  0.5805752498334475  1.0000
  C   C10       1.0  0.28828461998410526  0.4787867310695228  0.6235135909949596  1.0000
  C   C11       1.0  0.23288534943087572  0.4328973895398699  0.5402531270883391  1.0000
  C   C12       1.0  0.15751966525049763  0.41389417417195706  0.5845922219289201  1.0000
  N   N2        1.0  0.09693099225294552  0.39861686707332555  0.6202378039441578  1.0000
  C   C13       1.0  0.2509666236304281  0.40554379453353717  0.4137593564301749  1.0000
  C   C14       1.0  0.3241428266580275  0.42400896790886167  0.3705651509729595  1.0000
  H   H1        1.0  0.6617405948934085  0.5418485550983176  0.2864247908164059  1.0000
  H   H2        1.0  0.5531573002631596  0.604387682231331  0.14004474693474167  1.0000
  H   H3        1.0  0.42412064923419224  0.5734340952553388  0.21512682363409816  1.0000
  H   H4        1.0  0.5117265254524234  0.41091354307795863  0.5884524062876195  1.0000
  H   H5        1.0  0.4032009725605652  0.5344151858215457  0.646146794893816  1.0000
  H   H6        1.0  0.2748515887005707  0.500631047554072  0.7215166365238357  1.0000
  H   H7        1.0  0.2085627140457762  0.3696329829861591  0.3486008633033193  1.0000
  H   H8        1.0  0.33704721448645664  0.4006291268504283  0.27286525638263215  1.0000
  C   C15       1.0  0.902194282521337  0.021283649855990298  0.610890752860678  1.0000
  C   C16       1.0  0.9195634769074865  0.030256163560126177  0.47835280816533743  1.0000
  C   C17       1.0  0.9284345040760014  0.9176604198893755  0.4112255003714824  1.0000
  C   C18       1.0  0.9197026922105206  0.7949624117861316  0.4784137392913798  1.0000
  C   C19       1.0  0.9023323579587936  0.7839983227301209  0.610951270511347  1.0000
  C   C20       1.0  0.8936757070064917  0.8977126593636136  0.6764475985032214  1.0000
  C   C21       1.0  0.9468113938239059  0.9282067314572089  0.2710112437890331  1.0000
  C   C22       1.0  0.9999255476991704  0.8433166452082238  0.2229512429200584  1.0000
  C   C23       1.0  0.01719674299935714  0.8533684277300195  0.0909636397188287  1.0000
  C   C24       1.0  0.9816400190824696  0.9481972802439497  0.005290341958429588  1.0000
  C   C25       1.0  0.9994499801877845  0.9584200952851015  0.8694141483348976  1.0000
  N   N3        1.0  0.01376797818631914  0.9666384261632152  0.7601788494124104  1.0000
  C   C26       1.0  0.9287186420905089  0.0330589478558303  0.052096434451646356  1.0000
  C   C27       1.0  0.911393163277887  0.0232532811681172  0.18406014427633122  1.0000
  H   H9        1.0  0.8955440545507133  0.345319783919777  0.6613802065710341  1.0000
  H   H10       1.0  0.9272466000751509  0.12499783971664889  0.42745469156072513  1.0000
  H   H11       1.0  0.9254711062033234  0.7079403841894983  0.42667425870675335  1.0000
  H   H12       1.0  0.8802757957514799  0.890022579649233  0.7786944065755845  1.0000
  H   H13       1.0  0.8957455292433397  0.4523653075443477  0.6614695272494638  1.0000
  H   H14       1.0  0.028815883973641435  0.7702749342322631  0.28774293261794925  1.0000
  H   H15       1.0  0.058407257818266625  0.7873974212732244  0.05583752616825155  1.0000
  H   H16       1.0  0.9007025469336963  0.10660331718355612  0.9865600400731478  1.0000
  H   H17       1.0  0.8695886139186962  0.08888282806280597  0.21779672779339035  1.0000
  C   C28       1.0  0.902242098798072  0.4026556418647926  0.22957789225890268  1.0000
  C   C29       1.0  0.8286565821610286  0.453584662215174  0.2211654133012264  1.0000
  C   C30       1.0  0.7916300166720996  0.47921108533100804  0.09935309503658084  1.0000
  C   C31       1.0  0.8287434036981007  0.4535246634540914  0.9860278943890018  1.0000
  C   C32       1.0  0.902284547629014  0.40262635938702557  0.992264171917267  1.0000
  C   C33       1.0  0.9386512526375071  0.3774565782378149  0.11456618758953006  1.0000
  O   O1        1.0  0.7181791589140563  0.5300471324788798  0.08665423697670738  1.0000
  C   C34       1.0  0.6735576574725506  0.5609302829172916  0.19297095407444753  1.0000
  H   H18       1.0  0.9302803876692803  0.38325113932253524  0.5602129188863432  1.0000
  H   H19       1.0  0.8004068590641684  0.47313646496611383  0.30933710992883756  1.0000
  H   H20       1.0  0.7996490156854845  0.4736612178199117  0.8928475690825244  1.0000
  H   H21       1.0  0.9953932542296224  0.3381851096926155  0.12024945077630388  1.0000
  H   H22       1.0  0.9301157688447221  0.3833646308927873  0.6672152023665987  1.0000
  H   H23       1.0  0.6644191229437443  0.47214262775439053  0.2586311775207839  1.0000
  H   H24       1.0  0.618196923746725  0.5992458215754156  0.15474059710887822  1.0000
  H   H25       1.0  0.7014012859923827  0.6367722517113042  0.247611887135869  1.0000
  Zn  Zn1       1.0  0.8199443032797418  0.40434630347226796  0.6069807683969446  1.0000
  Zn  Zn2       1.0  0.9845751389740179  0.4009352146073663  0.6148603382920452  1.0000
  C   C35       1.0  0.9022739014737599  0.39745833360776855  0.8480996298053444  1.0000
  C   C36       1.0  0.9022473388473248  0.4078247858093124  0.373741690516205  1.0000
  C   C37       1.0  0.9023020999359835  0.6398293100097456  0.6057648445517665  1.0000
  C   C38       1.0  0.9022190839295069  0.16545225029296956  0.6160765421911343  1.0000
  O   O2        1.0  0.9647256405952649  0.40825944164690053  0.4251146334246574  1.0000
  O   O3        1.0  0.9647465945213884  0.39443376055769297  0.8027067242279089  1.0000
  O   O4        1.0  0.964768522997687  0.5901514066001332  0.607019630373359  1.0000
  O   O5        1.0  0.9647036559378777  0.2125418060622348  0.6208016272230965  1.0000
  O   O6        1.0  0.8398157301354573  0.5927397131828509  0.6010394767701523  1.0000
  O   O7        1.0  0.8397938019343281  0.3970236274202272  0.7967265015076099  1.0000
  O   O8        1.0  0.8397728479631033  0.41084926331317395  0.4191328494080317  1.0000
  O   O9        1.0  0.8397508633063799  0.2151316184361849  0.6148199405668411  1.0000
