data_image0
_chemical_formula_structural       NC8NC6H8C9H8C6H6Zn2C4O8
_chemical_formula_sum              "N2 C33 H22 Zn2 O8"
_cell_length_a       17.457602349358154
_cell_length_b       9.275152443626249
_cell_length_c       10.681121600428288
_cell_angle_alpha    85.36323627709002
_cell_angle_beta     92.87590736930572
_cell_angle_gamma    92.27213218982278

_space_group_name_H-M_alt    "P 1"
_space_group_IT_number       1

loop_
  _space_group_symop_operation_xyz
  'x, y, z'

loop_
  _atom_site_type_symbol
  _atom_site_label
  _atom_site_symmetry_multiplicity
  _atom_site_fract_x
  _atom_site_fract_y
  _atom_site_fract_z
  _atom_site_occupancy
  N   N1        1.0  0.7310490605156029  0.6142473445816576  0.6713979712660261  1.0000
  C   C1        1.0  0.6696985152419703  0.5632197971216018  0.6612933439940708  1.0000
  C   C2        1.0  0.5933758878087673  0.49974787731481074  0.6487323723589788  1.0000
  C   C3        1.0  0.5350856578535464  0.5443715953889257  0.7208392165230031  1.0000
  C   C4        1.0  0.4602136871826477  0.4832532788186144  0.7088646510217462  1.0000
  C   C5        1.0  0.39834587611000183  0.5303693523552286  0.7852289011062104  1.0000
  C   C6        1.0  0.3239088429086176  0.5508897501315477  0.7314043476308586  1.0000
  C   C7        1.0  0.2656175183231155  0.5953091081037141  0.8036158173103265  1.0000
  C   C8        1.0  0.1897459262258224  0.6165026752504674  0.7476532040435027  1.0000
  N   N2        1.0  0.128758044816935  0.6335352147457587  0.7026594269492262  1.0000
  C   C9        1.0  0.28127250750963656  0.6194782219438553  0.930141494521305  1.0000
  C   C10       1.0  0.3549271457173738  0.5993900269067248  0.9843386832550148  1.0000
  C   C11       1.0  0.41320793417269697  0.5551707264643536  0.9125680670582919  1.0000
  C   C12       1.0  0.444916571179215  0.3767585658566057  0.6234034539013364  1.0000
  C   C13       1.0  0.5031967372223497  0.3324444885727654  0.5516815238184645  1.0000
  C   C14       1.0  0.5772846092791425  0.39368766454106985  0.5641860710419344  1.0000
  H   H1        1.0  0.5478760502163237  0.6279199698657913  0.7848738063073393  1.0000
  H   H2        1.0  0.3114749815180923  0.534256496643454  0.6330673877718025  1.0000
  H   H3        1.0  0.23659485417712806  0.653791972482977  0.9867869053980127  1.0000
  H   H4        1.0  0.36685654238756304  0.6177540000099719  0.08231124320257509  1.0000
  H   H5        1.0  0.46960455537813817  0.5385131954079774  0.9570705502938197  1.0000
  H   H6        1.0  0.38816280420906  0.3263861996015316  0.6132623065969873  1.0000
  H   H7        1.0  0.490926782025253  0.2501366189827239  0.4864882133098227  1.0000
  H   H8        1.0  0.6219571439656396  0.3584075901497594  0.5080360241126585  1.0000
  C   C15       1.0  0.9276433903300386  0.20014935918238866  0.688129560915627  1.0000
  C   C16       1.0  0.8999596014119653  0.2815461596587021  0.5795630258577122  1.0000
  C   C17       1.0  0.8794092509275983  0.21510816717843118  0.46956531124444223  1.0000
  C   C18       1.0  0.886220010335497  0.06609653159983477  0.4659628287790448  1.0000
  C   C19       1.0  0.9124031366729554  0.9829388060336541  0.5735122685737708  1.0000
  C   C20       1.0  0.932170995199134  0.04762245457414862  0.685939241136036  1.0000
  C   C21       1.0  0.8654285922177315  0.9979386845468738  0.35209177456415713  1.0000
  C   C22       1.0  0.8480206380134707  0.9408390827285247  0.25674274603107095  1.0000
  C   C23       1.0  0.8268995265262754  0.8715468334190517  0.1410534527331635  1.0000
  H   H9        1.0  0.03791389944770863  0.2871486566785589  0.9468995736679395  1.0000
  H   H10       1.0  0.8959171119469097  0.3978675954947579  0.5788513511446882  1.0000
  H   H11       1.0  0.8588913825869268  0.2803528625425926  0.3868461250348443  1.0000
  H   H12       1.0  0.9156341988484417  0.8667854738422781  0.5702727411999051  1.0000
  H   H13       1.0  0.00395274441040949  0.7558042947469419  0.8626431571420293  1.0000
  H   H14       1.0  0.8409286357111921  0.755505380140183  0.15385553118301964  1.0000
  H   H15       1.0  0.7644389658581325  0.8811002243188891  0.11899968589741759  1.0000
  H   H16       1.0  0.8593079066985755  0.9254670816414027  0.06254020147829409  1.0000
  C   C24       1.0  0.9299072065160028  0.6238858709589437  0.3192891900296315  1.0000
  C   C25       1.0  0.8745504191891899  0.5409689201953294  0.25375655638451255  1.0000
  C   C26       1.0  0.8745503717702879  0.5409690103966198  0.12287441242632502  1.0000
  C   C27       1.0  0.9299071465653688  0.6238859387677425  0.0547796207811071  1.0000
  C   C28       1.0  0.985218242572421  0.706734185079912  0.1203082823747239  1.0000
  C   C29       1.0  0.9852182326344834  0.7067341622283723  0.25120058032383463  1.0000
  H   H17       1.0  0.9858875967854064  0.7077376653945764  0.6167033775726319  1.0000
  H   H18       1.0  0.8311591559426444  0.4759746954988305  0.3035716650070077  1.0000
  H   H19       1.0  0.8311591402782248  0.4759747626449307  0.0750676343461203  1.0000
  H   H20       1.0  0.02861517256845848  0.7717369718636058  0.07053792964369587  1.0000
  H   H21       1.0  0.028615133633099768  0.7717369194040193  0.29896229421960907  1.0000
  H   H22       1.0  0.985887833610875  0.7077371742710608  0.7547743719850416  1.0000
  Zn  Zn1       1.0  0.8458192617564776  0.6198095376116391  0.6804265926925142  1.0000
  Zn  Zn2       1.0  0.013987766119563538  0.6279611908377465  0.693641088799953  1.0000
  C   C30       1.0  0.9298747548102124  0.618137301718525  0.9157709207029414  1.0000
  C   C31       1.0  0.9299341191876066  0.6296353364300977  0.458297023298819  1.0000
  C   C32       1.0  0.9313112267024348  0.8874317796791953  0.6813626744073764  1.0000
  C   C33       1.0  0.928497580649174  0.3603391220230643  0.6927053363310554  1.0000
  O   O1        1.0  0.9937621886821275  0.6346521242298715  0.5099641706710814  1.0000
  O   O2        1.0  0.9936826831572825  0.6193063415233604  0.8741329124359332  1.0000
  O   O3        1.0  0.9948417920652559  0.8367649964681725  0.6848465235939618  1.0000
  O   O4        1.0  0.9926030224447865  0.41719347682588825  0.6992504610810214  1.0000
  O   O5        1.0  0.8672039480436063  0.830577248843309  0.6748172158953952  1.0000
  O   O6        1.0  0.866044848394194  0.6131203275646713  0.864103533484645  1.0000
  O   O7        1.0  0.866124353701505  0.6284660599893126  0.4999332862311847  1.0000
  O   O8        1.0  0.8649651874058826  0.4110074022643124  0.6892196705571063  1.0000
