data_image0
_chemical_formula_structural       NC12NC2H8C9H8C6NCOH5Zn2C4O8
_chemical_formula_sum              "N3 C34 H21 O9 Zn2"
_cell_length_a       19.240039667572717
_cell_length_b       9.275152443626249
_cell_length_c       9.273733555595829
_cell_angle_alpha    85.97646638804791
_cell_angle_beta     90.0110552776814
_cell_angle_gamma    90.57354334366605

_space_group_name_H-M_alt    "P 1"
_space_group_IT_number       1

loop_
  _space_group_symop_operation_xyz
  'x, y, z'

loop_
  _atom_site_type_symbol
  _atom_site_label
  _atom_site_symmetry_multiplicity
  _atom_site_fract_x
  _atom_site_fract_y
  _atom_site_fract_z
  _atom_site_occupancy
  N   N1        1.0  0.6618647320261366  0.5616629228384387  0.40487795365635243  1.0000
  C   C1        1.0  0.6017163636458155  0.5616630151473707  0.404877862410598  1.0000
  C   C2        1.0  0.5268983271112219  0.5616631437908925  0.4048777095958702  1.0000
  C   C3        1.0  0.4900957059639695  0.49128779654156113  0.519880498630664  1.0000
  C   C4        1.0  0.4174243774644524  0.491165662460967  0.5199769570590458  1.0000
  C   C5        1.0  0.3805660926334418  0.5616632438993059  0.40487745658233243  1.0000
  C   C6        1.0  0.4180834872231156  0.6321610353544349  0.28977817128026667  1.0000
  C   C7        1.0  0.490753594044768  0.6320386411446828  0.28987476654385036  1.0000
  C   C8        1.0  0.30336100175687436  0.561663155388074  0.4048773509969126  1.0000
  C   C9        1.0  0.265572862351662  0.4363540457996234  0.4517719062292185  1.0000
  C   C10       1.0  0.19290273226064866  0.43647170089805765  0.45167015515911757  1.0000
  C   C11       1.0  0.15702871415112  0.5616630126308464  0.40487741908036123  1.0000
  C   C12       1.0  0.08221067642647768  0.5616628892483961  0.4048776954549054  1.0000
  N   N2        1.0  0.0220623593890577  0.5616628463840105  0.40487792689607355  1.0000
  C   C13       1.0  0.19410220729612868  0.6868544079615814  0.3580846240200598  1.0000
  C   C14       1.0  0.26677346274642283  0.6869722611985731  0.3579826918324718  1.0000
  H   H1        1.0  0.5175560335824121  0.43680973654271776  0.6096698064251014  1.0000
  H   H2        1.0  0.3900809891754882  0.4375873797093415  0.6110011306021663  1.0000
  H   H3        1.0  0.39124034486077797  0.6857393475499003  0.1987539412071597  1.0000
  H   H4        1.0  0.5187230373963295  0.6865165930577906  0.20008576518449184  1.0000
  H   H5        1.0  0.2921932876382121  0.3376932458286237  0.48669752486457907  1.0000
  H   H6        1.0  0.1647200257971637  0.33882198955292386  0.4877386598050408  1.0000
  H   H7        1.0  0.1668550901826485  0.7845040922249427  0.322016135614122  1.0000
  H   H8        1.0  0.29433951669426206  0.7856331485841973  0.32305702321288976  1.0000
  C   C15       1.0  0.8399167893233166  0.1380464071726344  0.40634927624121575  1.0000
  C   C16       1.0  0.8148262209497403  0.21947092221062123  0.2839121977716257  1.0000
  C   C17       1.0  0.7961959409766021  0.152690072606821  0.1591827904874985  1.0000
  C   C18       1.0  0.8023636244432805  0.0032969928099038106  0.15442085620681567  1.0000
  C   C19       1.0  0.8260949194629796  0.9201732186130783  0.275823182949555  1.0000
  C   C20       1.0  0.84401692941425  0.9852684565289219  0.4034190307798631  1.0000
  C   C21       1.0  0.7835143664426328  0.9347603434029053  0.025255710454558548  1.0000
  C   C22       1.0  0.7677325160491685  0.8773434764766611  0.9171001525455842  1.0000
  C   C23       1.0  0.7485843597610543  0.8076662627872156  0.785872351369318  1.0000
  H   H9        1.0  0.9398287638187265  0.22278887580853854  0.6941738691991863  1.0000
  H   H10       1.0  0.8111649469518589  0.33598354018779264  0.28345886508933615  1.0000
  H   H11       1.0  0.7775996618444329  0.21792743925287317  0.06584332288903072  1.0000
  H   H12       1.0  0.8290206457099069  0.8038200118436537  0.271802765402392  1.0000
  H   H13       1.0  0.9090570682388279  0.6920832118700692  0.6002813894962602  1.0000
  H   H14       1.0  0.7612922295427671  0.6910890250005282  0.7993362661172765  1.0000
  H   H15       1.0  0.6920121068625472  0.8200369498674808  0.7661424310229266  1.0000
  H   H16       1.0  0.7779224111045441  0.8590129572556531  0.6925855003982777  1.0000
  C   C24       1.0  0.841905090609473  0.5571124331245529  0.9816728860259927  1.0000
  C   C25       1.0  0.7779846116684622  0.5488327131968274  0.05565300087745784  1.0000
  C   C26       1.0  0.7147527862241907  0.5522434361083122  0.98069173543624  1.0000
  C   C27       1.0  0.715445606373496  0.5686229662296596  0.8292873499506852  1.0000
  C   C28       1.0  0.7783105849394879  0.5747501010344553  0.7541106877844127  1.0000
  C   C29       1.0  0.8420286198825221  0.5662023767913168  0.828095479911124  1.0000
  N   N3        1.0  0.6506418979652109  0.5471839126980442  0.06072373624933291  1.0000
  C   C30       1.0  0.5877023639702986  0.480755531887397  0.014171079599643921  1.0000
  O   O1        1.0  0.5869674323219666  0.40441437104170463  0.9070842828219221  1.0000
  H   H17       1.0  0.006172573840939718  0.6572793363822251  0.07763985315848543  1.0000
  H   H18       1.0  0.6674912942866095  0.578227594876032  0.768639530535493  1.0000
  H   H19       1.0  0.9531840913552447  0.6275693239951732  0.5427769686190307  1.0000
  H   H20       1.0  0.6505786107555727  0.5855401540102214  0.16401007506165954  1.0000
  H   H21       1.0  0.5402561074066382  0.49285358475649016  0.07455008961095078  1.0000
  Zn  Zn1       1.0  0.7658099783320306  0.56165913872392  0.40488626928195426  1.0000
  Zn  Zn2       1.0  0.9181170766243063  0.5616549897969036  0.40488141373943515  1.0000
  C   C31       1.0  0.8419759090893483  0.5587373854271769  0.6681233428117677  1.0000
  C   C32       1.0  0.8419528178850053  0.5645785647115216  0.14164447531302726  1.0000
  C   C33       1.0  0.8432374955046198  0.8250637517059918  0.39822996671106914  1.0000
  C   C34       1.0  0.8406911711215875  0.29825046610806055  0.41153793424490737  1.0000
  O   O2        1.0  0.8997685551846036  0.5670763987937406  0.1953305811495485  1.0000
  O   O3        1.0  0.8997577299200619  0.5562353096949195  0.6144331406316486  1.0000
  O   O4        1.0  0.9007756979557601  0.7712972347361156  0.3964923247270333  1.0000
  O   O5        1.0  0.8987505352109803  0.35201448291287707  0.41327128896187765  1.0000
  O   O6        1.0  0.7851764677704253  0.7712996456108521  0.39649639405358283  1.0000
  O   O7        1.0  0.7841585081079421  0.5562394528972068  0.614437127121087  1.0000
  O   O8        1.0  0.7841693329225483  0.5670804731185897  0.19533283510111898  1.0000
  O   O9        1.0  0.7831513129119189  0.35201854808029887  0.4132736509998051  1.0000
