data_image0
_chemical_formula_structural       NC8NC6H8C7ONH7C7NC2NH6Zn2C4O8
_chemical_formula_sum              "N5 C34 H21 O9 Zn2"
_cell_length_a       17.457602349358154
_cell_length_b       10.297852080636378
_cell_length_c       9.27399911348925
_cell_angle_alpha    85.0628220767755
_cell_angle_beta     92.55204972901187
_cell_angle_gamma    91.66731456120219

_space_group_name_H-M_alt    "P 1"
_space_group_IT_number       1

loop_
  _space_group_symop_operation_xyz
  'x, y, z'

loop_
  _atom_site_type_symbol
  _atom_site_label
  _atom_site_symmetry_multiplicity
  _atom_site_fract_x
  _atom_site_fract_y
  _atom_site_fract_z
  _atom_site_occupancy
  N   N1        1.0  0.726881604670205  0.46525070444032  0.47389970789379965  1.0000
  C   C1        1.0  0.6658503698294238  0.4194121104714561  0.4621059602937192  1.0000
  C   C2        1.0  0.5899248963043834  0.36239453027016943  0.4474451400209056  1.0000
  C   C3        1.0  0.5311276501854291  0.40189875467179403  0.5306614810952222  1.0000
  C   C4        1.0  0.45663767226534824  0.34699433508105965  0.516683296733924  1.0000
  C   C5        1.0  0.39423369862812  0.3887028622223667  0.6048125613261432  1.0000
  C   C6        1.0  0.31987665861908765  0.4076688094665483  0.5428543217877213  1.0000
  C   C7        1.0  0.26107907432679534  0.4469881209269786  0.6261906128504788  1.0000
  C   C8        1.0  0.1852914400850746  0.46657966755943947  0.5617708016028882  1.0000
  N   N2        1.0  0.12437109950537752  0.4823248889707439  0.5099774413500184  1.0000
  C   C9        1.0  0.2761445498955535  0.46758015680128623  0.7720501413470529  1.0000
  C   C10       1.0  0.3497154569544688  0.44899982263781846  0.8344390237179311  1.0000
  C   C11       1.0  0.4084998087466684  0.4098565358152355  0.7516112933904688  1.0000
  C   C12       1.0  0.4422387059081605  0.2519208681453877  0.4178966991397344  1.0000
  C   C13       1.0  0.5010227855242131  0.21269182205933967  0.3351247869129492  1.0000
  C   C14       1.0  0.5747260645430582  0.2677037585908353  0.3497140070502427  1.0000
  H   H1        1.0  0.5432242612460337  0.4765145078088568  0.6046916535928364  1.0000
  H   H2        1.0  0.3078890449754244  0.39360085664831307  0.42949726530481436  1.0000
  H   H3        1.0  0.23107270861463033  0.49794621558354835  0.8374207158487057  1.0000
  H   H4        1.0  0.36119032140969254  0.4646290011316849  0.9473813175802169  1.0000
  H   H5        1.0  0.4648285785084787  0.3944533885168879  0.8028396726549978  1.0000
  H   H6        1.0  0.3858007480563834  0.20667235918164373  0.4060628076098866  1.0000
  H   H7        1.0  0.48944390488015044  0.1392033403004609  0.25976315402869066  1.0000
  H   H8        1.0  0.6197963618120864  0.2364633266613816  0.2849113560145973  1.0000
  C   C15       1.0  0.9257117525117211  0.09235423737321447  0.49195494047149  1.0000
  C   C16       1.0  0.9156858791624498  0.10264404267815273  0.34026397626296156  1.0000
  C   C17       1.0  0.9099243496706635  0.9907386382827573  0.2634058626408009  1.0000
  C   C18       1.0  0.915492133939377  0.8673839018131804  0.3401965985389454  1.0000
  C   C19       1.0  0.9255482159372095  0.8552115472009059  0.4919352982637595  1.0000
  C   C20       1.0  0.9304106097688349  0.9682128680050477  0.5668407103657773  1.0000
  C   C21       1.0  0.8995253156126509  0.004215712659795927  0.10318772619758264  1.0000
  O   O1        1.0  0.9202409803933297  0.1087743233928169  0.03319370775040697  1.0000
  N   N3        1.0  0.8654916665245028  0.9015290739188485  0.02557956401033867  1.0000
  H   H9        1.0  0.9449386620243114  0.2801925008345487  0.7785996027594864  1.0000
  H   H10       1.0  0.911665829558431  0.19805479345949384  0.28171873153056404  1.0000
  H   H11       1.0  0.9135034083224666  0.7805527928520059  0.28212771838593076  1.0000
  H   H12       1.0  0.9381357617131605  0.9595287558635129  0.683750647625239  1.0000
  H   H13       1.0  0.9457839378033093  0.6250050176561548  0.7785400027789182  1.0000
  H   H14       1.0  0.8619796776225755  0.9113344428721278  0.9124894120591732  1.0000
  H   H15       1.0  0.8391254035973401  0.8198252950468485  0.07864618115255739  1.0000
  C   C22       1.0  0.9269539285580597  0.47716411993399377  0.06821390379507175  1.0000
  C   C23       1.0  0.9871746115012039  0.4175533833544345  0.15216468826045282  1.0000
  C   C24       1.0  0.042320245311348925  0.3484773452611829  0.088518204764231  1.0000
  C   C25       1.0  0.03872745630640063  0.33660896284519465  0.9388957871835624  1.0000
  C   C26       1.0  0.9796606260993508  0.3984628161881878  0.8534910733506074  1.0000
  C   C27       1.0  0.9243060677180249  0.4704016679534404  0.9156763459821912  1.0000
  C   C28       1.0  0.09760605368007134  0.26145316954815034  0.8735447762815397  1.0000
  N   N4        1.0  0.16184352626227844  0.2188278804758748  0.9474143268224031  1.0000
  C   C29       1.0  0.19898668357707838  0.1554307936200161  0.8514629944538639  1.0000
  C   C30       1.0  0.15709003518625742  0.16010459178658018  0.7221181693041991  1.0000
  N   N5        1.0  0.0933288992896233  0.22672400947010396  0.7361635840955096  1.0000
  H   H16       1.0  0.8452750385517058  0.6376062885159614  0.327376561472013  1.0000
  H   H17       1.0  0.08730959051261888  0.3025589665799413  0.1573296411642353  1.0000
  H   H18       1.0  0.8046209294239954  0.5385712544007262  0.6190506450105397  1.0000
  H   H19       1.0  0.2532538649589682  0.10832469130941734  0.8747572520942395  1.0000
  H   H20       1.0  0.17182134665312354  0.11736494294513378  0.6247628354892267  1.0000
  H   H21       1.0  0.04993415534261006  0.24454824016358745  0.6565193781446594  1.0000
  Zn  Zn1       1.0  0.8415884613817503  0.470174395497849  0.4843192939325986  1.0000
  Zn  Zn2       1.0  0.009664193915472019  0.47739045401769564  0.4995696691696249  1.0000
  C   C31       1.0  0.9248059674632128  0.4665052829741065  0.7554878102852534  1.0000
  C   C32       1.0  0.9264485224220045  0.48106128310816865  0.2284014609338918  1.0000
  C   C33       1.0  0.9255931687039677  0.7110609905980301  0.4861886687759769  1.0000
  C   C34       1.0  0.9256612639228728  0.2365040118406172  0.4977006742089846  1.0000
  O   O2        1.0  0.9900627692828894  0.4851019965688228  0.287949306511043  1.0000
  O   O3        1.0  0.9887573140955409  0.4679404143875199  0.7075142312957794  1.0000
  O   O4        1.0  0.9893921245280908  0.6654221922346653  0.4900531911376936  1.0000
  O   O5        1.0  0.9894279018335241  0.28762022641445095  0.5054102332739578  1.0000
  O   O6        1.0  0.8618246961077235  0.6599446206400819  0.4784787246164713  1.0000
  O   O7        1.0  0.8611898855775747  0.4624644039755524  0.6959396877969459  1.0000
  O   O8        1.0  0.8624953462460714  0.4796259547388215  0.2763730281774628  1.0000
  O   O9        1.0  0.8618604784575464  0.28214417443066386  0.49383406312375483  1.0000
