data_image0
_chemical_formula_structural       NC8NH4C6ClH5C6NH7Zn2C4O8
_chemical_formula_sum              "N3 C24 H16 Cl1 Zn2 O8"
_cell_length_a       13.859017124695912
_cell_length_b       9.276545438789551
_cell_length_c       9.274774538082514
_cell_angle_alpha    85.10039089897613
_cell_angle_beta     90.34965622944028
_cell_angle_gamma    89.40963735980037

_space_group_name_H-M_alt    "P 1"
_space_group_IT_number       1

loop_
  _space_group_symop_operation_xyz
  'x, y, z'

loop_
  _atom_site_type_symbol
  _atom_site_label
  _atom_site_symmetry_multiplicity
  _atom_site_fract_x
  _atom_site_fract_y
  _atom_site_fract_z
  _atom_site_occupancy
  N   N1        1.0  0.8911127674664875  0.5919040967227902  0.40898323390514596  1.0000
  C   C1        1.0  0.8186827913996493  0.5695377257790453  0.35273414676681947  1.0000
  C   C2        1.0  0.7285842039806641  0.5417172420560439  0.28276751177805304  1.0000
  C   C3        1.0  0.6410605234759189  0.5688394145070315  0.3509761784450356  1.0000
  C   C4        1.0  0.5533538732669606  0.5417184727457833  0.2827669324516471  1.0000
  C   C5        1.0  0.5533532774588382  0.4874680420013302  0.14632808323263125  1.0000
  C   C6        1.0  0.6406947510746113  0.4604501087284289  0.07838196988550483  1.0000
  C   C7        1.0  0.7282186574189289  0.4874656826239636  0.14632926172246274  1.0000
  C   C8        1.0  0.46344294422780835  0.569538656534692  0.35273364865201695  1.0000
  N   N2        1.0  0.3911638899345595  0.5919044211671962  0.40898301780668844  1.0000
  H   H1        1.0  0.6412021819177676  0.610831385326303  0.45658311702778936  1.0000
  H   H2        1.0  0.48598581246519273  0.46612193688561643  0.09264039700035842  1.0000
  H   H3        1.0  0.6405534403681343  0.4185439295361164  0.9729889036310313  1.0000
  H   H4        1.0  0.7954420687985013  0.46611746838463647  0.09264257477304239  1.0000
  C   C9        1.0  0.14405405241900662  0.168471203198574  0.40874522445617933  1.0000
  C   C10       1.0  0.14385798169081832  0.2532818522254945  0.2755357884934706  1.0000
  C   C11       1.0  0.13489567719504758  0.18933640526338769  0.14522568298165872  1.0000
  C   C12       1.0  0.12592177248049508  0.03973747212779433  0.14612022446137374  1.0000
  C   C13       1.0  0.1275961939048853  0.9534096856062839  0.27688459897950723  1.0000
  C   C14       1.0  0.13823198715542317  0.015326177505380354  0.40923353475082025  1.0000
  Cl  Cl1       1.0  0.13345380708372148  0.2973915885349065  0.980460615626531  1.0000
  H   H5        1.0  0.19435857812855528  0.4294557592613491  0.635648595925882  1.0000
  H   H6        1.0  0.14836714744949742  0.37002728590775186  0.2726783930755299  1.0000
  H   H7        1.0  0.11856601931124122  0.9898931599956232  0.045304545983902544  1.0000
  H   H8        1.0  0.12286776926820964  0.8371723104415145  0.27423074289547666  1.0000
  H   H9        1.0  0.10686993069159056  0.7145597879069212  0.6426067416935408  1.0000
  C   C15       1.0  0.13938601596886113  0.5955866267380028  0.9851751856492426  1.0000
  C   C16       1.0  0.20717130111955884  0.6806778752934333  0.051960729493867534  1.0000
  C   C17       1.0  0.2793670360072198  0.7538913278242971  0.971237996549514  1.0000
  C   C18       1.0  0.2843640005898438  0.742345581407519  0.8222539220518357  1.0000
  C   C19       1.0  0.21686644344546901  0.6604307669179379  0.7537676470422778  1.0000
  C   C20       1.0  0.14289999195677858  0.5882106750363746  0.8328035576238393  1.0000
  N   N3        1.0  0.34826140137430484  0.8387819728527715  0.04102866940923833  1.0000
  H   H10       1.0  0.9970963499839312  0.3137139499155288  0.1109330333214491  1.0000
  H   H11       1.0  0.20538743548043392  0.6875165684195206  0.1679848027459503  1.0000
  H   H12       1.0  0.3401101396474451  0.798056136199179  0.7587552502615855  1.0000
  H   H13       1.0  0.22119665294390423  0.656419863853573  0.6375922830255001  1.0000
  H   H14       1.0  0.04406936116982574  0.4027491745991372  0.5666148815385483  1.0000
  H   H15       1.0  0.3453972982078773  0.8478242815992358  0.1524038072397791  1.0000
  H   H16       1.0  0.4026226486005758  0.8933586168587467  0.9818180290370385  1.0000
  Zn  Zn1       1.0  0.03541678375773084  0.5919002680174406  0.4089915081159232  1.0000
  Zn  Zn2       1.0  0.24685999594677277  0.5918963844527398  0.40898657399256333  1.0000
  C   C21       1.0  0.14227312000105408  0.5838605957708192  0.6725803351627184  1.0000
  C   C22       1.0  0.1400059567360139  0.5999378747797799  0.14539788959403244  1.0000
  C   C23       1.0  0.13930365366992747  0.8553025734946302  0.40339006947807454  1.0000
  C   C24       1.0  0.14297536314550907  0.3284941639874519  0.4145882312261493  1.0000
  O   O1        1.0  0.22045565484887097  0.6013904289198126  0.19916821658908024  1.0000
  O   O2        1.0  0.22230393323291264  0.5824040099266576  0.6188058472009588  1.0000
  O   O3        1.0  0.2199049761426857  0.8015968267522384  0.40143280398455605  1.0000
  O   O4        1.0  0.22285453926832655  0.3821976233521119  0.41654115160092386  1.0000
  O   O5        1.0  0.05942216828094393  0.8015990291210293  0.4014369305016554  1.0000
  O   O6        1.0  0.06182111313756811  0.5824079453669262  0.6188098977646792  1.0000
  O   O7        1.0  0.0599728279696723  0.6013943292117208  0.1991705319436976  1.0000
  O   O8        1.0  0.0623717129046657  0.38220151238910116  0.41654357515419393  1.0000
