data_image0
_chemical_formula_structural       NC8NH4C7NH5C9H8Zn2C4O8
_chemical_formula_sum              "N3 C28 H17 Zn2 O8"
_cell_length_a       13.859017124695912
_cell_length_b       9.275154477615127
_cell_length_c       9.275155815604963
_cell_angle_alpha    86.28252252333478
_cell_angle_beta     90.3574901998649
_cell_angle_gamma    89.43373790894346

_space_group_name_H-M_alt    "P 1"
_space_group_IT_number       1

loop_
  _space_group_symop_operation_xyz
  'x, y, z'

loop_
  _atom_site_type_symbol
  _atom_site_label
  _atom_site_symmetry_multiplicity
  _atom_site_fract_x
  _atom_site_fract_y
  _atom_site_fract_z
  _atom_site_occupancy
  N   N1        1.0  0.8916307354280297  0.564252885839968  0.4164477869478922  1.0000
  C   C1        1.0  0.8191957012169357  0.5409151570641826  0.36019695733929713  1.0000
  C   C2        1.0  0.7290908222375653  0.5118864290096055  0.29022815631651055  1.0000
  C   C3        1.0  0.6415732754209353  0.5401864876201121  0.35843893696156776  1.0000
  C   C4        1.0  0.5538604919059273  0.5118876495793374  0.29022758190714365  1.0000
  C   C5        1.0  0.5538476275206202  0.455281074765396  0.15378451240682556  1.0000
  C   C6        1.0  0.6411829910105495  0.4270897893432106  0.08583629267411474  1.0000
  C   C7        1.0  0.7287130067463301  0.45527873596315405  0.1537856813810843  1.0000
  C   C8        1.0  0.4639558543357399  0.5409160791285628  0.360196463021887  1.0000
  N   N2        1.0  0.3916818579986143  0.5642532065201027  0.41644757222885453  1.0000
  H   H1        1.0  0.641724430284368  0.5840021703397267  0.4640491449719939  1.0000
  H   H2        1.0  0.4864753352413143  0.43300784416089  0.10009516904233663  1.0000
  H   H3        1.0  0.641032203337438  0.3833635915233464  0.9804399661484916  1.0000
  H   H4        1.0  0.7959315901852865  0.43300341368999923  0.10009732886429634  1.0000
  C   C9        1.0  0.14444620094949245  0.14084940582505645  0.41477985943018425  1.0000
  C   C10       1.0  0.11743760010366834  0.2229342326059689  0.28770215919871833  1.0000
  C   C11       1.0  0.08260841291972998  0.15585950762703574  0.16735595775487  1.0000
  C   C12       1.0  0.074216672986402  0.0057847359639475755  0.17267011912928165  1.0000
  C   C13       1.0  0.10210762478986135  0.92246729247035  0.29685118380870296  1.0000
  C   C14       1.0  0.13887575304967448  0.9876457499305268  0.4181279837854367  1.0000
  C   C15       1.0  0.054309803835554726  0.2415129573777628  0.03874664022775165  1.0000
  N   N3        1.0  0.03156556042152281  0.31036270860758775  0.9353776919161549  1.0000
  H   H5        1.0  0.16461276169117012  0.2205668220659164  0.7685622472125497  1.0000
  H   H6        1.0  0.12136051045553686  0.3398568119820145  0.2834256939934406  1.0000
  H   H7        1.0  0.0469341228671325  0.9528616982206377  0.0801765051750174  1.0000
  H   H8        1.0  0.09704039288032673  0.8059986006373989  0.2967243450782153  1.0000
  H   H9        1.0  0.15654421052820888  0.6909166544750873  0.6551722452292134  1.0000
  C   C16       1.0  0.13991704438003486  0.5606030958874062  0.9932082561036434  1.0000
  C   C17       1.0  0.06397227511428571  0.6308579989253003  0.061300931181247575  1.0000
  C   C18       1.0  0.9944273434992166  0.7106953229755071  0.9803318506055022  1.0000
  C   C19       1.0  0.9995362123192384  0.7219495502540445  0.8297945482517544  1.0000
  C   C20       1.0  0.07354438275526087  0.6509199794466995  0.7599904462499861  1.0000
  C   C21       1.0  0.14340488476044233  0.5678919918521528  0.8396994992163063  1.0000
  C   C22       1.0  0.9280187024892738  0.8051553861272728  0.7465261685197246  1.0000
  C   C23       1.0  0.8681356478650694  0.8748289108140739  0.6767736222139198  1.0000
  C   C24       1.0  0.7954783242200724  0.9593659525730531  0.592129224507894  1.0000
  H   H10       1.0  0.3646428488480744  0.4442744586641129  0.10570607514049593  1.0000
  H   H11       1.0  0.05966360998638142  0.6268612268235987  0.17807666847450654  1.0000
  H   H12       1.0  0.9371309576615595  0.7648878094469287  0.035359169985346384  1.0000
  H   H13       1.0  0.07528257323413223  0.6576998990924198  0.6428709562172266  1.0000
  H   H14       1.0  0.29338939604162545  0.4843948411541508  0.5657869215113962  1.0000
  H   H15       1.0  0.8150584308272248  0.9635086011826639  0.47614660825022176  1.0000
  H   H16       1.0  0.7239528384569504  0.9080226493034884  0.606952531449092  1.0000
  H   H17       1.0  0.79230401623835  0.07069837463943521  0.6290741403218276  1.0000
  Zn  Zn1       1.0  0.03593475034792437  0.5642492005845672  0.4164560373698418  1.0000
  Zn  Zn2       1.0  0.2473779615222509  0.564245231965331  0.41645109660302354  1.0000
  C   C25       1.0  0.14278125515186368  0.5607703444423617  0.6796718536585995  1.0000
  C   C26       1.0  0.14053375428710346  0.5677259085118489  0.1532354289162965  1.0000
  C   C27       1.0  0.13990005031881944  0.8275337406813746  0.4117516430216437  1.0000
  C   C28       1.0  0.14341489868137947  0.30096078065547704  0.42115570954728443  1.0000
  O   O1        1.0  0.22098236583951092  0.5701085932020244  0.20694011011282568  1.0000
  O   O2        1.0  0.22281315386360648  0.558383556381135  0.6259630033370697  1.0000
  O   O3        1.0  0.22048546900305288  0.7737983854526651  0.4096155436206035  1.0000
  O   O4        1.0  0.22330997803569352  0.3546937735155067  0.423287461804734  1.0000
  O   O5        1.0  0.060002661679249295  0.7738006590372504  0.4096196721622427  1.0000
  O   O6        1.0  0.06233033482333951  0.5583875615859383  0.6259670618787883  1.0000
  O   O7        1.0  0.06049954005393854  0.5701125332415224  0.20694243560348924  1.0000
  O   O8        1.0  0.06282715275925987  0.35469770417285185  0.4232898953140669  1.0000
