data_image0
_chemical_formula_structural       NC10NC3NCH9C12NCOCH13C12ClH9Zn2C4O8
_chemical_formula_sum              "N4 C44 H31 O9 Cl1 Zn2"
_cell_length_a       19.437513618241372
_cell_length_b       10.299155265289647
_cell_length_c       10.299771906710086
_cell_angle_alpha    85.5278422735101
_cell_angle_beta     90.35636607497939
_cell_angle_gamma    89.50051482239499

_space_group_name_H-M_alt    "P 1"
_space_group_IT_number       1

loop_
  _space_group_symop_operation_xyz
  'x, y, z'

loop_
  _atom_site_type_symbol
  _atom_site_label
  _atom_site_symmetry_multiplicity
  _atom_site_fract_x
  _atom_site_fract_y
  _atom_site_fract_z
  _atom_site_occupancy
  N   N1        1.0  0.6474381072987841  0.4109977550536088  0.5753291190733918  1.0000
  C   C1        1.0  0.5885009853475495  0.42801001877444683  0.5723495350608251  1.0000
  C   C2        1.0  0.5150557858353207  0.44926527624417917  0.5686510610978202  1.0000
  C   C3        1.0  0.4733121833039587  0.3480722790785132  0.5570129432342491  1.0000
  C   C4        1.0  0.3974192892318181  0.35814026603981414  0.5497894673540951  1.0000
  C   C5        1.0  0.35783718058060565  0.4389714915081777  0.615515216628599  1.0000
  C   C6        1.0  0.2816556006854773  0.43036558376924305  0.6070728948828267  1.0000
  C   C7        1.0  0.2485446811739657  0.3090108038249426  0.6117417079396512  1.0000
  C   C8        1.0  0.1768103517713395  0.3026411153323445  0.6045749653368466  1.0000
  C   C9        1.0  0.1372164572869652  0.4171533611548261  0.5931017414088825  1.0000
  C   C10       1.0  0.06336770051019382  0.4104455282697295  0.585766977824373  1.0000
  N   N2        1.0  0.0039983980323734  0.4050530205751382  0.5798702861856517  1.0000
  C   C11       1.0  0.1696109402294814  0.538197284181666  0.5891782715268357  1.0000
  C   C12       1.0  0.2413296318141597  0.5448209596068851  0.5964069825130609  1.0000
  C   C13       1.0  0.3865145070981212  0.5312307341749534  0.7054160663178157  1.0000
  N   N3        1.0  0.44348443551526556  0.594454967133464  0.6849985748094364  1.0000
  C   C14       1.0  0.4873117139719266  0.5852339013069541  0.5718926649713179  1.0000
  H   H1        1.0  0.4957132059390834  0.25301384678885097  0.5449116192389825  1.0000
  H   H2        1.0  0.37271086725109526  0.28864427595060493  0.491485744977257  1.0000
  H   H3        1.0  0.2780141472189033  0.21908879027403017  0.6227814164165568  1.0000
  H   H4        1.0  0.1522358009746876  0.20840696608923714  0.608481883705152  1.0000
  H   H5        1.0  0.13945663290503096  0.627463509438386  0.5804508538943072  1.0000
  H   H6        1.0  0.2654225777707092  0.6394679424578316  0.5924845178491045  1.0000
  H   H7        1.0  0.35651870656066253  0.551587231851697  0.7897786624075861  1.0000
  H   H8        1.0  0.5300513050567239  0.6555490974973439  0.5776413519476079  1.0000
  H   H9        1.0  0.45762683990116304  0.613377357882698  0.4812409741183741  1.0000
  C   C15       1.0  0.8257984039148035  0.026626503731298923  0.5777194471725507  1.0000
  C   C16       1.0  0.8140342179631228  0.03657305488296924  0.44264496922052365  1.0000
  C   C17       1.0  0.8080028847615172  0.9244796376669667  0.3740407912503647  1.0000
  C   C18       1.0  0.8138696862756478  0.8013161432703715  0.4423350901361478  1.0000
  C   C19       1.0  0.8256447216501365  0.7894141469889547  0.577491296507894  1.0000
  C   C20       1.0  0.8315396498416864  0.9025880321185225  0.6443514359154451  1.0000
  C   C21       1.0  0.7955586458452701  0.9359755429148472  0.23114831455010879  1.0000
  C   C22       1.0  0.8304434859977823  0.02953519193278132  0.15017534126000465  1.0000
  C   C23       1.0  0.8187382984008256  0.04022262454484226  0.01570407126357676  1.0000
  C   C24       1.0  0.7723420082256577  0.9566746365589707  0.9593628231056299  1.0000
  C   C25       1.0  0.7366167665966608  0.8649453102067336  0.040256933741358296  1.0000
  C   C26       1.0  0.7483470092519008  0.8540014543632775  0.17469118752616455  1.0000
  N   N4        1.0  0.7584224719940073  0.9671990022988267  0.8216250356304164  1.0000
  C   C27       1.0  0.8086501439617588  0.003334711346483665  0.7240474069455192  1.0000
  O   O1        1.0  0.8717694055781693  0.004806275571156429  0.752709607506393  1.0000
  C   C28       1.0  0.7866894942566169  0.030199251026844065  0.5852283779303464  1.0000
  H   H10       1.0  0.8303447681737282  0.350276467663293  0.6296694468427932  1.0000
  H   H11       1.0  0.8085864017486246  0.13172829349923054  0.39076615446030805  1.0000
  H   H12       1.0  0.8101641721929429  0.7145984598750701  0.3896596577773084  1.0000
  H   H13       1.0  0.8406159283947713  0.8942011458039696  0.7485367875370703  1.0000
  H   H14       1.0  0.848281448806915  0.5596596147240207  0.8324659951221803  1.0000
  H   H15       1.0  0.867185296938199  0.09395603064723979  0.19073544937763057  1.0000
  H   H16       1.0  0.8451272536851453  0.11526049592419209  0.9564599689691918  1.0000
  H   H17       1.0  0.6998088547151843  0.801229947060402  0.9988289512890853  1.0000
  H   H18       1.0  0.719747373383253  0.782616478462471  0.23474007836928523  1.0000
  H   H19       1.0  0.709961407159522  0.9391499791501966  0.7899345097216814  1.0000
  H   H20       1.0  0.737025253608702  0.08447461235383091  0.580142225053728  1.0000
  H   H21       1.0  0.7803191367721167  0.9367126855920448  0.5399233566722978  1.0000
  H   H22       1.0  0.8258514374914689  0.0896582395537475  0.5303320826713344  1.0000
  C   C29       1.0  0.8256887833216368  0.408127179824457  0.19623566285712868  1.0000
  C   C30       1.0  0.8880792117487194  0.47597520989036685  0.19068215853300302  1.0000
  C   C31       1.0  0.9197265213749862  0.5102456305833576  0.07073827549059586  1.0000
  C   C32       1.0  0.8881456230840024  0.47575892391557506  0.9554132918868454  1.0000
  C   C33       1.0  0.8257543095463247  0.4079134686935635  0.9589751282183175  1.0000
  C   C34       1.0  0.7948755950621927  0.37447669550326435  0.07985867688794125  1.0000
  C   C35       1.0  0.9857308494773116  0.5820217853306096  0.06591688468941603  1.0000
  C   C36       1.0  0.9965838241797456  0.6848538856919733  0.14582666685618786  1.0000
  C   C37       1.0  0.05873966542806405  0.7523101778218113  0.14110171602735422  1.0000
  C   C38       1.0  0.11074776730058235  0.717969684086945  0.05678595723579938  1.0000
  C   C39       1.0  0.10055143571611636  0.6159861686730963  0.9770130784794572  1.0000
  C   C40       1.0  0.03845730287809546  0.5483285104697069  0.9813632434072019  1.0000
  Cl  Cl1       1.0  0.18869038985562625  0.80272703208339  0.05109352365774855  1.0000
  H   H23       1.0  0.8018967428410907  0.38233129560789836  0.5258005160663883  1.0000
  H   H24       1.0  0.9126897279121747  0.5007663385562335  0.27996893410257423  1.0000
  H   H25       1.0  0.9118492687242558  0.5035069769136191  0.8625972738814032  1.0000
  H   H26       1.0  0.7467438330928502  0.3221361904261566  0.08337474168549353  1.0000
  H   H27       1.0  0.8019934701679364  0.38201508707975607  0.6328826565108946  1.0000
  H   H28       1.0  0.9566929690418186  0.7141743050005229  0.2106840519001043  1.0000
  H   H29       1.0  0.06633114016432094  0.8314636594162673  0.2028085121769707  1.0000
  H   H30       1.0  0.14075583149754256  0.5888078339187073  0.9118154749314535  1.0000
  H   H31       1.0  0.03200788602005011  0.46861566832674284  0.9198906879229911  1.0000
  Zn  Zn1       1.0  0.750333711935269  0.4092787415029173  0.5766471118211525  1.0000
  Zn  Zn2       1.0  0.9011028026725645  0.4067613607508893  0.5785629665241263  1.0000
  C   C41       1.0  0.8257414378796075  0.402779780613212  0.8148025387754225  1.0000
  C   C42       1.0  0.8256967228027445  0.4132619328631299  0.3404076874675315  1.0000
  C   C43       1.0  0.825669765825241  0.645232527231465  0.5723592066885406  1.0000
  C   C44       1.0  0.825768343730541  0.1708076266596452  0.5828510886061348  1.0000
  O   O2        1.0  0.8829154727019821  0.414024203828153  0.3895201945243578  1.0000
  O   O3        1.0  0.8829529394560007  0.40010589621112197  0.7671437475545113  1.0000
  O   O4        1.0  0.8828942921815268  0.5958895678387615  0.5713690313624429  1.0000
  O   O5        1.0  0.8829740685189392  0.21824054237776205  0.585294812685023  1.0000
  O   O6        1.0  0.7684623946388021  0.597799560736519  0.5699152649996371  1.0000
  O   O7        1.0  0.7685210415897534  0.4020174495545852  0.7656899114793654  1.0000
  O   O8        1.0  0.7684835747564558  0.41593571234889337  0.3880647970593601  1.0000
  O   O9        1.0  0.7685421705808375  0.2201520415817284  0.58383951259081  1.0000
