data_image0
_chemical_formula_structural       NC9NC4H8C8H6C8H6Zn2C4O8
_chemical_formula_sum              "N2 C33 H20 Zn2 O8"
_cell_length_a       16.32274767691083
_cell_length_b       9.27514070457351
_cell_length_c       9.275144076552241
_cell_angle_alpha    86.09146216302537
_cell_angle_beta     89.93057160658579
_cell_angle_gamma    90.11802364943966

_space_group_name_H-M_alt    "P 1"
_space_group_IT_number       1

loop_
  _space_group_symop_operation_xyz
  'x, y, z'

loop_
  _atom_site_type_symbol
  _atom_site_label
  _atom_site_symmetry_multiplicity
  _atom_site_fract_x
  _atom_site_fract_y
  _atom_site_fract_z
  _atom_site_occupancy
  N   N1        1.0  0.7733434347693869  0.5565966395707465  0.40195754298333536  1.0000
  C   C1        1.0  0.7204293223139662  0.5035098729012962  0.3415790139491053  1.0000
  C   C2        1.0  0.654657101767616  0.43757569530741175  0.2665883981092102  1.0000
  C   C3        1.0  0.6652269375594  0.3473894733338736  0.1640098168084221  1.0000
  C   C4        1.0  0.5853816738252905  0.30337814599445934  0.11395487112960456  1.0000
  C   C5        1.0  0.5271506490289322  0.3677877665107377  0.18721744933848616  1.0000
  C   C6        1.0  0.4370276483830842  0.3507649098524811  0.16785872442825567  1.0000
  C   C7        1.0  0.38224991845484124  0.42583842551537765  0.2532427852278319  1.0000
  C   C8        1.0  0.2973828523405925  0.4112898720961382  0.23669759273264673  1.0000
  C   C9        1.0  0.2422183457807762  0.4886712798040354  0.32470566470269585  1.0000
  N   N2        1.0  0.19788488322110553  0.5508731952655519  0.3954492495483477  1.0000
  C   C10       1.0  0.2662391577752124  0.32154639088983905  0.1346309432846977  1.0000
  C   C11       1.0  0.3196960548129265  0.2465723182060584  0.04936035868950373  1.0000
  C   C12       1.0  0.404400053440974  0.26072899963779594  0.06545972636250141  1.0000
  C   C13       1.0  0.5659282391023481  0.4617040582153684  0.29403576055996594  1.0000
  H   H1        1.0  0.7237522567051258  0.31232028704864634  0.1241193378811305  1.0000
  H   H2        1.0  0.5762831185566912  0.2296690577580125  0.030117319456823617  1.0000
  H   H3        1.0  0.40512581039104667  0.4958983425918051  0.3329231301726652  1.0000
  H   H4        1.0  0.2007168034362665  0.30956139855415254  0.12100138574533847  1.0000
  H   H5        1.0  0.2954310368898654  0.17714737001719327  0.9704024579497097  1.0000
  H   H6        1.0  0.4435277554060712  0.20075457058523893  0.997249185209193  1.0000
  H   H7        1.0  0.5494436891553122  0.4239092239831625  0.4065986443843525  1.0000
  H   H8        1.0  0.5497155717311714  0.5770703338504307  0.26970335700509446  1.0000
  C   C14       1.0  0.9831249688785278  0.13032063999827462  0.39773350772934707  1.0000
  C   C15       1.0  0.9942177344289902  0.2126905138758153  0.266076267915596  1.0000
  C   C16       1.0  0.01247816813022262  0.1462435157823183  0.1394753646724196  1.0000
  C   C17       1.0  0.02008540842009009  0.9962302666651258  0.14209899727623476  1.0000
  C   C18       1.0  0.007932624829439341  0.9122772711432421  0.2714101157116826  1.0000
  C   C19       1.0  0.988111170554605  0.9771380387463303  0.3996856460597152  1.0000
  C   C20       1.0  0.03944493894539147  0.9279892886327907  0.011452203897365681  1.0000
  C   C21       1.0  0.05565441176663732  0.8708392561794608  0.9020727983973803  1.0000
  H   H9        1.0  0.9981525347593865  0.209108118489765  0.751681010487755  1.0000
  H   H10       1.0  0.9906749447048759  0.32953217582803435  0.26171553832227956  1.0000
  H   H11       1.0  0.021467235268847192  0.21216416920673245  0.039689767919614434  1.0000
  H   H12       1.0  0.01206132059429898  0.7956131290358579  0.2711687600884645  1.0000
  H   H13       1.0  0.9950857721561679  0.6801918815247386  0.6382094507705713  1.0000
  H   H14       1.0  0.06988284762121344  0.8206718360946412  0.8060606515458055  1.0000
  C   C22       1.0  0.9836711312662895  0.5508048339509304  0.9754468372885796  1.0000
  C   C23       1.0  0.9308132461393641  0.6455583896942709  0.04245613916791992  1.0000
  C   C24       1.0  0.8845706767587551  0.7473673012833327  0.9604722500263174  1.0000
  C   C25       1.0  0.8903509886452834  0.7565040394769518  0.8099752296582413  1.0000
  C   C26       1.0  0.9415075806284233  0.6616676739469393  0.7412359228495455  1.0000
  C   C27       1.0  0.987565029137567  0.5566538814951613  0.821972324622245  1.0000
  C   C28       1.0  0.842941953230484  0.8622925780685374  0.7256488028825459  1.0000
  C   C29       1.0  0.8032512447819958  0.9508624232033626  0.6550316347488505  1.0000
  H   H15       1.0  0.15285596358212117  0.35923249182440875  0.0910038323333282  1.0000
  H   H16       1.0  0.926701352871851  0.6431898098139882  0.15918349251209593  1.0000
  H   H17       1.0  0.844859873924782  0.8200020559609627  0.014692112315132013  1.0000
  H   H18       1.0  0.9438914098145246  0.6676274074786883  0.6241291196956353  1.0000
  H   H19       1.0  0.09967441367547525  0.42311435159047317  0.5501232643147906  1.0000
  H   H20       1.0  0.7684110389118296  0.028607855442289942  0.5930429434949827  1.0000
  Zn  Zn1       1.0  0.8958569479018608  0.5549411648336264  0.4000877050350829  1.0000
  Zn  Zn2       1.0  0.07537136090740781  0.5525169197031057  0.39733086812743823  1.0000
  C   C30       1.0  0.9867933474132822  0.5498042109873968  0.6619476313266095  1.0000
  C   C31       1.0  0.9844369330507665  0.5576556673289472  0.13547105739395482  1.0000
  C   C32       1.0  0.9871380519440234  0.817031894447666  0.3935730151522166  1.0000
  C   C33       1.0  0.9840921574175275  0.2904262529033621  0.4038457473602459  1.0000
  O   O1        1.0  0.05281869027474562  0.5590285908202413  0.18813042776082606  1.0000
  O   O2        1.0  0.054658867666405916  0.546590250933062  0.6071954681147835  1.0000
  O   O3        1.0  0.054936309473593514  0.7623800076397407  0.39048108431863576  1.0000
  O   O4        1.0  0.05254118677506936  0.34323884450853637  0.4048447044500879  1.0000
  O   O5        1.0  0.9186870607747144  0.7642192408569896  0.39257386964562846  1.0000
  O   O6        1.0  0.9184096288105399  0.5484312159444196  0.6092881805830737  1.0000
  O   O7        1.0  0.9165694432063118  0.560869493611992  0.19022140719013628  1.0000
  O   O8        1.0  0.9162919401396394  0.3450797377341065  0.40693579191947993  1.0000
