data_image0
_chemical_formula_structural       NC8NH4C7NH5C7NH4Zn2C4O8
_chemical_formula_sum              "N4 C26 H13 Zn2 O8"
_cell_length_a       13.859017981522156
_cell_length_b       9.275154477615127
_cell_length_c       9.275157849593905
_cell_angle_alpha    86.33461140486662
_cell_angle_beta     89.7408760017346
_cell_angle_gamma    89.43373755438122

_space_group_name_H-M_alt    "P 1"
_space_group_IT_number       1

loop_
  _space_group_symop_operation_xyz
  'x, y, z'

loop_
  _atom_site_type_symbol
  _atom_site_label
  _atom_site_symmetry_multiplicity
  _atom_site_fract_x
  _atom_site_fract_y
  _atom_site_fract_z
  _atom_site_occupancy
  N   N1        1.0  0.9030465010578677  0.5626400558996496  0.41656678564725413  1.0000
  C   C1        1.0  0.8309279446469194  0.5550204790168762  0.3552370532766196  1.0000
  C   C2        1.0  0.7412167020467884  0.5455430942964417  0.27895084799932257  1.0000
  C   C3        1.0  0.7416067428987698  0.5270612922583671  0.1301890035095945  1.0000
  C   C4        1.0  0.654459204725848  0.5178583819745686  0.05610529741276693  1.0000
  C   C5        1.0  0.5667414563027754  0.5270630119163311  0.1301887620865929  1.0000
  C   C6        1.0  0.565986459276443  0.545544065622781  0.2789506681033911  1.0000
  C   C7        1.0  0.6533154369223638  0.5547829146572856  0.3533204379100514  1.0000
  C   C8        1.0  0.4756881226346369  0.5550213802980575  0.35523681648103533  1.0000
  N   N2        1.0  0.403097583604425  0.5626403684264487  0.41656669330430174  1.0000
  H   H1        1.0  0.8091274978255255  0.5197885765530548  0.0716527856724336  1.0000
  H   H2        1.0  0.654901400552469  0.5035822439923245  0.9411931745740355  1.0000
  H   H3        1.0  0.4996712088713366  0.5197916697007579  0.07165237807996916  1.0000
  H   H4        1.0  0.652872335650091  0.5690878516861406  0.46846618381739985  1.0000
  C   C9        1.0  0.15587397492362687  0.13923487177577099  0.41489903065267675  1.0000
  C   C10       1.0  0.12978147835688292  0.22119027345359665  0.28783086142579295  1.0000
  C   C11       1.0  0.09581986859287932  0.15399297941213108  0.16749368438169965  1.0000
  C   C12       1.0  0.08738981941531399  0.003923620276591326  0.17280744540300175  1.0000
  C   C13       1.0  0.11438554871807893  0.9207326517115583  0.29697919661016203  1.0000
  C   C14       1.0  0.1502793907564106  0.986034625986049  0.4182469027171243  1.0000
  C   C15       1.0  0.06844840529062579  0.23951544417061932  0.03889401255191748  1.0000
  N   N3        1.0  0.04644934959896752  0.30825991701817523  0.9355328169103663  1.0000
  H   H5        1.0  0.17349011868866415  0.21931260670571184  0.7686548739552048  1.0000
  H   H6        1.0  0.13373521748393014  0.33810849726626735  0.2835547178665059  1.0000
  H   H7        1.0  0.06077405706203877  0.9509063805218853  0.08032076717040004  1.0000
  H   H8        1.0  0.10931923150385137  0.8042638308038209  0.2968523664485636  1.0000
  H   H9        1.0  0.16623899606758122  0.6895469542116381  0.6552733793830761  1.0000
  C   C16       1.0  0.15438392652245114  0.5585592010811016  0.9933590617199247  1.0000
  C   C17       1.0  0.23723897645209663  0.6055628606214636  0.06324090632712642  1.0000
  C   C18       1.0  0.3150695055781615  0.6639041589351837  0.9835933780123048  1.0000
  C   C19       1.0  0.3109506807820351  0.6761693035396741  0.832982922050566  1.0000
  C   C20       1.0  0.23008710718937356  0.6279980931684885  0.7617549192648188  1.0000
  C   C21       1.0  0.15176946105986167  0.5667102353998865  0.8397868579671384  1.0000
  C   C22       1.0  0.3988569922910597  0.7129157624482314  0.05679075298717118  1.0000
  N   N4        1.0  0.46620068199926484  0.7523078760950381  0.11562907475312145  1.0000
  H   H10       1.0  0.9199368336747774  0.50994478180783  0.1010045207320196  1.0000
  H   H11       1.0  0.37073302418303045  0.7217767177999002  0.7703404226146051  1.0000
  H   H12       1.0  0.22982356943782842  0.6355784614615188  0.6447204485860101  1.0000
  H   H13       1.0  0.9949687046006283  0.527925047374131  0.5622270502235218  1.0000
  Zn  Zn1       1.0  0.04735044751741736  0.5626363759855977  0.4165750624825044  1.0000
  Zn  Zn2       1.0  0.2587936811471312  0.5626323978483863  0.4165701616960322  1.0000
  C   C23       1.0  0.15229942397555402  0.5594255967511168  0.6797711467540488  1.0000
  C   C24       1.0  0.1538470011863724  0.5658449976384787  0.15337422601579753  1.0000
  C   C25       1.0  0.15134965497510167  0.8259161225607006  0.411871040633524  1.0000
  C   C26       1.0  0.1547967092434735  0.2993527402828242  0.4212744021250905  1.0000
  O   O1        1.0  0.23390845091358206  0.5682823775880705  0.207074892218603  1.0000
  O   O2        1.0  0.232718504577605  0.5569841057796077  0.6260663418018584  1.0000
  O   O3        1.0  0.23195046777425232  0.7721785900548555  0.4097351166240013  1.0000
  O   O4        1.0  0.23467641583131668  0.3530879025878153  0.42340600937999456  1.0000
  O   O5        1.0  0.07146764067804683  0.772180871249023  0.4097392147926407  1.0000
  O   O6        1.0  0.07223566626956558  0.5569881185226992  0.626070369975827  1.0000
  O   O7        1.0  0.07342561835379516  0.5682863234007853  0.20707718747156623  1.0000
  O   O8        1.0  0.07419358300196223  0.35309183912839126  0.42340841264352114  1.0000
