data_image0
_chemical_formula_structural       NC12NC2H8C9H8C6BrH4Zn2C4O8
_chemical_formula_sum              "N2 C33 H20 Br1 Zn2 O8"
_cell_length_a       19.240039667572717
_cell_length_b       9.275152443626249
_cell_length_c       9.27656775626242
_cell_angle_alpha    85.92079402595407
_cell_angle_beta     90.18620512450872
_cell_angle_gamma    90.57354334366605

_space_group_name_H-M_alt    "P 1"
_space_group_IT_number       1

loop_
  _space_group_symop_operation_xyz
  'x, y, z'

loop_
  _atom_site_type_symbol
  _atom_site_label
  _atom_site_symmetry_multiplicity
  _atom_site_fract_x
  _atom_site_fract_y
  _atom_site_fract_z
  _atom_site_occupancy
  N   N1        1.0  0.659521486149555  0.5631682433997269  0.40525059710908945  1.0000
  C   C1        1.0  0.5993731176351932  0.5631683357947681  0.4052505058846514  1.0000
  C   C2        1.0  0.5245550808761137  0.5631684645825016  0.4052503531056232  1.0000
  C   C3        1.0  0.48792139966158865  0.49268458892097966  0.5202262758348084  1.0000
  C   C4        1.0  0.4152502128602036  0.492562363812332  0.5203227117291138  1.0000
  C   C5        1.0  0.37822284602665496  0.5631685649296844  0.405250100151193  1.0000
  C   C6        1.0  0.4155711589298837  0.6337749758607665  0.29017770369765206  1.0000
  C   C7        1.0  0.48824140765068  0.6336524904938283  0.29027427639519265  1.0000
  C   C8        1.0  0.3010177549949816  0.5631684765180935  0.4052499945904395  1.0000
  C   C9        1.0  0.2632985040321516  0.4378151124236221  0.452133594580157  1.0000
  C   C10       1.0  0.190628224468077  0.437932863544789  0.4520318672805695  1.0000
  C   C11       1.0  0.15468546748924236  0.5631683336966153  0.4052500626579829  1.0000
  C   C12       1.0  0.07986743017059639  0.5631682100533502  0.40525033896796203  1.0000
  N   N2        1.0  0.019719113473165198  0.5631681669705526  0.4052505703550622  1.0000
  C   C13       1.0  0.19169022167830096  0.6884038875020488  0.3584681990676305  1.0000
  C   C14       1.0  0.2643613273894708  0.6885218369326942  0.3583662906928676  1.0000
  H   H1        1.0  0.5155136284256095  0.4381217945336191  0.6099946075555014  1.0000
  H   H2        1.0  0.3880405397435757  0.4388981813263737  0.6113256207160895  1.0000
  H   H3        1.0  0.3885943013121669  0.6874391878439117  0.19917473819389597  1.0000
  H   H4        1.0  0.5160789503068183  0.6882151765062701  0.2005062510379909  1.0000
  H   H5        1.0  0.2899702353062542  0.33912135306122826  0.4870510540886673  1.0000
  H   H6        1.0  0.16249850289999837  0.3402491142639483  0.4880919458050321  1.0000
  H   H7        1.0  0.16439011969327103  0.7860876096857916  0.32240813677935853  1.0000
  H   H8        1.0  0.2918760752763305  0.787215683756883  0.3234487812118124  1.0000
  C   C15       1.0  0.837575704830303  0.13955033924321514  0.4067215759718348  1.0000
  C   C16       1.0  0.8123052754988006  0.2210903984504438  0.2843131005647932  1.0000
  C   C17       1.0  0.793491767120051  0.1544272562921729  0.1596128318641965  1.0000
  C   C18       1.0  0.7996524552706696  0.005038670344237331  0.1548520100398525  1.0000
  C   C19       1.0  0.8235620911904896  0.9218003284758953  0.27622597545292993  1.0000
  C   C20       1.0  0.8416715403693619  0.9867751538792832  0.4037920150579679  1.0000
  C   C21       1.0  0.78061345273237  0.936623914399967  0.025717039123430714  1.0000
  C   C22       1.0  0.764672721038456  0.879309114137218  0.9175867479083899  1.0000
  C   C23       1.0  0.7453317901568843  0.8097557404434493  0.7863896034339337  1.0000
  H   H9        1.0  0.9379104957441641  0.22402118710952565  0.6944789289650963  1.0000
  H   H10       1.0  0.808643335551915  0.33760344423877164  0.2838598737875387  1.0000
  H   H11       1.0  0.7747583716317546  0.21975270762119828  0.0662951697078651  1.0000
  H   H12       1.0  0.8264819114148271  0.8054509157843048  0.2722064971331314  1.0000
  H   H13       1.0  0.9070008714293388  0.6934041297328992  0.6006083838958887  1.0000
  H   H14       1.0  0.7580594385271933  0.6931657967276124  0.7998503728177561  1.0000
  H   H15       1.0  0.6887305538620261  0.8221450466976132  0.7666642922807122  1.0000
  H   H16       1.0  0.7745328024384547  0.8611904699404207  0.69312454561303  1.0000
  C   C24       1.0  0.8389401534134427  0.5590171333392076  0.9821443962695048  1.0000
  C   C25       1.0  0.7773450187886517  0.5937449232407996  0.05263516191053319  1.0000
  C   C26       1.0  0.7188958570552513  0.6403553122603356  0.9737730118939348  1.0000
  C   C27       1.0  0.7209443084918324  0.6531819711239775  0.8232328159619753  1.0000
  C   C28       1.0  0.7811693278601237  0.6168958694945444  0.7510203764964872  1.0000
  C   C29       1.0  0.8403071096287892  0.5673083730510717  0.8283692495042955  1.0000
  Br  Br1       1.0  0.6409516095159202  0.7181357281019014  0.7157580050465591  1.0000
  H   H17       1.0  0.9339213050725019  0.42799090340742263  0.2734316312050953  1.0000
  H   H18       1.0  0.6721711499184109  0.66785921386543  0.029995303798443725  1.0000
  H   H19       1.0  0.7810955639973858  0.6242646254426893  0.6339444337433254  1.0000
  H   H20       1.0  0.954594646271653  0.55241245657183  0.549026006330342  1.0000
  Zn  Zn1       1.0  0.7634667446711632  0.5631644514377323  0.4052589107920417  1.0000
  Zn  Zn2       1.0  0.9157738358306119  0.5631603070929034  0.40525405638384715  1.0000
  C   C30       1.0  0.8400193726022339  0.5599942806733818  0.6684344883553277  1.0000
  C   C31       1.0  0.8392228801160259  0.566332299347631  0.14207861389240395  1.0000
  C   C32       1.0  0.8408844836869099  0.8265753459887566  0.398604163229175  1.0000
  C   C33       1.0  0.8383577088048833  0.2997495016294418  0.4119090218303883  1.0000
  O   O1        1.0  0.897117482695193  0.5687794697209785  0.19575217788243232  1.0000
  O   O2        1.0  0.8977223221358205  0.5575428725157259  0.6147568289786665  1.0000
  O   O3        1.0  0.8984201335293495  0.7728104688358544  0.3968669271832993  1.0000
  O   O4        1.0  0.89641961920495  0.3535118826631889  0.4136419716107653  1.0000
  O   O5        1.0  0.7828209093218849  0.7728128758703574  0.39687099555919536  1.0000
  O   O6        1.0  0.7821231061798825  0.5575470119559528  0.6147608145368038  1.0000
  O   O7        1.0  0.7815182637442087  0.5687835419187682  0.19575443130744738  1.0000
  O   O8        1.0  0.7808204003757397  0.35351594560155  0.41364433309688736  1.0000
