data_image0
_chemical_formula_structural       NC5NC4H6C6NH7C6NCH7Zn2C4O8
_chemical_formula_sum              "N4 C26 H20 Zn2 O8"
_cell_length_a       13.854160002989762
_cell_length_b       9.274771166103582
_cell_length_c       9.273390368590327
_cell_angle_alpha    86.06293122453995
_cell_angle_beta     89.99084465989662
_cell_angle_gamma    90.59704847255895

_space_group_name_H-M_alt    "P 1"
_space_group_IT_number       1

loop_
  _space_group_symop_operation_xyz
  'x, y, z'

loop_
  _atom_site_type_symbol
  _atom_site_label
  _atom_site_symmetry_multiplicity
  _atom_site_fract_x
  _atom_site_fract_y
  _atom_site_fract_z
  _atom_site_occupancy
  N   N1        1.0  0.9199736963967516  0.5617333420745062  0.4073354167164889  1.0000
  C   C1        1.0  0.8478188641593514  0.5863223121609853  0.3482551889217964  1.0000
  C   C2        1.0  0.7580572394700348  0.6169116508732408  0.274757123896354  1.0000
  C   C3        1.0  0.6702779575715915  0.5881852807665062  0.3465193662582335  1.0000
  C   C4        1.0  0.5829148271995261  0.6169116649589701  0.2747571007023939  1.0000
  C   C5        1.0  0.4927107217640655  0.5863221657895903  0.34825528079362433  1.0000
  N   N2        1.0  0.4202001253558904  0.5617332785657145  0.40733541674569707  1.0000
  C   C6        1.0  0.5833678434438254  0.674971115153933  0.13125047728392203  1.0000
  C   C7        1.0  0.6711293981162043  0.7058468812492883  0.05938089392792367  1.0000
  C   C8        1.0  0.6715518264332462  0.7640254601002755  0.9043871981470204  1.0000
  C   C9        1.0  0.7584449324732105  0.6749711128693354  0.13125038702670566  1.0000
  H   H1        1.0  0.6699518599123538  0.5431370826457309  0.45759106067417554  1.0000
  H   H2        1.0  0.5156487134309804  0.6961701585655655  0.07557261026682194  1.0000
  H   H3        1.0  0.7368824546557114  0.8319451371786857  0.880481102236442  1.0000
  H   H4        1.0  0.6071739770079959  0.8319451397472741  0.8804811673044485  1.0000
  H   H5        1.0  0.6709225998018771  0.6727253740191825  0.8330129298047599  1.0000
  H   H6        1.0  0.8264716733006172  0.6961702701610124  0.07557252465284292  1.0000
  C   C10       1.0  0.16712815204334852  0.1381451044878288  0.4081210198705609  1.0000
  C   C11       1.0  0.14492112295804827  0.2200840545470366  0.279234391548973  1.0000
  C   C12       1.0  0.1317260939572833  0.15365617540359655  0.14953003407683463  1.0000
  C   C13       1.0  0.1407887261675138  0.0039018886207926526  0.14777284415776726  1.0000
  C   C14       1.0  0.16121093928081823  0.9206246936116071  0.2748889469363718  1.0000
  C   C15       1.0  0.17305484914789027  0.9853105770745744  0.4065623639467062  1.0000
  N   N3        1.0  0.1101121401420117  0.2386795684148886  0.019226867085525345  1.0000
  H   H7        1.0  0.2757465447840841  0.22115773800694316  0.7235462553192911  1.0000
  H   H8        1.0  0.1400543379938417  0.336670879320071  0.2786807601012468  1.0000
  H   H9        1.0  0.13109332103437987  0.9513540542430962  0.04797842702034116  1.0000
  H   H10       1.0  0.16546483625312458  0.8044168083896245  0.27076122881746545  1.0000
  H   H11       1.0  0.24230148227333936  0.690525028399956  0.6211632055987104  1.0000
  H   H12       1.0  0.10346183495644845  0.350752973043134  0.019180054567251578  1.0000
  H   H13       1.0  0.10050752851419492  0.19017413257616547  0.9218026860827315  1.0000
  C   C16       1.0  0.17010476237081606  0.5572296685328593  0.9841041807813496  1.0000
  C   C17       1.0  0.25873611854272965  0.5543635867538561  0.057711948702147575  1.0000
  C   C18       1.0  0.3459150030837703  0.5649065939301057  0.982277771081653  1.0000
  C   C19       1.0  0.34667840086826157  0.578706458848703  0.8306243922450789  1.0000
  C   C20       1.0  0.2586183507151645  0.5791399206383369  0.7562114981554773  1.0000
  C   C21       1.0  0.1700782474795943  0.5662260019195411  0.8305791629929725  1.0000
  N   N4        1.0  0.43550029311383137  0.590910313967135  0.7498136759052971  1.0000
  C   C22       1.0  0.5308023643218085  0.5910803084480909  0.8168015703891927  1.0000
  H   H14       1.0  0.017270431867611787  0.48794075473235826  0.27007164524837  1.0000
  H   H15       1.0  0.41240944921143424  0.5635792759914342  0.04340122422946502  1.0000
  H   H16       1.0  0.9443505713066519  0.4541624732896916  0.7352942412983315  1.0000
  H   H17       1.0  0.43243536326467114  0.6004700850050279  0.6369202532274838  1.0000
  H   H18       1.0  0.5377139927744785  0.6836120498523266  0.8860998570339147  1.0000
  H   H19       1.0  0.5418547784760108  0.48797128290910763  0.8825452200890131  1.0000
  H   H20       1.0  0.5874441218668964  0.6019850508672291  0.7318909456594196  1.0000
  Zn  Zn1       1.0  0.06432821658340204  0.5617295504102573  0.40734375578796955  1.0000
  Zn  Zn2       1.0  0.2758455233946764  0.5617253922003574  0.40733893610056476  1.0000
  C   C23       1.0  0.17004088437247897  0.5587790509319275  0.6705878462769352  1.0000
  C   C24       1.0  0.17013517809626877  0.5646777131592531  0.1440949836706913  1.0000
  C   C25       1.0  0.17192977726037761  0.8251171987711639  0.40111363044173687  1.0000
  C   C26       1.0  0.16824620090574946  0.29833783310261786  0.4135692795361112  1.0000
  O   O1        1.0  0.25041505746980647  0.5671694739897672  0.19778754118646513  1.0000
  O   O2        1.0  0.25029773909156433  0.5562830415244642  0.6168912178433538  1.0000
  O   O3        1.0  0.25182196186570827  0.7713544801589325  0.39928887924675904  1.0000
  O   O4        1.0  0.24889076259471027  0.3520980445269013  0.41538977170077485  1.0000
  O   O5        1.0  0.09128290520290294  0.7713568980866226  0.39929292018182044  1.0000
  O   O6        1.0  0.08975869455091451  0.5562871916724608  0.6168951787422547  1.0000
  O   O7        1.0  0.0898760126960234  0.567173555455408  0.19778976935880888  1.0000
  O   O8        1.0  0.08835171774141436  0.3521021168238485  0.4153921079494647  1.0000
