data_image0
_chemical_formula_structural       NC5NC4H6C6BrH5C6H6Zn2C4O8
_chemical_formula_sum              "N2 C25 H17 Br1 Zn2 O8"
_cell_length_a       13.854160002989762
_cell_length_b       9.276564384272257
_cell_length_c       10.681121600428286
_cell_angle_alpha    85.5120417802204
_cell_angle_beta     89.99987030852816
_cell_angle_gamma    90.58592978602583

_space_group_name_H-M_alt    "P 1"
_space_group_IT_number       1

loop_
  _space_group_symop_operation_xyz
  'x, y, z'

loop_
  _atom_site_type_symbol
  _atom_site_label
  _atom_site_symmetry_multiplicity
  _atom_site_fract_x
  _atom_site_fract_y
  _atom_site_fract_z
  _atom_site_occupancy
  N   N1        1.0  0.9197179033745975  0.5782292838619745  0.6175060947740479  1.0000
  C   C1        1.0  0.8475579322387808  0.603439272912832  0.5661936697818677  1.0000
  C   C2        1.0  0.7577899145998175  0.6348011830667624  0.5023590485611485  1.0000
  C   C3        1.0  0.6700167258815166  0.6053201763194658  0.5646870467750216  1.0000
  C   C4        1.0  0.5826475023267129  0.6348011973950838  0.5023590284204962  1.0000
  C   C5        1.0  0.49244978986559257  0.6034391256052369  0.5661937494819902  1.0000
  N   N2        1.0  0.4199443323420215  0.5782292203702026  0.6175060947451007  1.0000
  C   C6        1.0  0.5830882536475919  0.6943695655415965  0.37771907025907536  1.0000
  C   C7        1.0  0.6708434312364915  0.7260005222722712  0.31529964452843395  1.0000
  C   C8        1.0  0.6712532036028798  0.7858100369322631  0.18067893382154687  1.0000
  C   C9        1.0  0.7581653426743251  0.6943695642166066  0.37771899183469043  1.0000
  H   H1        1.0  0.6697001355672679  0.559104131611208  0.6611561669348723  1.0000
  H   H2        1.0  0.5153645381770869  0.7161544027779017  0.32935997894740376  1.0000
  H   H3        1.0  0.7365741900806831  0.8539651835059088  0.15996557312299012  1.0000
  H   H4        1.0  0.6068657124347593  0.8539651853824477  0.1599656296612899  1.0000
  H   H5        1.0  0.6706335542537144  0.6952932168614858  0.1185853653528528  1.0000
  H   H6        1.0  0.8261874980293673  0.7161545152525483  0.3293599046548355  1.0000
  C   C10       1.0  0.1669276429479576  0.15474828368576854  0.6178263451511288  1.0000
  C   C11       1.0  0.15455818747056363  0.23824757103164407  0.5033695031045332  1.0000
  C   C12       1.0  0.15117167507086293  0.17325869953968365  0.38998174561544685  1.0000
  C   C13       1.0  0.16013317265108995  0.023851537713187813  0.3888978305606283  1.0000
  C   C14       1.0  0.17080220160339607  0.9386589214993224  0.5016238918031525  1.0000
  C   C15       1.0  0.17274376380812906  0.0016990853874159072  0.6171966712595834  1.0000
  Br  Br1       1.0  0.15620999595096885  0.9354937599844951  0.23331001614891658  1.0000
  H   H7        1.0  0.13862332290746293  0.4173006933920682  0.8214208585633759  1.0000
  H   H8        1.0  0.14979484866369663  0.35490396424326254  0.5012255977386137  1.0000
  H   H9        1.0  0.14249793676223274  0.2394789313022696  0.3027516114946538  1.0000
  H   H10       1.0  0.1752681891486667  0.8224189384013537  0.49892395103687354  1.0000
  H   H11       1.0  0.22599026889443918  0.7037664212971024  0.8122390285428127  1.0000
  C   C16       1.0  0.16983572238750425  0.5782236792327926  0.24976630129655986  1.0000
  C   C17       1.0  0.10019811349092311  0.49802005740618754  0.18840342901538246  1.0000
  C   C18       1.0  0.10019805386210633  0.49802014987413545  0.057521288993742876  1.0000
  C   C19       1.0  0.16983564699352802  0.578223749923789  0.9852567369203459  1.0000
  C   C20       1.0  0.23941577718673424  0.6583609069668828  0.046619078258477664  1.0000
  C   C21       1.0  0.23941576468388787  0.6583608846052993  0.17751137693814623  1.0000
  H   H12       1.0  0.24025781004519972  0.6593315783774083  0.5429637562003831  1.0000
  H   H13       1.0  0.0456128681137633  0.435152668025643  0.2414869934356552  1.0000
  H   H14       1.0  0.045612848421258324  0.4351527359071721  0.012982964159657275  1.0000
  H   H15       1.0  0.2940081512195041  0.7212365806507994  0.9935798430481465  1.0000
  H   H16       1.0  0.29400810224052765  0.7212365300975474  0.22200421057012945  1.0000
  H   H17       1.0  0.24025810784514057  0.6593310759479776  0.6810347308604836  1.0000
  Zn  Zn1       1.0  0.06407242432846583  0.5782254046295622  0.617513337159098  1.0000
  Zn  Zn2       1.0  0.27558973152464517  0.5782212987635833  0.617509145885965  1.0000
  C   C22       1.0  0.1697940818758623  0.572478736745385  0.8462375827145382  1.0000
  C   C23       1.0  0.16987039623481381  0.583969786164418  0.3887850218450275  1.0000
  C   C24       1.0  0.17163942171565488  0.8416073776434927  0.6123254285524784  1.0000
  C   C25       1.0  0.16802497232098917  0.31483941267125953  0.6226972440617575  1.0000
  O   O1        1.0  0.2501517056403284  0.5858903826155619  0.435439388523548  1.0000
  O   O2        1.0  0.2500495069841404  0.570553936130181  0.7995796752743609  1.0000
  O   O3        1.0  0.2515385601680429  0.7878787172726787  0.6106939547279226  1.0000
  O   O4        1.0  0.24866258035074443  0.36856561179054004  0.6243250151676067  1.0000
  O   O5        1.0  0.0909995033219011  0.7878810916055765  0.6106974678722985  1.0000
  O   O6        1.0  0.0895104620315654  0.5705580430611009  0.7995831203589086  1.0000
  O   O7        1.0  0.08961266040694046  0.5858944392931198  0.43544132802286845  1.0000
  O   O8        1.0  0.08812353504257309  0.3685696581535931  0.6243270485641494  1.0000
