data_image0
_chemical_formula_structural       NC8NC6H8C7NH3C6OCH6Zn2C4O8
_chemical_formula_sum              "N3 C32 H17 O9 Zn2"
_cell_length_a       17.457602349358154
_cell_length_b       10.302819778424748
_cell_length_c       9.273891588657152
_cell_angle_alpha    86.07629757388266
_cell_angle_beta     92.54290593679646
_cell_angle_gamma    91.68806980205999

_space_group_name_H-M_alt    "P 1"
_space_group_IT_number       1

loop_
  _space_group_symop_operation_xyz
  'x, y, z'

loop_
  _atom_site_type_symbol
  _atom_site_label
  _atom_site_symmetry_multiplicity
  _atom_site_fract_x
  _atom_site_fract_y
  _atom_site_fract_z
  _atom_site_occupancy
  N   N1        1.0  0.7269503046699477  0.44020253258855896  0.47598926626625365  1.0000
  C   C1        1.0  0.665907347849642  0.39419741009744813  0.4642101967644348  1.0000
  C   C2        1.0  0.5899672950936862  0.33697283494299096  0.44956762193638955  1.0000
  C   C3        1.0  0.5311918971966765  0.3777864132270545  0.53267309274673  1.0000
  C   C4        1.0  0.456687902770068  0.3226848930478108  0.5187122903564192  1.0000
  C   C5        1.0  0.3943070398036285  0.3657801361954482  0.6067241358393163  1.0000
  C   C6        1.0  0.3199441029482933  0.38374832283718585  0.5448496882862228  1.0000
  C   C7        1.0  0.26116834652796433  0.42437898993984446  0.6280749430540737  1.0000
  C   C8        1.0  0.1853745537433179  0.44293319592660335  0.5637422495184672  1.0000
  N   N2        1.0  0.12444926035409822  0.45784440115919245  0.5120189315160348  1.0000
  C   C9        1.0  0.2762616888210898  0.4472890459027649  0.7737388897562636  1.0000
  C   C10       1.0  0.3498386446268707  0.42971316250131175  0.8360434110500023  1.0000
  C   C11       1.0  0.4086012880500707  0.38926655284303674  0.7533260377731825  1.0000
  C   C12       1.0  0.44225267318804523  0.22607987840729635  0.4200560684758967  1.0000
  C   C13       1.0  0.5010150350272906  0.18554844085728517  0.3373944360455603  1.0000
  C   C14       1.0  0.5747324518477208  0.24076717858853142  0.3519654554257863  1.0000
  H   H1        1.0  0.5433164057146286  0.45354830685306124  0.6066056489707754  1.0000
  H   H2        1.0  0.3079352471118496  0.3678779680644366  0.4316446810866612  1.0000
  H   H3        1.0  0.23120686754401157  0.4786839825992883  0.8390223530115752  1.0000
  H   H4        1.0  0.36133501923939787  0.44713738513469176  0.948834253437408  1.0000
  H   H5        1.0  0.4649349931029112  0.37468824338734213  0.8044851432140578  1.0000
  H   H6        1.0  0.3858031133887906  0.1806639210864722  0.4082369241942636  1.0000
  H   H7        1.0  0.48940828447497237  0.11089203658748636  0.2621322386035678  1.0000
  H   H8        1.0  0.6197856330043544  0.2085073458805471  0.28724912956403714  1.0000
  C   C15       1.0  0.925703423947803  0.06777063224110913  0.4940106331944099  1.0000
  C   C16       1.0  0.8805589047429171  0.056893374728502304  0.6161395654542607  1.0000
  C   C17       1.0  0.8580990617543676  0.9343792555070893  0.6768998626965823  1.0000
  C   C18       1.0  0.8805589666325158  0.821592367703  0.6161395757876618  1.0000
  C   C19       1.0  0.9257034364633027  0.8302666603268698  0.49401067717008956  1.0000
  C   C20       1.0  0.9480398401935906  0.9538555140623177  0.43358432974205474  1.0000
  C   C21       1.0  0.8118193855705828  0.9243575843274076  0.8020999728195211  1.0000
  N   N3        1.0  0.7746256699963517  0.9163034694395733  0.9027197899163114  1.0000
  H   H9        1.0  0.862754410321597  0.14346217594262667  0.664305622703173  1.0000
  H   H10       1.0  0.8627545061505927  0.7273125757932024  0.6643055971466565  1.0000
  H   H11       1.0  0.9828536979132394  0.9613942272157083  0.33940289722344485  1.0000
  C   C22       1.0  0.9269599520315092  0.44563599868281967  0.07084922211372446  1.0000
  C   C23       1.0  0.9897728192087191  0.5032606395649084  0.14511634314801114  1.0000
  C   C24       1.0  0.048235010134120904  0.5703868108623866  0.07060566959686687  1.0000
  C   C25       1.0  0.044093388106776654  0.5802229397535759  0.9187896570539064  1.0000
  C   C26       1.0  0.9828919301879285  0.5218837015473582  0.8433263977069418  1.0000
  C   C27       1.0  0.9244468885035865  0.452401292128072  0.9171720768865396  1.0000
  O   O1        1.0  0.10895321077940157  0.626319991811302  0.15131583572822604  1.0000
  C   C28       1.0  0.17211441620424417  0.6974497962982752  0.08996446010543746  1.0000
  H   H12       1.0  0.7445209122781844  0.35779866447027464  0.16533001090954702  1.0000
  H   H13       1.0  0.08827708588107576  0.6317603060151264  0.8578723763587921  1.0000
  H   H14       1.0  0.802784259873916  0.3881691592845214  0.6307018104552666  1.0000
  H   H15       1.0  0.15152559749407124  0.7843925536212852  0.023702698621184792  1.0000
  H   H16       1.0  0.20409546665079492  0.6344351383212763  0.022450579899200736  1.0000
  H   H17       1.0  0.21137687697850382  0.7302248884373475  0.17836679338120986  1.0000
  Zn  Zn1       1.0  0.8416598921568549  0.445290179638532  0.48639496956584716  1.0000
  Zn  Zn2       1.0  0.009739623585388822  0.4527462038334288  0.5016250259145454  1.0000
  C   C29       1.0  0.9249202129290491  0.4459503634722108  0.7571987994728109  1.0000
  C   C30       1.0  0.9264811378186837  0.45208774067155755  0.23082150375437926  1.0000
  C   C31       1.0  0.9257165349412902  0.6860926399092702  0.488268026009769  1.0000
  C   C32       1.0  0.9256847582244327  0.21194390247596526  0.4997523488465341  1.0000
  O   O2        1.0  0.9901058255170113  0.4570768625251824  0.2902893898496228  1.0000
  O   O3        1.0  0.9888641535164532  0.44661920872112043  0.70928975893248  1.0000
  O   O4        1.0  0.9895063293055483  0.6405371077919476  0.4921261787167217  1.0000
  O   O5        1.0  0.9894635926945166  0.2631589693338232  0.5074528568228698  1.0000
  O   O6        1.0  0.8619358656903865  0.6348774115951155  0.480567133452672  1.0000
  O   O7        1.0  0.8612936901259601  0.44096107173979804  0.6977306368344671  1.0000
  O   O8        1.0  0.8625353673219882  0.45141866645457784  0.2787285352485789  1.0000
  O   O9        1.0  0.8618931341755524  0.25750076484072815  0.49589211025948715  1.0000
