data_image0
_chemical_formula_structural       NC9NC4H8C6NO2H5C6NO2H3Zn2C4O8
_chemical_formula_sum              "N4 C29 H16 O12 Zn2"
_cell_length_a       16.32274767691083
_cell_length_b       9.273392599741051
_cell_length_c       9.273395971720356
_cell_angle_alpha    85.0859035794884
_cell_angle_beta     89.35243876569035
_cell_angle_gamma    88.93063911827517

_space_group_name_H-M_alt    "P 1"
_space_group_IT_number       1

loop_
  _space_group_symop_operation_xyz
  'x, y, z'

loop_
  _atom_site_type_symbol
  _atom_site_label
  _atom_site_symmetry_multiplicity
  _atom_site_fract_x
  _atom_site_fract_y
  _atom_site_fract_z
  _atom_site_occupancy
  N   N1        1.0  0.7638941806170535  0.5849173535333693  0.39933000930840157  1.0000
  C   C1        1.0  0.7119408685888375  0.5328597005335107  0.3388588750054704  1.0000
  C   C2        1.0  0.647361969724974  0.4682036903499813  0.2637532426807272  1.0000
  C   C3        1.0  0.6595640837037822  0.37976585666487783  0.16101733174033647  1.0000
  C   C4        1.0  0.5805153581269106  0.33660768356653725  0.11088561462037383  1.0000
  C   C5        1.0  0.5211185711814708  0.3997685880706776  0.18426055925555862  1.0000
  C   C6        1.0  0.4313036489074967  0.3830756878355448  0.16487214311861753  1.0000
  C   C7        1.0  0.3751671941851083  0.4566938868177172  0.25038716123300325  1.0000
  C   C8        1.0  0.29056342832147447  0.44242733515160393  0.23381659271943445  1.0000
  C   C9        1.0  0.23399843207304052  0.5183087018591963  0.3219596465221172  1.0000
  N   N2        1.0  0.188539208645085  0.5793048385378489  0.39281173387873414  1.0000
  C   C10       1.0  0.2610439523503589  0.3544235139865992  0.131593399243926  1.0000
  C   C11       1.0  0.3158577723156834  0.28090282373341435  0.04619203139709849  1.0000
  C   C12       1.0  0.400305563765139  0.294785102253742  0.062316091300216536  1.0000
  C   C13       1.0  0.5581963886553116  0.4918642288473638  0.2912427026405715  1.0000
  H   H1        1.0  0.718724132997911  0.34537657964811164  0.12106567076159824  1.0000
  H   H2        1.0  0.5727508629425148  0.2643275544590411  0.026919477304116587  1.0000
  H   H3        1.0  0.3967751090259565  0.5253957038998547  0.3301897153696818  1.0000
  H   H4        1.0  0.1957385014419379  0.3426708282731119  0.1179429375244163  1.0000
  H   H5        1.0  0.2928492379503961  0.21282366185310697  0.9671130295242304  1.0000
  H   H6        1.0  0.44051871425905453  0.23597327799225565  0.9940009326581286  1.0000
  H   H7        1.0  0.5415312752377119  0.45210081628542215  0.4039863817263156  1.0000
  H   H8        1.0  0.540760320842485  0.6076952489868419  0.2668648271033436  1.0000
  C   C14       1.0  0.9787193737551143  0.15855881600663846  0.395124684414906  1.0000
  C   C15       1.0  0.9684217892703968  0.24340760089372093  0.2634137694305805  1.0000
  C   C16       1.0  0.9508882052678973  0.1798602949028376  0.13659887203384802  1.0000
  C   C17       1.0  0.9430710793800914  0.029534726649719675  0.1379589641092873  1.0000
  C   C18       1.0  0.9546478348699206  0.943511096379515  0.26864359052125075  1.0000
  C   C19       1.0  0.9737219221368685  0.005651966746306198  0.39702937291869045  1.0000
  N   N3        1.0  0.9242668740494163  0.964630646541331  0.006930643142412533  1.0000
  O   O1        1.0  0.9136485878967132  0.04919696514022552  0.8789334260127242  1.0000
  O   O2        1.0  0.9170511100111851  0.8307903791721678  0.007271866451362241  1.0000
  H   H9        1.0  0.9616650445511165  0.23159380058070744  0.7496906264784193  1.0000
  H   H10       1.0  0.972008233503091  0.36024676171986014  0.2590936534624612  1.0000
  H   H11       1.0  0.9426188462509416  0.2489147432633642  0.03750938513892699  1.0000
  H   H12       1.0  0.9506890507281518  0.8269506247816121  0.2697319377920384  1.0000
  H   H13       1.0  0.9650299982511825  0.7052011079771274  0.6366159685969373  1.0000
  C   C20       1.0  0.9766607930997492  0.5865301747511521  0.972143136290727  1.0000
  C   C21       1.0  0.9034361626203156  0.6204163554195316  0.043924869611837045  1.0000
  C   C22       1.0  0.8300626375341066  0.6406674818563156  0.9686633351993547  1.0000
  C   C23       1.0  0.8278330935255402  0.6274472053567335  0.8193743258391972  1.0000
  C   C24       1.0  0.9009993570396009  0.596033018823018  0.7461611437317459  1.0000
  C   C25       1.0  0.9757804788124201  0.577680637133593  0.8200109745179112  1.0000
  N   N4        1.0  0.7517624424831255  0.6472533517180685  0.7424450703333488  1.0000
  O   O3        1.0  0.6803721760056084  0.6791916699849283  0.8143823887740931  1.0000
  O   O4        1.0  0.7492230736998402  0.6354014096073557  0.6094628568235518  1.0000
  H   H14       1.0  0.15690956962766522  0.4225775318224352  0.08544959669566521  1.0000
  H   H15       1.0  0.7747771221401558  0.6653127444024696  0.0279465564072039  1.0000
  H   H16       1.0  0.09864497641439396  0.4714950246143892  0.546450084610007  1.0000
  Zn  Zn1       1.0  0.8864375832575171  0.5832937448079696  0.3974573041881708  1.0000
  Zn  Zn2       1.0  0.06599586972350946  0.5809164880851843  0.39469623901615875  1.0000
  C   C26       1.0  0.9759789638737252  0.5736074774031732  0.6597328874226589  1.0000
  C   C27       1.0  0.9764564389947272  0.59060454791882  0.13242077141607966  1.0000
  C   C28       1.0  0.9746683002607026  0.845593456353536  0.39091665774461526  1.0000
  C   C29       1.0  0.9777670514803745  0.3186168360886516  0.40123707510624973  1.0000
  O   O5        1.0  0.044529326950644155  0.5910634958074787  0.18516358592630833  1.0000
  O   O6        1.0  0.04418666750024669  0.5713431629157601  0.6048940703155732  1.0000
  O   O7        1.0  0.043127369919499836  0.7909752771442953  0.3878230804284821  1.0000
  O   O8        1.0  0.045588563311822705  0.37143139383772683  0.40223446853600464  1.0000
  O   O9        1.0  0.9068448283947714  0.7927788398683173  0.38991907560295064  1.0000
  O   O10       1.0  0.907904115828461  0.5731484593324785  0.6069899924125417  1.0000
  O   O11       1.0  0.9082467774319233  0.5928687600776286  0.1872577722391348  1.0000
  O   O12       1.0  0.9093060137382378  0.37323664666198386  0.4043287630608525  1.0000
