data_image0
_chemical_formula_structural       NC9NC5H8C7F3H5C6SCH8Zn2C4O8
_chemical_formula_sum              "N2 C32 H21 F3 S1 Zn2 O8"
_cell_length_a       17.807436237873137
_cell_length_b       9.27228830945605
_cell_length_c       10.302812801239593
_cell_angle_alpha    85.26210475024874
_cell_angle_beta     89.39214003622364
_cell_angle_gamma    87.81380667828488

_space_group_name_H-M_alt    "P 1"
_space_group_IT_number       1

loop_
  _space_group_symop_operation_xyz
  'x, y, z'

loop_
  _atom_site_type_symbol
  _atom_site_label
  _atom_site_symmetry_multiplicity
  _atom_site_fract_x
  _atom_site_fract_y
  _atom_site_fract_z
  _atom_site_occupancy
  N   N1        1.0  0.699365328393483  0.542678094386043  0.550439375525169  1.0000
  C   C1        1.0  0.6389818518684602  0.5035602860228988  0.5396000750940074  1.0000
  C   C2        1.0  0.5638714437324382  0.4549020402976742  0.5261171619961373  1.0000
  C   C3        1.0  0.546194194373185  0.37551580405472773  0.4215149685398621  1.0000
  C   C4        1.0  0.4732665038344095  0.328148455274321  0.40834189760631023  1.0000
  C   C5        1.0  0.4169695332642234  0.3597476704150443  0.49974052214257597  1.0000
  C   C6        1.0  0.33946553133142593  0.30953612189123314  0.48582241648656416  1.0000
  C   C7        1.0  0.2768151022354496  0.40041838567769666  0.5113323055760387  1.0000
  C   C8        1.0  0.203746284135525  0.3528253339637333  0.4981739566658601  1.0000
  C   C9        1.0  0.1400301593842749  0.4466993775582118  0.5240337796086324  1.0000
  N   N2        1.0  0.0888154172546401  0.5221676140192852  0.5448243810713465  1.0000
  C   C10       1.0  0.1927458461815882  0.21406324089184792  0.45948170492186385  1.0000
  C   C11       1.0  0.2545389857827782  0.1231655785633852  0.4339635000817313  1.0000
  C   C12       1.0  0.3274906597506381  0.1703200488362588  0.446921405318509  1.0000
  C   C13       1.0  0.43533532039939277  0.439683456630176  0.6045593313923963  1.0000
  C   C14       1.0  0.5083169863725783  0.48683915877240685  0.6175777806185277  1.0000
  H   H1        1.0  0.588719541716071  0.3505211072434729  0.34994050957772593  1.0000
  H   H2        1.0  0.4606652806370024  0.2684743258364174  0.32572385988817004  1.0000
  H   H3        1.0  0.2847474014865221  0.508762861417263  0.5396985180809369  1.0000
  H   H4        1.0  0.1364781852170569  0.17622789667432848  0.4490653700209528  1.0000
  H   H5        1.0  0.2459035873234565  0.015732756686990923  0.4043930318594169  1.0000
  H   H6        1.0  0.374512726257964  0.09723617554597036  0.4282174480946118  1.0000
  H   H7        1.0  0.39352997819731955  0.4640789221082646  0.6774306567550699  1.0000
  H   H8        1.0  0.5214394822542238  0.5478701325274227  0.6991482355196119  1.0000
  C   C15       1.0  0.8963052439528774  0.10848160241610062  0.5496008670717938  1.0000
  C   C16       1.0  0.9320098572990425  0.1886109140063712  0.44654146031459296  1.0000
  C   C17       1.0  0.960293272264218  0.12150513773459345  0.3390625241361882  1.0000
  C   C18       1.0  0.952596984658501  0.9727057726180927  0.33087475394995886  1.0000
  C   C19       1.0  0.9196335737750917  0.8907496426864265  0.4355472091374961  1.0000
  C   C20       1.0  0.8918827555628873  0.9563526714014476  0.5456741288477827  1.0000
  C   C21       1.0  0.9850783164541564  0.8994539095149355  0.21636736616420651  1.0000
  F   F1        1.0  0.9844275407901922  0.9940881788987431  0.1051593450402637  1.0000
  F   F2        1.0  0.9436976710681785  0.7812801374158918  0.192215599637374  1.0000
  F   F3        1.0  0.058357586502689726  0.8530373218778978  0.24342585462896563  1.0000
  H   H9        1.0  0.769965775171472  0.19771188144752627  0.7849483406516162  1.0000
  H   H10       1.0  0.936749916192903  0.30462554684190024  0.4478165241149384  1.0000
  H   H11       1.0  0.9876742279795384  0.18654041636999738  0.261626602887419  1.0000
  H   H12       1.0  0.9172323963022938  0.7744372882563421  0.4326624952420397  1.0000
  H   H13       1.0  0.8568854196361365  0.8285084021959649  0.8605995839261351  1.0000
  C   C22       1.0  0.8940940126767988  0.5324171352034308  0.16638902653463816  1.0000
  C   C23       1.0  0.8680000011014636  0.677719392253338  0.15489037428576993  1.0000
  C   C24       1.0  0.8548238193555788  0.7498144808670498  0.03219720208938725  1.0000
  C   C25       1.0  0.8679999341448249  0.6777192442758506  0.9197392062751315  1.0000
  C   C26       1.0  0.8940939639843548  0.5324171280415857  0.9288859309119962  1.0000
  C   C27       1.0  0.9069903716736895  0.4604646668928152  0.05274968652575863  1.0000
  S   S1        1.0  0.821638639556904  0.9355583628141639  0.01899810787611301  1.0000
  C   C28       1.0  0.7230541898154895  0.8903248240218065  0.02416899404140205  1.0000
  H   H14       1.0  0.903899756420239  0.47764272071561376  0.4980371649430915  1.0000
  H   H15       1.0  0.8576344314292225  0.7354339135789354  0.2408897332243132  1.0000
  H   H16       1.0  0.8576342820619661  0.7354337135423562  0.8255394233745106  1.0000
  H   H17       1.0  0.9271042623457152  0.3483777427664432  0.060712928563912534  1.0000
  H   H18       1.0  0.9038983611034898  0.47764204490107653  0.6050216030737885  1.0000
  H   H19       1.0  0.7100637332005949  0.8268034684657347  0.9410122313298178  1.0000
  H   H20       1.0  0.7100640474417262  0.8268049105062037  0.11724691196591944  1.0000
  H   H21       1.0  0.6877546108455147  0.9918020090849835  0.017272442558807114  1.0000
  Zn  Zn1       1.0  0.811752230353171  0.5367553606873168  0.5488265356768106  1.0000
  Zn  Zn2       1.0  0.9764285584787094  0.5280785798106251  0.5464479486603931  1.0000
  C   C29       1.0  0.8941222970910208  0.5266659960907447  0.7847843622185058  1.0000
  C   C30       1.0  0.8940602805000647  0.5381696711954782  0.31049021513467  1.0000
  C   C31       1.0  0.8927148168130159  0.7960871804599413  0.5412428670312455  1.0000
  C   C32       1.0  0.8954677136326116  0.2687467553081182  0.55403178838326  1.0000
  O   O1        1.0  0.9565428008306897  0.5368011834938445  0.35794925820183177  1.0000
  O   O2        1.0  0.9566253051375454  0.5214479187852301  0.7355196579585996  1.0000
  O   O3        1.0  0.9554879045665314  0.739008976847677  0.5388581827148358  1.0000
  O   O4        1.0  0.9576801451549664  0.3192401387194854  0.5546106368655047  1.0000
  O   O5        1.0  0.8305005874809576  0.7455938047409874  0.5406638482765578  1.0000
  O   O6        1.0  0.8316379790014724  0.528034481159235  0.7373252462638517  1.0000
  O   O7        1.0  0.8315554750070949  0.5433876955573629  0.35975328583183064  1.0000
  O   O8        1.0  0.8326928193821519  0.3258266404574471  0.5564147618804536  1.0000
