data_image0
_chemical_formula_structural       NC12NC2H8C10ClC2H9C6N2CH6Zn2C4O8
_chemical_formula_sum              "N4 C37 H23 Cl1 Zn2 O8"
_cell_length_a       17.80743265337812
_cell_length_b       10.299769246903262
_cell_length_c       10.299970628315746
_cell_angle_alpha    85.56280496945749
_cell_angle_beta     91.53112130114359
_cell_angle_gamma    89.45359272153547

_space_group_name_H-M_alt    "P 1"
_space_group_IT_number       1

loop_
  _space_group_symop_operation_xyz
  'x, y, z'

loop_
  _atom_site_type_symbol
  _atom_site_label
  _atom_site_symmetry_multiplicity
  _atom_site_fract_x
  _atom_site_fract_y
  _atom_site_fract_z
  _atom_site_occupancy
  N   N1        1.0  0.7077144576401484  0.4066138730135358  0.6014978795054022  1.0000
  C   C1        1.0  0.6569016917645083  0.4361697623697269  0.5328049044620752  1.0000
  C   C2        1.0  0.5936855956355542  0.472935143470183  0.44735949087970067  1.0000
  C   C3        1.0  0.6054251793855413  0.5269504690540014  0.32075033225844396  1.0000
  C   C4        1.0  0.5441161039691427  0.5622123678450524  0.2377006711360634  1.0000
  C   C5        1.0  0.4709132056284329  0.5437223778477867  0.28060032060054607  1.0000
  C   C6        1.0  0.4581968158741864  0.48958826809270684  0.40767758755378836  1.0000
  C   C7        1.0  0.5203632083653734  0.45432962255159015  0.4907107381362929  1.0000
  C   C8        1.0  0.3804254393875712  0.46998427101650586  0.45343729761244167  1.0000
  C   C9        1.0  0.36164188125008545  0.49717506322317756  0.5804760738440604  1.0000
  C   C10       1.0  0.28840904369641107  0.47872664752470295  0.6234162864919983  1.0000
  C   C11       1.0  0.23301673139961024  0.4328332029918925  0.5401556275134785  1.0000
  C   C12       1.0  0.1576471594379084  0.413832022175465  0.5844966528297837  1.0000
  N   N2        1.0  0.0970553609315029  0.3985563507161629  0.620143786815929  1.0000
  C   C13       1.0  0.2511087547052862  0.4054735211936707  0.4136597791809109  1.0000
  C   C14       1.0  0.324288744928271  0.4239367123881066  0.3704636950864119  1.0000
  H   H1        1.0  0.6618942339572065  0.541772721904366  0.2863162329659308  1.0000
  H   H2        1.0  0.5533237735274411  0.6043051315325509  0.13992982416751176  1.0000
  H   H3        1.0  0.4242805442255029  0.573354994030669  0.2150151183200515  1.0000
  H   H4        1.0  0.5118536756031715  0.4108515636177841  0.5883570610205244  1.0000
  H   H5        1.0  0.4033236858314336  0.5343563670685341  0.646047728885195  1.0000
  H   H6        1.0  0.274967687107555  0.5005756821042102  0.7214209143299195  1.0000
  H   H7        1.0  0.2087102905628746  0.36955949869787896  0.3485011333280639  1.0000
  H   H8        1.0  0.33720142558330957  0.40055216227741514  0.2727622904881699  1.0000
  C   C15       1.0  0.9023178707680843  0.021221383979253  0.6108123632436822  1.0000
  C   C16       1.0  0.9092600852026825  0.030623206543069607  0.47494228079926953  1.0000
  C   C17       1.0  0.9128495670261936  0.9182462733022729  0.40610989797032093  1.0000
  C   C18       1.0  0.909402693361217  0.7953320981071627  0.47497105288444946  1.0000
  C   C19       1.0  0.9024591621998127  0.7839386967708265  0.6108407974966974  1.0000
  C   C20       1.0  0.8989558323179627  0.8974395052525838  0.6780005966472805  1.0000
  C   C21       1.0  0.920195150496344  0.9292455891494298  0.26237085774925756  1.0000
  C   C22       1.0  0.9689058463370085  0.845294495208131  0.20221841006548957  1.0000
  C   C23       1.0  0.9757528395058784  0.8558445506188961  0.06691455830646008  1.0000
  C   C24       1.0  0.9341076204064791  0.9500780900801827  0.9901196876936259  1.0000
  Cl  Cl1       1.0  0.9427809294851107  0.9630656822818007  0.8203829858148253  1.0000
  C   C25       1.0  0.8855400936444886  0.03394635383171687  0.04878813981152041  1.0000
  C   C26       1.0  0.8785598574442443  0.02379165170418719  0.18406532042874854  1.0000
  H   H9        1.0  0.8996438249524338  0.3450931308524281  0.6625808910572428  1.0000
  H   H10       1.0  0.9129269805504077  0.12554858134669433  0.42253149387837197  1.0000
  H   H11       1.0  0.9111124695238332  0.7084584682383308  0.422166868327604  1.0000
  H   H12       1.0  0.8935999778768986  0.8894183551197403  0.7828180283899975  1.0000
  H   H13       1.0  0.8998488554501418  0.45214251766368374  0.6626214368139122  1.0000
  H   H14       1.0  0.002404093634699844  0.7726644840580333  0.25992509873629577  1.0000
  H   H15       1.0  0.01359510568417166  0.790909302222704  0.021941088721915355  1.0000
  H   H16       1.0  0.8530169402425702  0.10684608150064268  0.9896757896833175  1.0000
  H   H17       1.0  0.8399046507484987  0.08869954789608993  0.2272747042160865  1.0000
  C   C27       1.0  0.9024000361185218  0.4025766337690704  0.22947373655916192  1.0000
  C   C28       1.0  0.8244300808209947  0.42554873687555944  0.22304945885111138  1.0000
  C   C29       1.0  0.7852536254745391  0.43709135955941014  0.10315312264945109  1.0000
  C   C30       1.0  0.8243840248580714  0.4255624263665198  0.9878305392286423  1.0000
  C   C31       1.0  0.9023769733584888  0.40258342613468656  0.9921794389978622  1.0000
  C   C32       1.0  0.9409002774119003  0.39123341711822585  0.11347867847083548  1.0000
  N   N3        1.0  0.7057493975240652  0.4605156197425413  0.10136664123560557  1.0000
  N   N4        1.0  0.6665117028082154  0.47207603607749055  0.9960288456873009  1.0000
  C   C33       1.0  0.5860550504180106  0.49578099319697655  0.9986031291676641  1.0000
  H   H18       1.0  0.7936659217036255  0.4346126849281149  0.3112987932559157  1.0000
  H   H19       1.0  0.7941211586633993  0.43447875785078854  0.8949309359202279  1.0000
  H   H20       1.0  0.000990292651984915  0.37352924152555955  0.11761961229464223  1.0000
  H   H21       1.0  0.5588462592744735  0.41432884699480055  0.055886338857828566  1.0000
  H   H22       1.0  0.5624077120850429  0.5027483207492431  0.8975342717379822  1.0000
  H   H23       1.0  0.5747911089914304  0.5885681290663094  0.043143352873799445  1.0000
  Zn  Zn1       1.0  0.8200698345737217  0.40428517896538224  0.606886172069284  1.0000
  Zn  Zn2       1.0  0.9846999792216516  0.40087445154606954  0.6147660864617741  1.0000
  C   C34       1.0  0.9023786954545078  0.3974086071495606  0.8480114759049961  1.0000
  C   C35       1.0  0.9023929163965619  0.4077526247150034  0.37364099619673974  1.0000
  C   C36       1.0  0.9024287236897024  0.6397689434071967  0.6056603156572551  1.0000
  C   C37       1.0  0.9023428316935269  0.1653907293407486  0.6159922229330846  1.0000
  O   O1        1.0  0.9648668078201548  0.4081897156158891  0.42501523174921324  1.0000
  O   O2        1.0  0.9648552743662977  0.39438187334392133  0.8026175391807406  1.0000
  O   O3        1.0  0.9648948305479115  0.5900909273973578  0.6069172223440096  1.0000
  O   O4        1.0  0.96482719546609  0.21248067201552412  0.6207154485268402  1.0000
  O   O5        1.0  0.8399425621490952  0.5926789596612556  0.6009368073083587  1.0000
  O   O6        1.0  0.8399030062551339  0.3969714658897652  0.7966370549606272  1.0000
  O   O7        1.0  0.8399145397977914  0.41077926289135647  0.4190331861948331  1.0000
  O   O8        1.0  0.8398749274359895  0.21507021000324775  0.6147335003357054  1.0000
