data_image0
_chemical_formula_structural       NC12NC2H8C7F3H5C7N4H6Zn2C4O8
_chemical_formula_sum              "N6 C32 H19 F3 Zn2 O8"
_cell_length_a       17.80743265337812
_cell_length_b       10.29932413504667
_cell_length_c       9.274190830515497
_cell_angle_alpha    85.17044002979004
_cell_angle_beta     91.08905223573421
_cell_angle_gamma    89.41593348368521

_space_group_name_H-M_alt    "P 1"
_space_group_IT_number       1

loop_
  _space_group_symop_operation_xyz
  'x, y, z'

loop_
  _atom_site_type_symbol
  _atom_site_label
  _atom_site_symmetry_multiplicity
  _atom_site_fract_x
  _atom_site_fract_y
  _atom_site_fract_z
  _atom_site_occupancy
  N   N1        1.0  0.7133578443105324  0.41627742450407657  0.44633169052615057  1.0000
  C   C1        1.0  0.6628372757983287  0.4463062391457371  0.370014131714345  1.0000
  C   C2        1.0  0.5999846358087054  0.4836598798366858  0.2750846958586648  1.0000
  C   C3        1.0  0.6122629477369809  0.5385468416279682  0.13442250610802997  1.0000
  C   C4        1.0  0.55130731705518  0.5743804853716932  0.04215470385610498  1.0000
  C   C5        1.0  0.4779219498141098  0.5555951460250208  0.08981600187694716  1.0000
  C   C6        1.0  0.46466480935411103  0.5005861809456928  0.23099826392225717  1.0000
  C   C7        1.0  0.526477828802056  0.4647559039514486  0.3232477227548795  1.0000
  C   C8        1.0  0.38669875398288756  0.480667149204345  0.28183708404457986  1.0000
  C   C9        1.0  0.3673437599081385  0.50698692615386  0.4229827144943368  1.0000
  C   C10       1.0  0.2939282585163613  0.4882428844391029  0.4706890824645078  1.0000
  C   C11       1.0  0.23892111382392886  0.44291906516234114  0.3781807359117264  1.0000
  C   C12       1.0  0.163362900475715  0.42361261645775405  0.4274434036618717  1.0000
  N   N2        1.0  0.10261944728292191  0.4080915306154904  0.4670471995862954  1.0000
  C   C13       1.0  0.2575822390780375  0.41642666361228026  0.23763830057834048  1.0000
  C   C14       1.0  0.3309460176957939  0.43518723821065136  0.18964765349659918  1.0000
  H   H1        1.0  0.6688784711533327  0.5536061605858802  0.09616639095246682  1.0000
  H   H2        1.0  0.5609308619058624  0.6171463656862444  0.9335317737062869  1.0000
  H   H3        1.0  0.4315677298937665  0.5856793538146134  0.016951270002335986  1.0000
  H   H4        1.0  0.5175534963506404  0.4206055224257758  0.4317321987524865  1.0000
  H   H5        1.0  0.4087218331710936  0.5437196691668995  0.4958374334058752  1.0000
  H   H6        1.0  0.2800457340751883  0.5094200087987499  0.5795765714085717  1.0000
  H   H7        1.0  0.2154852012117836  0.3809584220708789  0.16524254181725273  1.0000
  H   H8        1.0  0.3442991094771071  0.41247244896278884  0.08109693813269891  1.0000
  C   C15       1.0  0.9080663367798545  0.03080403952002552  0.4566512763613162  1.0000
  C   C16       1.0  0.9832151747142565  0.03159547076413372  0.4130289240515035  1.0000
  C   C17       1.0  0.02067905796190939  0.9150697233379657  0.3884805170700629  1.0000
  C   C18       1.0  0.9830206013773579  0.7963418170740707  0.413145104256329  1.0000
  C   C19       1.0  0.9079181099172715  0.7935546752181505  0.4567404280004263  1.0000
  C   C20       1.0  0.8707874332959091  0.9113753754835043  0.4776869354578634  1.0000
  C   C21       1.0  0.10217759864168775  0.9165755508705642  0.3467162348449857  1.0000
  F   F1        1.0  0.1187315413216401  0.031231353290887442  0.2653561723445041  1.0000
  F   F2        1.0  0.14689172980265108  0.9062546223259496  0.47071867874288853  1.0000
  F   F3        1.0  0.11852499340355725  0.813591483227525  0.26533620326266627  1.0000
  H   H9        1.0  0.7666600774428507  0.23635190398469152  0.5414704536430197  1.0000
  H   H10       1.0  0.01276660472647895  0.12301757263455171  0.3983395419092133  1.0000
  H   H11       1.0  0.012438379751945838  0.7059755795025421  0.39853935019193987  1.0000
  H   H12       1.0  0.8128661001813051  0.9099609539011216  0.5113055745429589  1.0000
  H   H13       1.0  0.8794358279513667  0.4648362777475132  0.4759518751864176  1.0000
  C   C22       1.0  0.9096881538048268  0.4147942159295992  0.03300231488462879  1.0000
  C   C23       1.0  0.958182668028926  0.3286211469344227  0.11607129204607158  1.0000
  C   C24       1.0  0.0006943163265655785  0.23587295953059462  0.051421011067016575  1.0000
  C   C25       1.0  0.9958653979810421  0.22647086595400706  0.901653291873274  1.0000
  C   C26       1.0  0.9486222167791285  0.31396092486494953  0.81717664505023  1.0000
  C   C27       1.0  0.9062962536892581  0.40956458669167195  0.8803893799575939  1.0000
  C   C28       1.0  0.04102964876446701  0.12618964549108957  0.8353148411122873  1.0000
  N   N3        1.0  0.09052980740535842  0.04456430723906957  0.9090330333945036  1.0000
  N   N4        1.0  0.11822008844272514  0.9712971753233882  0.8114230907604196  1.0000
  N   N5        1.0  0.08726626592707709  0.005708137198433771  0.6827714251941686  1.0000
  N   N6        1.0  0.038939797415238564  0.10210325602551726  0.6948938598480141  1.0000
  H   H14       1.0  0.854815869038964  0.6084122540432577  0.29424672199270896  1.0000
  H   H15       1.0  0.9619406197422797  0.3307568779774994  0.23257765725364246  1.0000
  H   H16       1.0  0.03683771135966762  0.17026707993578816  0.11945141565689399  1.0000
  H   H17       1.0  0.9459512827247277  0.31072858357231087  0.7009797418538408  1.0000
  H   H18       1.0  0.8025957311668872  0.5316146407567246  0.58517355520741  1.0000
  H   H19       1.0  0.006534826913731974  0.14695378922254743  0.6096156494416216  1.0000
  Zn  Zn1       1.0  0.8256903051333155  0.4139116336352084  0.45231805639404116  1.0000
  Zn  Zn2       1.0  0.9902869389181058  0.4104466550773425  0.46107260115637394  1.0000
  C   C29       1.0  0.9069367449060531  0.40537926414918135  0.72021439282803  1.0000
  C   C30       1.0  0.909042295650176  0.41898062452057955  0.19317650212604853  1.0000
  C   C31       1.0  0.9079652645514329  0.6494141685085004  0.45097385382411725  1.0000
  C   C32       1.0  0.9080137198348213  0.17494416051959738  0.46241711488306025  1.0000
  O   O1        1.0  0.9712891055734194  0.41906501427118426  0.2502547260239143  1.0000
  O   O2        1.0  0.969614973371507  0.40266405865872884  0.6697802503881216  1.0000
  O   O3        1.0  0.9704446679487204  0.5997253386386889  0.4523665655919178  1.0000
  O   O4        1.0  0.9704593552617412  0.2220037454317314  0.4676682996524861  1.0000
  O   O5        1.0  0.8455178326209571  0.6023545444647074  0.445722354902843  1.0000
  O   O6        1.0  0.844688138044996  0.40529482531029815  0.6631359629508635  1.0000
  O   O7        1.0  0.8463622772491662  0.4216957463700479  0.24360870389786116  1.0000
  O   O8        1.0  0.84553252650323  0.22463446757397554  0.4610223856989799  1.0000
