data_image0
_chemical_formula_structural       NC6NC3H6C6NCH9C7NH4Zn2C4O8
_chemical_formula_sum              "N4 C27 H19 Zn2 O8"
_cell_length_a       14.934028789175542
_cell_length_b       9.273386996610926
_cell_length_c       9.275157849593905
_cell_angle_alpha    86.01375275156522
_cell_angle_beta     89.71635168279133
_cell_angle_gamma    89.3610420342759

_space_group_name_H-M_alt    "P 1"
_space_group_IT_number       1

loop_
  _space_group_symop_operation_xyz
  'x, y, z'

loop_
  _atom_site_type_symbol
  _atom_site_label
  _atom_site_symmetry_multiplicity
  _atom_site_fract_x
  _atom_site_fract_y
  _atom_site_fract_z
  _atom_site_occupancy
  N   N1        1.0  0.837474712257845  0.5626840094243974  0.40728006776652736  1.0000
  C   C1        1.0  0.7599977441015374  0.561578906917676  0.40660321516728626  1.0000
  C   C2        1.0  0.6636125315997676  0.5601990801743437  0.4057582911114854  1.0000
  C   C3        1.0  0.6149683099353833  0.6676598778599867  0.471454564336651  1.0000
  C   C4        1.0  0.5214656748163793  0.6665519828538251  0.47077712258467064  1.0000
  C   C5        1.0  0.47569426180577307  0.558038132311319  0.40443713471106246  1.0000
  C   C6        1.0  0.37902938837966066  0.5603664190207079  0.4058618203313027  1.0000
  N   N2        1.0  0.3015341051798485  0.5622142112296007  0.40699281624881123  1.0000
  C   C7        1.0  0.5243451118943796  0.4490906326490274  0.3378314131516469  1.0000
  C   C8        1.0  0.47699680127016597  0.331113532558702  0.2657072869610555  1.0000
  C   C9        1.0  0.6184695402049457  0.4513290272271835  0.33919991013382833  1.0000
  H   H1        1.0  0.6493179187332443  0.7523290240788494  0.5232177229063861  1.0000
  H   H2        1.0  0.484740688763977  0.7505690524920363  0.5221414901204613  1.0000
  H   H3        1.0  0.4341817626239447  0.37934819614712034  0.17704333911791492  1.0000
  H   H4        1.0  0.4344316238445046  0.26901631477573096  0.34590297512378343  1.0000
  H   H5        1.0  0.5250826061463738  0.2546979951544477  0.21898414878133754  1.0000
  H   H6        1.0  0.6566784154008042  0.36842963781336713  0.28851912703929283  1.0000
  C   C10       1.0  0.07226024991470509  0.1387991450409094  0.40784288720555284  1.0000
  C   C11       1.0  0.08835694850815184  0.2210028682934537  0.2775313571295117  1.0000
  C   C12       1.0  0.09602258945332304  0.15523656106964023  0.14721699147181067  1.0000
  C   C13       1.0  0.08771139668873101  0.004912129025254726  0.14388236741063287  1.0000
  C   C14       1.0  0.07319400117804029  0.9217395308784179  0.27374028140160833  1.0000
  C   C15       1.0  0.06675718917215918  0.986088045850985  0.4064424831774396  1.0000
  N   N3        1.0  0.09462779242796054  0.9340842314082486  0.010878094553137265  1.0000
  C   C16       1.0  0.10994839560538588  0.010610111012558038  0.8702383303232839  1.0000
  H   H7        1.0  0.08987522956736504  0.4032058631570443  0.6444284403967945  1.0000
  H   H8        1.0  0.09292921148626809  0.33762709592594264  0.275760492620831  1.0000
  H   H9        1.0  0.107595931724201  0.22288370889961936  0.04932083067121673  1.0000
  H   H10       1.0  0.06897399187291176  0.8053208271716029  0.27146947683024436  1.0000
  H   H11       1.0  0.09871926990615337  0.8580759543043515  0.7574226121706223  1.0000
  H   H12       1.0  0.08828857652774058  0.8217523224607666  0.013870382064886668  1.0000
  H   H13       1.0  0.05450941340609877  0.08899852662779528  0.845233780184476  1.0000
  H   H14       1.0  0.17475982008889845  0.06809848412509867  0.8704307563056369  1.0000
  H   H15       1.0  0.11245058307665777  0.9323488926406691  0.7849217908892939  1.0000
  C   C17       1.0  0.0707233821505524  0.5583645101823957  0.9839509053444115  1.0000
  C   C18       1.0  0.14759758954646718  0.6053171293879989  0.053521426450942045  1.0000
  C   C19       1.0  0.2198047552510921  0.6636185907359557  0.9735018435196969  1.0000
  C   C20       1.0  0.21597788043701047  0.6758946172062577  0.8228249320012213  1.0000
  C   C21       1.0  0.14095223991581474  0.6277719075150427  0.7519136603015495  1.0000
  C   C22       1.0  0.06829410054360108  0.5665226608134661  0.8303344667838051  1.0000
  C   C23       1.0  0.29754354863500154  0.712579424716099  0.04637609275537735  1.0000
  N   N4        1.0  0.36002563761874046  0.751930732273368  0.10495470789883754  1.0000
  H   H16       1.0  0.8531687079630932  0.5099427404962324  0.09200378135783495  1.0000
  H   H17       1.0  0.2714405747377162  0.7214718866118486  0.7598921935858054  1.0000
  H   H18       1.0  0.1407048853905477  0.6353568556093137  0.634836806799421  1.0000
  H   H19       1.0  0.9227934809500998  0.5278627349843985  0.5530823330164902  1.0000
  Zn  Zn1       1.0  0.9713922435747878  0.5625446500494238  0.40720549523985805  1.0000
  Zn  Zn2       1.0  0.1676166468646549  0.5623418666261586  0.4070791904151638  1.0000
  C   C24       1.0  0.06878859536723447  0.5592333608685208  0.6703593260258696  1.0000
  C   C25       1.0  0.07022242560805658  0.56565497524387  0.1439254966863328  1.0000
  C   C26       1.0  0.06780927366390244  0.8258770732911969  0.4009644616907506  1.0000
  C   C27       1.0  0.07120169139069404  0.2990095303428817  0.41332044076108776  1.0000
  O   O1        1.0  0.14452047931056478  0.568018472782293  0.1975665093066714  1.0000
  O   O2        1.0  0.14342033169744806  0.556714863064258  0.6166220379210476  1.0000
  O   O3        1.0  0.14262850889669032  0.7720330484965285  0.399083777123868  1.0000
  O   O4        1.0  0.14531223539633403  0.35270029669790426  0.41510466207662433  1.0000
  O   O5        1.0  0.9936965880813619  0.7721862200483753  0.3991800236139167  1.0000
  O   O6        1.0  0.9944883998410673  0.5568697671651142  0.6167182047069792  1.0000
  O   O7        1.0  0.9955885528132926  0.5681733099091189  0.19766094354384856  1.0000
  O   O8        1.0  0.9963803086523031  0.35285512454754553  0.4151992043765471  1.0000
