data_image0
_chemical_formula_structural       NC9NC4H8C12H9C7F3H5Zn2C4O8
_chemical_formula_sum              "N2 C36 H22 F3 Zn2 O8"
_cell_length_a       16.32274767691083
_cell_length_b       10.299137764757564
_cell_length_c       9.272721663655245
_cell_angle_alpha    85.85599579155343
_cell_angle_beta     89.98655041730063
_cell_angle_gamma    89.54283159448198

_space_group_name_H-M_alt    "P 1"
_space_group_IT_number       1

loop_
  _space_group_symop_operation_xyz
  'x, y, z'

loop_
  _atom_site_type_symbol
  _atom_site_label
  _atom_site_symmetry_multiplicity
  _atom_site_fract_x
  _atom_site_fract_y
  _atom_site_fract_z
  _atom_site_occupancy
  N   N1        1.0  0.7635652178192535  0.4042296594879499  0.3972260200034001  1.0000
  C   C1        1.0  0.710920052349462  0.3564896474860981  0.33696697856018254  1.0000
  C   C2        1.0  0.6454818660464903  0.2971961808414325  0.26212476723418776  1.0000
  C   C3        1.0  0.6565085985660479  0.2160932759682694  0.15974917516340348  1.0000
  C   C4        1.0  0.5768863049192473  0.1765146476744055  0.10979329067113963  1.0000
  C   C5        1.0  0.5183289728851859  0.23443709872462268  0.18291089799643356  1.0000
  C   C6        1.0  0.42829221435445614  0.21912873483148165  0.16359048894297623  1.0000
  C   C7        1.0  0.3731341479814059  0.2866410518994358  0.24880557397522415  1.0000
  C   C8        1.0  0.2883407883687776  0.2735577869815058  0.23229312795019608  1.0000
  C   C9        1.0  0.2327842526774431  0.34314555264381985  0.32012702923222713  1.0000
  N   N2        1.0  0.1881356629850414  0.39908266321857067  0.39073060935878834  1.0000
  C   C10       1.0  0.25765175223427134  0.19285302026359588  0.1304284742663886  1.0000
  C   C11       1.0  0.3114884821311992  0.12543013005873616  0.045326641748863805  1.0000
  C   C12       1.0  0.39612075947932823  0.13816099143558946  0.06139414493009876  1.0000
  C   C13       1.0  0.5566307675266463  0.3188943943720344  0.2895178233752074  1.0000
  H   H1        1.0  0.7152115819952819  0.18455616837527855  0.11993762830833975  1.0000
  H   H2        1.0  0.5681611706697393  0.11022934359248548  0.02612164177209264  1.0000
  H   H3        1.0  0.3956551024267236  0.34964472831278814  0.3283282272141843  1.0000
  H   H4        1.0  0.1921901169157783  0.18207512159294748  0.11682589312231183  1.0000
  H   H5        1.0  0.2875751849792891  0.06299746985582955  0.966525003622555  1.0000
  H   H6        1.0  0.43555230351061613  0.08422702142465968  0.9933185947278659  1.0000
  H   H7        1.0  0.5404250724733147  0.2847025438504185  0.4022224798145375  1.0000
  H   H8        1.0  0.5397462569093356  0.4228448963639144  0.2648690510764604  1.0000
  C   C14       1.0  0.9757763203690432  0.02025792285315853  0.39413664577776525  1.0000
  C   C15       1.0  0.9749626230359132  0.029365136083705057  0.2423168689928008  1.0000
  C   C16       1.0  0.9746302290481401  0.9168493778367842  0.16518147002513883  1.0000
  C   C17       1.0  0.9751224814383291  0.794106034560029  0.24191790274861313  1.0000
  C   C18       1.0  0.9759324654836204  0.7830443311887698  0.39383235987322024  1.0000
  C   C19       1.0  0.9762557717959127  0.8966331770539536  0.4690064612851989  1.0000
  C   C20       1.0  0.9737684474470747  0.9275288349692898  0.0045711606218761195  1.0000
  C   C21       1.0  0.02278043418444731  0.8442339125977132  0.9262500171899823  1.0000
  C   C22       1.0  0.021867427595126276  0.8545380309528076  0.7750703003447503  1.0000
  C   C23       1.0  0.9721392005360935  0.9477533030209169  0.7004994958546074  1.0000
  C   C24       1.0  0.9232202701590295  0.030923494599927055  0.7769570821072946  1.0000
  C   C25       1.0  0.9239272911162928  0.021116775075554088  0.928140924642626  1.0000
  H   H9        1.0  0.9757191278938041  0.1241908234606337  0.18368013027966246  1.0000
  H   H10       1.0  0.9737407731137656  0.7070607214635432  0.18304021044949237  1.0000
  H   H11       1.0  0.976881152450631  0.8888930721931525  0.586108573202502  1.0000
  H   H12       1.0  0.9769403426783061  0.5548806953415626  0.6805708986173464  1.0000
  H   H13       1.0  0.06255459763466355  0.7723672157938368  0.9818468000815915  1.0000
  H   H14       1.0  0.05992248435199654  0.7903752564534653  0.7156937143850755  1.0000
  H   H15       1.0  0.9715122621509215  0.9555369777330269  0.5834748251827437  1.0000
  H   H16       1.0  0.8845368830192863  0.10288730536925983  0.7190467672778172  1.0000
  H   H17       1.0  0.8847572369646063  0.08548911966211083  0.985239091916604  1.0000
  C   C26       1.0  0.973686365020096  0.3995708561221656  0.9705752710217399  1.0000
  C   C27       1.0  0.008531822091600862  0.29291492612456294  0.05280656404673833  1.0000
  C   C28       1.0  0.050559307613645244  0.1938974077437403  0.9862975798640403  1.0000
  C   C29       1.0  0.05523092295557807  0.19982156304194176  0.8350739238848646  1.0000
  C   C30       1.0  0.01989938315494122  0.30377928344123917  0.7518828356400231  1.0000
  C   C31       1.0  0.9780224470117962  0.40373141919766664  0.8173936947762117  1.0000
  C   C32       1.0  0.08559683083692815  0.07864961509335733  0.07615435111292523  1.0000
  F   F1        1.0  0.1131942148623859  0.1160627728171415  0.20795015437517028  1.0000
  F   F2        1.0  0.15088899424600655  0.02413647488898296  0.006056809065958296  1.0000
  F   F3        1.0  0.025431729554974195  0.9858919575250241  0.10014751298132119  1.0000
  H   H18       1.0  0.9218197093968427  0.7094781318435586  0.04746574601176823  1.0000
  H   H19       1.0  0.004440230569477731  0.28835032272558214  0.16971662016460098  1.0000
  H   H20       1.0  0.08549573116762188  0.12315926614357252  0.7807332475338415  1.0000
  H   H21       1.0  0.023410017687415227  0.30415211484762605  0.635174345408509  1.0000
  H   H22       1.0  0.8310505754538352  0.6245741196465764  0.698264629944139  1.0000
  Zn  Zn1       1.0  0.8860871251977108  0.40274090261119083  0.39535991294277495  1.0000
  Zn  Zn2       1.0  0.06561382007959082  0.40056082034002444  0.3926085326641606  1.0000
  C   C33       1.0  0.9771999310762304  0.397770914103861  0.657328990126292  1.0000
  C   C34       1.0  0.974502975687099  0.40553242448161947  0.13063956629965157  1.0000
  C   C35       1.0  0.9758693194339966  0.6388332862482244  0.38814426859423623  1.0000
  C   C36       1.0  0.9758335261435939  0.16446849303646371  0.39982436626424045  1.0000
  O   O1        1.0  0.04290648162327648  0.40670018524589824  0.18331447378396293  1.0000
  O   O2        1.0  0.04505303026460283  0.39494753950247397  0.6025654340069402  1.0000
  O   O3        1.0  0.043977633794844984  0.5896084721776276  0.38519688038012867  1.0000
  O   O4        1.0  0.04398181628107456  0.21203926207443977  0.4006829202371358  1.0000
  O   O5        1.0  0.9077190677325385  0.5912624616221063  0.3872855263011261  1.0000
  O   O6        1.0  0.908794464124347  0.39660308899307745  0.6046540024267313  1.0000
  O   O7        1.0  0.9066479066518873  0.40835568095935054  0.18540130869884974  1.0000
  O   O8        1.0  0.9077232418579566  0.2136947490295289  0.4027698632569878  1.0000
