data_image0
_chemical_formula_structural       NC9NC3NH7C7F3H5C6SCNH5Zn2C4O8
_chemical_formula_sum              "N4 C30 H17 F3 S1 Zn2 O8"
_cell_length_a       16.053384444249904
_cell_length_b       9.272718291674593
_cell_length_c       10.302218930750287
_cell_angle_alpha    85.98261342229135
_cell_angle_beta     89.81672032337951
_cell_angle_gamma    88.75080299671951

_space_group_name_H-M_alt    "P 1"
_space_group_IT_number       1

loop_
  _space_group_symop_operation_xyz
  'x, y, z'

loop_
  _atom_site_type_symbol
  _atom_site_label
  _atom_site_symmetry_multiplicity
  _atom_site_fract_x
  _atom_site_fract_y
  _atom_site_fract_z
  _atom_site_occupancy
  N   N1        1.0  0.7774811925512315  0.5590309792497485  0.5755157753658571  1.0000
  C   C1        1.0  0.7268136578823798  0.5359367876822811  0.5005314837182255  1.0000
  C   C2        1.0  0.6638477472132662  0.5072420005969696  0.4073826721525007  1.0000
  C   C3        1.0  0.677502340198845  0.49385511667923065  0.2765943487734699  1.0000
  C   C4        1.0  0.6009906695248055  0.4657440873356331  0.22416377579291313  1.0000
  C   C5        1.0  0.5439202432638656  0.4635452059914733  0.32579251644769397  1.0000
  C   C6        1.0  0.4533796285252115  0.437098671987044  0.3153685588891242  1.0000
  C   C7        1.0  0.3972948439245137  0.4845053127226305  0.4095723296730331  1.0000
  C   C8        1.0  0.3118523425114648  0.45942325756147384  0.3995898407384925  1.0000
  C   C9        1.0  0.2549795476231603  0.508766760371141  0.4961780475774901  1.0000
  N   N2        1.0  0.2092705110085587  0.5484319786465475  0.5738198450130076  1.0000
  C   C10       1.0  0.281769130991536  0.38681022600371007  0.2954164412182369  1.0000
  C   C11       1.0  0.3368448268952141  0.3395363531568063  0.2014251846299293  1.0000
  C   C12       1.0  0.4220820903544563  0.3644344756619602  0.21100994789390848  1.0000
  N   N3        1.0  0.5830166846189537  0.4890312829713675  0.4374902383635108  1.0000
  H   H1        1.0  0.7361877466226973  0.5034513910239611  0.22505784916464486  1.0000
  H   H2        1.0  0.5887802859634088  0.45046939331700475  0.12291228548314546  1.0000
  H   H3        1.0  0.4193751688775211  0.5427351232361306  0.48974506280113395  1.0000
  H   H4        1.0  0.2158310914132401  0.3668637000994841  0.2868504771680382  1.0000
  H   H5        1.0  0.3134663148477885  0.28312939111932445  0.12103106915525452  1.0000
  H   H6        1.0  0.4633587444194658  0.32509429217180585  0.13751456610129975  1.0000
  H   H7        1.0  0.5568557274141551  0.491643969452338  0.5302417170164825  1.0000
  C   C13       1.0  0.9951936883915914  0.13030456257555925  0.5717926335160269  1.0000
  C   C14       1.0  0.9443887183714554  0.2128757621144921  0.4822668195656394  1.0000
  C   C15       1.0  0.8876905939567914  0.146745995157888  0.4030084116284176  1.0000
  C   C16       1.0  0.8840049832486432  0.9955468198481725  0.41061339962058585  1.0000
  C   C17       1.0  0.9348716606624228  0.9120153997600481  0.49732951592820557  1.0000
  C   C18       1.0  0.9915660043533562  0.9771471371908043  0.577554130644982  1.0000
  C   C19       1.0  0.8353684663020164  0.23695282159566378  0.3052287462163572  1.0000
  F   F1        1.0  0.8139694787564897  0.3688912873934611  0.3524982966943653  1.0000
  F   F2        1.0  0.7626347785433711  0.1673412269917618  0.2783888959350125  1.0000
  F   F3        1.0  0.8802904510820706  0.2606468512090512  0.1913239979431744  1.0000
  H   H8        1.0  0.09417760264933017  0.20653213996292943  0.8516005541326928  1.0000
  H   H9        1.0  0.9477131264340877  0.3297637626868579  0.4762109554298093  1.0000
  H   H10       1.0  0.842347418183861  0.9414847557509192  0.3483431213054523  1.0000
  H   H11       1.0  0.9314715269711773  0.7953295484408907  0.49908970434408245  1.0000
  H   H12       1.0  0.17045624584703067  0.8568222605792575  0.7331170091287202  1.0000
  C   C20       1.0  0.9933018817395656  0.5537952965683277  0.1933989582188007  1.0000
  C   C21       1.0  0.07206054481776603  0.4846846050001748  0.19641235051777925  1.0000
  C   C22       1.0  0.1112156691362636  0.4498427656169266  0.0809316277174412  1.0000
  C   C23       1.0  0.07226446104435036  0.48450103747988976  0.9612560907891495  1.0000
  C   C24       1.0  0.9934578106917151  0.5536563966138681  0.9559477598281773  1.0000
  C   C25       1.0  0.9543953414470415  0.5878714209987828  0.07258335296462602  1.0000
  S   S1        1.0  0.21189230831100625  0.36217960070316324  0.08622000163665833  1.0000
  C   C26       1.0  0.169065890589851  0.18804818661594513  0.09746199578796653  1.0000
  N   N4        1.0  0.14096432663548253  0.07389762672280754  0.10483221026872445  1.0000
  H   H13       1.0  0.96333954274979  0.5801642689611093  0.5195826618098509  1.0000
  H   H14       1.0  0.10326825553172547  0.4573871920232713  0.28818153969896154  1.0000
  H   H15       1.0  0.1036119418585273  0.45707773257866813  0.8727566792777361  1.0000
  H   H16       1.0  0.8936516968566591  0.6411525518702827  0.06941244479830622  1.0000
  H   H17       1.0  0.8449547821048033  0.6841450149406592  0.7387155182567025  1.0000
  Zn  Zn1       1.0  0.9020862784308047  0.5559684897722375  0.575033831318712  1.0000
  Zn  Zn2       1.0  0.08466545416154903  0.551482718968499  0.5743123207560719  1.0000
  C   C27       1.0  0.9934510957364999  0.5479384685239972  0.811770638062289  1.0000
  C   C28       1.0  0.9933026228472697  0.5595145105379813  0.33757564594620626  1.0000
  C   C29       1.0  0.992246378963536  0.8170769172225574  0.5712911788366116  1.0000
  C   C30       1.0  0.9945072847539556  0.29037433098248  0.5780551628534207  1.0000
  O   O1        1.0  0.06259074418750732  0.5597253137820277  0.38568880712189907  1.0000
  O   O2        1.0  0.0627363487646444  0.5443219813339357  0.7631094859102037  1.0000
  O   O3        1.0  0.06176259097754033  0.7616547050805496  0.5689206350447831  1.0000
  O   O4        1.0  0.06356443960861191  0.3423926018985959  0.5798775609531623  1.0000
  O   O5        1.0  0.9231872306784217  0.7650586083744852  0.5694685913610185  1.0000
  O   O6        1.0  0.9241609810264836  0.5477276170171568  0.7636573847843002  1.0000
  O   O7        1.0  0.9240153764007729  0.5631308995013433  0.3862351446401886  1.0000
  O   O8        1.0  0.9249890718825567  0.34579817728707396  0.580423995745007  1.0000
