data_image0
_chemical_formula_structural       NC10NC3NH7C12NCOCH13C13OH12Zn2C4O8
_chemical_formula_sum              "N4 C44 H32 O10 Zn2"
_cell_length_a       19.210446455230148
_cell_length_b       10.299155265289647
_cell_length_c       10.299153481560891
_cell_angle_alpha    85.56585442832863
_cell_angle_beta     90.00736926035154
_cell_angle_gamma    89.9251083167036

_space_group_name_H-M_alt    "P 1"
_space_group_IT_number       1

loop_
  _space_group_symop_operation_xyz
  'x, y, z'

loop_
  _atom_site_type_symbol
  _atom_site_label
  _atom_site_symmetry_multiplicity
  _atom_site_fract_x
  _atom_site_fract_y
  _atom_site_fract_z
  _atom_site_occupancy
  N   N1        1.0  0.6549508453163083  0.4197511609929867  0.5669579236440137  1.0000
  C   C1        1.0  0.594721702897781  0.4219588902110421  0.5671885232272091  1.0000
  C   C2        1.0  0.5199165279867637  0.42469607008457394  0.5674742068193613  1.0000
  C   C3        1.0  0.48427487132470187  0.5409388925918406  0.5825571180850099  1.0000
  C   C4        1.0  0.4116093386640459  0.5410904197074535  0.5825044827300003  1.0000
  C   C5        1.0  0.3747495844871338  0.4254051099884355  0.5675605138298385  1.0000
  C   C6        1.0  0.2974278209786068  0.424048499765844  0.5674102589281831  1.0000
  C   C7        1.0  0.2596324264613179  0.5276022952735908  0.5040223997869999  1.0000
  C   C8        1.0  0.186854457435571  0.5261999422001495  0.5039136742176225  1.0000
  C   C9        1.0  0.1508703883501088  0.4215013001727934  0.5671417466163564  1.0000
  C   C10       1.0  0.07594122080074002  0.4201990921646164  0.5670052415200915  1.0000
  N   N2        1.0  0.0157036519160604  0.41915207272725624  0.5668955263097537  1.0000
  C   C11       1.0  0.1879420845694481  0.31807319556832364  0.6305045658801127  1.0000
  C   C12       1.0  0.2607219908058842  0.3192012825742605  0.6306636058306209  1.0000
  C   C13       1.0  0.4130006275634896  0.3109827547359225  0.5527653151138139  1.0000
  N   N3        1.0  0.4837698962695507  0.3134279333597685  0.5529302696978913  1.0000
  H   H1        1.0  0.5123520734895246  0.6303821110172465  0.5945833236956617  1.0000
  H   H2        1.0  0.3843168041430555  0.6311160390943307  0.5959252728309221  1.0000
  H   H3        1.0  0.2863268705451615  0.6088421019158727  0.45301131330405453  1.0000
  H   H4        1.0  0.158675689416536  0.6066124733899214  0.4542331930711747  1.0000
  H   H5        1.0  0.160607782524349  0.23669717498377163  0.6800858018987692  1.0000
  H   H6        1.0  0.2882561112100895  0.23890846108590919  0.6817817897532934  1.0000
  H   H7        1.0  0.3867592103202573  0.220094147067629  0.5392984927172628  1.0000
  C   C14       1.0  0.8354083394546713  0.03805405688271679  0.5670454186526692  1.0000
  C   C15       1.0  0.8234964174828598  0.04773446840717521  0.4321216965928598  1.0000
  C   C16       1.0  0.8173893871954326  0.9355050353254215  0.3635948144853616  1.0000
  C   C17       1.0  0.823329929737666  0.8124748852843646  0.4318139392147071  1.0000
  C   C18       1.0  0.8352528343923673  0.8008392455719684  0.5668192503010656  1.0000
  C   C19       1.0  0.8412217342743183  0.9141459423661135  0.6336038403575437  1.0000
  C   C20       1.0  0.8047888713951561  0.9467194097170788  0.22086180834993097  1.0000
  C   C21       1.0  0.8400782143978739  0.04074790332126854  0.1394377483831697  1.0000
  C   C22       1.0  0.8282260265135464  0.05117048165200999  0.00511647760267464  1.0000
  C   C23       1.0  0.7812803127343277  0.9668898063619296  0.9493737900688939  1.0000
  C   C24       1.0  0.7451406819244965  0.8746789903511756  0.03072983734681989  1.0000
  C   C25       1.0  0.7570182168644496  0.8640003395881339  0.1650137681128756  1.0000
  N   N4        1.0  0.7671875136773353  0.9771139647384715  0.8118145643706906  1.0000
  C   C26       1.0  0.8179989202132434  0.013937368873502057  0.7135876145282518  1.0000
  O   O1        1.0  0.8818622914064641  0.016373783203469158  0.7414351076615047  1.0000
  C   C27       1.0  0.795770390696721  0.040380493517706575  0.5750509589812416  1.0000
  H   H8        1.0  0.8400117800062359  0.3618067058779773  0.6189371553913817  1.0000
  H   H9        1.0  0.8179809313235303  0.14277356193159463  0.380312784227415  1.0000
  H   H10       1.0  0.8195771748698899  0.7256666335260654  0.3791859072740062  1.0000
  H   H11       1.0  0.8504119919088944  0.9059643695352785  0.7376728809020316  1.0000
  H   H12       1.0  0.8581734918936602  0.5715935367366098  0.8215038219376372  1.0000
  H   H13       1.0  0.877254837875053  0.10574626713878099  0.17952381467376452  1.0000
  H   H14       1.0  0.8549211117657652  0.1265643511350117  0.9455311635492312  1.0000
  H   H15       1.0  0.7078971198063142  0.8103845342487321  0.9897767428783784  1.0000
  H   H16       1.0  0.7280865155844577  0.7922267760917963  0.22543242010841325  1.0000
  H   H17       1.0  0.7181544684738245  0.9483177156827706  0.780749464913939  1.0000
  H   H18       1.0  0.7455218792327182  0.09390830032017239  0.5706059904792133  1.0000
  H   H19       1.0  0.7893219752107787  0.9467683331258255  0.5298278064802493  1.0000
  H   H20       1.0  0.8353889426668615  0.10038976363047336  0.5196485733229612  1.0000
  C   C28       1.0  0.8352708220286652  0.4192992903778783  0.18555984592357233  1.0000
  C   C29       1.0  0.7633078760174968  0.3950367929193115  0.18625100444375506  1.0000
  C   C30       1.0  0.7269473759298188  0.38289776555381705  0.06943380864747484  1.0000
  C   C31       1.0  0.7634720431362501  0.39535384239200067  0.9509429143518608  1.0000
  C   C32       1.0  0.8353903431773126  0.41959397814674265  0.9483048228309511  1.0000
  C   C33       1.0  0.8708697985121476  0.4314215560427326  0.06614687497827543  1.0000
  C   C34       1.0  0.6508647920616205  0.3572594145861765  0.07113760252310297  1.0000
  C   C35       1.0  0.6068266264945744  0.4225740624999346  0.9784582459347826  1.0000
  C   C36       1.0  0.5352284148028421  0.39849080688806643  0.9801395583718897  1.0000
  C   C37       1.0  0.5064634479588241  0.30781972148770276  0.07363144053233328  1.0000
  C   C38       1.0  0.5500344131938294  0.2436022091358616  0.16722908312833518  1.0000
  C   C39       1.0  0.621635933159953  0.26765580970471015  0.16572592857076396  1.0000
  C   C40       1.0  0.4293283421632075  0.2846594332524366  0.07756809111471252  1.0000
  O   O2        1.0  0.39804521226383804  0.37230581882004216  0.15705470496805704  1.0000
  H   H21       1.0  0.9710157525757444  0.46592579973689485  0.39148338821068074  1.0000
  H   H22       1.0  0.735245490472403  0.38731912107053157  0.2777337414956891  1.0000
  H   H23       1.0  0.7358561435930374  0.38434662595715346  0.8607718498359578  1.0000
  H   H24       1.0  0.9263421579488865  0.45012234458812034  0.0648278557555435  1.0000
  H   H25       1.0  0.8630434242161988  0.4290035244834651  0.6198080442123324  1.0000
  H   H26       1.0  0.6276201194929263  0.4938009311097243  0.9058758519441177  1.0000
  H   H27       1.0  0.5021909054718737  0.45082978406408425  0.9086489352617604  1.0000
  H   H28       1.0  0.5285985990795633  0.17458296419864694  0.24125081438958484  1.0000
  H   H29       1.0  0.6542551321115926  0.21511701230413882  0.23773989696331754  1.0000
  H   H30       1.0  0.4183011632527461  0.18288291663230807  0.11641907077988312  1.0000
  H   H31       1.0  0.40729250775739145  0.2980622789515226  0.977437078057914  1.0000
  H   H32       1.0  0.3474470967947534  0.3530348304500337  0.15636581383036496  1.0000
  Zn  Zn1       1.0  0.759056313653201  0.41957481564406773  0.5669474172859547  1.0000
  Zn  Zn2       1.0  0.9115981714634941  0.4193178388427122  0.5669166716827015  1.0000
  C   C41       1.0  0.8353672398888572  0.4143642108667887  0.8041312368133676  1.0000
  C   C42       1.0  0.8352889106660204  0.42453007960576095  0.329732978801337  1.0000
  C   C43       1.0  0.8352778150621571  0.6566545867130205  0.5616867940303005  1.0000
  C   C44       1.0  0.8353782837698577  0.18223814345415512  0.5721774912968134  1.0000
  O   O3        1.0  0.8931838225936998  0.4261823927305058  0.3781071331166663  1.0000
  O   O4        1.0  0.8932480686020643  0.41251587835530246  0.7557333737375209  1.0000
  O   O5        1.0  0.8931750767658976  0.6081684228675117  0.5599577706124403  1.0000
  O   O6        1.0  0.8932567623605124  0.23052985755928423  0.5738826388739009  1.0000
  O   O7        1.0  0.7773976707011315  0.6083627970166001  0.5599814500984162  1.0000
  O   O8        1.0  0.7774706622051099  0.41271181289887027  0.7557569835147475  1.0000
  O   O9        1.0  0.7774064160076294  0.4263782814113748  0.3781291814919523  1.0000
  O   O10       1.0  0.7774793557887453  0.23072573698827045  0.5739047846206933  1.0000
