data_image0
_chemical_formula_structural       NC10NC4H8C7ONH7C7OIH5Zn2C4O8
_chemical_formula_sum              "N3 C32 H20 O10 I1 Zn2"
_cell_length_a       19.240039092071726
_cell_length_b       10.297852080636378
_cell_length_c       10.297413674417342
_cell_angle_alpha    85.5525392948287
_cell_angle_beta     90.01513813472472
_cell_angle_gamma    89.97750702378238

_space_group_name_H-M_alt    "P 1"
_space_group_IT_number       1

loop_
  _space_group_symop_operation_xyz
  'x, y, z'

loop_
  _atom_site_type_symbol
  _atom_site_label
  _atom_site_symmetry_multiplicity
  _atom_site_fract_x
  _atom_site_fract_y
  _atom_site_fract_z
  _atom_site_occupancy
  N   N1        1.0  0.6539763010527615  0.4217370797224398  0.5671850462758262  1.0000
  C   C1        1.0  0.5938279298010499  0.42174044395649657  0.5671853540765756  1.0000
  C   C2        1.0  0.5190098896745055  0.42174449739649633  0.5671858964428005  1.0000
  C   C3        1.0  0.4825528910674517  0.4233529617408536  0.6846230990285505  1.0000
  C   C4        1.0  0.4098822204701813  0.42330688710405906  0.6847539774829825  1.0000
  C   C5        1.0  0.3726775975915749  0.42174923364526196  0.5671872655450684  1.0000
  C   C6        1.0  0.2954725570211422  0.4217486917110805  0.5671881579145265  1.0000
  C   C7        1.0  0.258314739955877  0.34628425708381294  0.6635495150252276  1.0000
  C   C8        1.0  0.1856440226862375  0.3463240303161295  0.6634171775921299  1.0000
  C   C9        1.0  0.14914031859031437  0.4217437245681155  0.5671873999739393  1.0000
  C   C10       1.0  0.0743222798130777  0.4217399765146644  0.5671862399985743  1.0000
  N   N2        1.0  0.014173961665397597  0.42173694706656845  0.5671853587715315  1.0000
  C   C11       1.0  0.18558402309016517  0.4971664004545393  0.47095847527361534  1.0000
  C   C12       1.0  0.258254745856945  0.49721108588235374  0.4708268887377359  1.0000
  C   C13       1.0  0.4098488114856614  0.4201899921439132  0.44961981457488753  1.0000
  C   C14       1.0  0.4825194786141531  0.42013932023006073  0.44974932038250365  1.0000
  H   H1        1.0  0.5102807164837115  0.42497525578370143  0.7760776552713397  1.0000
  H   H2        1.0  0.3828016283880823  0.4262521657033565  0.776639551308572  1.0000
  H   H3        1.0  0.28543164435273777  0.2858794162846814  0.7379929429290688  1.0000
  H   H4        1.0  0.1579524881338232  0.2872806938723349  0.7381690081832437  1.0000
  H   H5        1.0  0.15784573292917037  0.5562073635981726  0.3962059760763039  1.0000
  H   H6        1.0  0.285324425558335  0.5576173536792406  0.396383396937086  1.0000
  H   H7        1.0  0.3827428190407413  0.41724576087189535  0.35773483728691124  1.0000
  H   H8        1.0  0.5102214787180904  0.41851465405225463  0.3582942735900705  1.0000
  C   C15       1.0  0.8341525499646769  0.04029984832084121  0.567192947923186  1.0000
  C   C16       1.0  0.8246211751481082  0.04985635559621193  0.43149498439357803  1.0000
  C   C17       1.0  0.8191743316708017  0.937609165731717  0.3627958152874262  1.0000
  C   C18       1.0  0.8244454594694893  0.814604152759563  0.43145017250339346  1.0000
  C   C19       1.0  0.8340043419297085  0.8031641458833972  0.567188628879644  1.0000
  C   C20       1.0  0.8386308692422236  0.9165314308797374  0.6342038752551151  1.0000
  C   C21       1.0  0.809279676511626  0.9503034067488446  0.2194541563343755  1.0000
  O   O1        1.0  0.8278391779959627  0.05341732959195977  0.15476968880302744  1.0000
  N   N3        1.0  0.7782185312774913  0.8485034421256789  0.15238934447468314  1.0000
  H   H9        1.0  0.8524185485854722  0.22951151257737745  0.8235932577634022  1.0000
  H   H10       1.0  0.820806142990923  0.14499066212226053  0.37913454862101914  1.0000
  H   H11       1.0  0.8224720396682791  0.7274115972480166  0.37935252287314986  1.0000
  H   H12       1.0  0.8459750845183345  0.9084125628241303  0.7387879818246216  1.0000
  H   H13       1.0  0.8531841186224229  0.5742866678943807  0.8234705743199106  1.0000
  H   H14       1.0  0.7747023769842808  0.8575891239328326  0.05089877247328789  1.0000
  H   H15       1.0  0.7544899963143091  0.7683603618776765  0.20230126622264089  1.0000
  C   C22       1.0  0.834024139042111  0.42178440587734833  0.18573838233320775  1.0000
  C   C23       1.0  0.7690612236666686  0.48434949022313  0.1796668987483574  1.0000
  C   C24       1.0  0.7360675883663446  0.5161252131119551  0.05946798188379643  1.0000
  C   C25       1.0  0.7691864678694418  0.4842287294814827  0.9444790661604157  1.0000
  C   C26       1.0  0.834132792709461  0.421679576274508  0.9486432879797874  1.0000
  C   C27       1.0  0.8661537883310342  0.39084058267604066  0.06973349411551766  1.0000
  C   C28       1.0  0.6673714730934773  0.5822855738667492  0.05558638156504303  1.0000
  O   O2        1.0  0.6386204486872878  0.6099747257195449  0.15985017032978102  1.0000
  I   I1        1.0  0.6131259161387851  0.6345298921065101  0.8801354151716608  1.0000
  H   H16       1.0  0.9566793979816233  0.3036554193487482  0.40441592791495556  1.0000
  H   H17       1.0  0.7440968542556547  0.5083924745911146  0.2689787340812458  1.0000
  H   H18       1.0  0.7447209142832564  0.5077909817772186  0.8511722689356352  1.0000
  H   H19       1.0  0.9162300251138132  0.34261273407075477  0.07360670458427565  1.0000
  H   H20       1.0  0.8592755796028039  0.39746519119633833  0.6226993391600218  1.0000
  Zn  Zn1       1.0  0.7579215697660798  0.42173355487192415  0.5671926322583138  1.0000
  Zn  Zn2       1.0  0.9102286932744141  0.4217298136898704  0.5671883938830542  1.0000
  C   C29       1.0  0.8341116970735705  0.4165247960579146  0.804437915668073  1.0000
  C   C30       1.0  0.8340402288557823  0.42694021135823657  0.3299432379121976  1.0000
  C   C31       1.0  0.8340280627866845  0.6589672653394687  0.5620131780249672  1.0000
  C   C32       1.0  0.8341238114838886  0.1844961814867312  0.5723680448192823  1.0000
  O   O3        1.0  0.8918453894611362  0.4286634602623945  0.37833809636254473  1.0000
  O   O4        1.0  0.8919041192011882  0.4147977278367471  0.7560394664665587  1.0000
  O   O5        1.0  0.8918358044807613  0.6105730877186669  0.5602797756386306  1.0000
  O   O6        1.0  0.8919136521937842  0.23288810968701726  0.5740976897958759  1.0000
  O   O7        1.0  0.7762365588717623  0.6105752588774689  0.560283336340106  1.0000
  O   O8        1.0  0.776304873276021  0.4148014595881928  0.7560429578986692  1.0000
  O   O9        1.0  0.7762461433685905  0.4286671469643511  0.37834002605229644  1.0000
  O   O10       1.0  0.7763144061140698  0.23289178708512326  0.5740997168748387  1.0000
