data_image0
_chemical_formula_structural       NC5N2C2NH4C10H6C6NH7Zn2C4O8
_chemical_formula_sum              "N5 C27 H17 Zn2 O8"
_cell_length_a       13.87973921873968
_cell_length_b       9.275150299802176
_cell_length_c       9.274774538082514
_cell_angle_alpha    84.74231674010296
_cell_angle_beta     90.34966886769374
_cell_angle_gamma    89.48389152441209

_space_group_name_H-M_alt    "P 1"
_space_group_IT_number       1

loop_
  _space_group_symop_operation_xyz
  'x, y, z'

loop_
  _atom_site_type_symbol
  _atom_site_label
  _atom_site_symmetry_multiplicity
  _atom_site_fract_x
  _atom_site_fract_y
  _atom_site_fract_z
  _atom_site_occupancy
  N   N1        1.0  0.8911158086941707  0.5930068680829161  0.39900505254042223  1.0000
  C   C1        1.0  0.8176240829023372  0.6180500231752146  0.34215612943023144  1.0000
  C   C2        1.0  0.7263499927236767  0.649156075355876  0.2715436250816643  1.0000
  C   C3        1.0  0.6403985977137665  0.6178046439627363  0.3450081488929966  1.0000
  C   C4        1.0  0.5534705921265839  0.6491560103440779  0.27154366540183794  1.0000
  C   C5        1.0  0.46314696161353364  0.6180498792952288  0.3421560268957972  1.0000
  N   N2        1.0  0.39042037765037113  0.5930068435420429  0.3990050416730977  1.0000
  N   N3        1.0  0.554180477502078  0.7090390461466227  0.132280116986234  1.0000
  C   C6        1.0  0.6385107555185231  0.7402809783828617  0.06286437829988722  1.0000
  C   C7        1.0  0.6375091352426587  0.8021712616334596  0.9085782393219584  1.0000
  N   N4        1.0  0.7237833764901548  0.709038999363642  0.1322801280157322  1.0000
  H   H1        1.0  0.6411402531565661  0.5698928005943802  0.4561436909393657  1.0000
  H   H2        1.0  0.7020080854947272  0.8702756267078441  0.8857686210288994  1.0000
  H   H3        1.0  0.6377551028625279  0.712808859413666  0.8367778033450679  1.0000
  H   H4        1.0  0.5720032744799649  0.8702735685294651  0.8857678657730815  1.0000
  C   C8        1.0  0.1433247757314613  0.16928025641964053  0.4014213514081322  1.0000
  C   C9        1.0  0.19354016728765266  0.2522838664403546  0.2922261692852041  1.0000
  C   C10       1.0  0.2354700220570216  0.1871342115824055  0.17748183042680465  1.0000
  C   C11       1.0  0.2276086635965488  0.03802793497358792  0.17045471436293025  1.0000
  C   C12       1.0  0.17949399242581987  0.9535861367909131  0.2790012216001272  1.0000
  C   C13       1.0  0.1382207097921917  0.01672219345094983  0.3966013064818237  1.0000
  C   C14       1.0  0.2856867998707584  0.27390171504005134  0.0657900115985286  1.0000
  C   C15       1.0  0.32773095422997356  0.34657154371279175  0.9722806795447814  1.0000
  C   C16       1.0  0.376962706857602  0.4316728192735524  0.8627853298530098  1.0000
  C   C17       1.0  0.4189987541278426  0.5043370095942821  0.7692939228809426  1.0000
  H   H5        1.0  0.09858632264582856  0.42960677736226416  0.630617853869246  1.0000
  H   H6        1.0  0.1981784790821406  0.3687128000619926  0.29445589554719964  1.0000
  H   H7        1.0  0.2595382088942939  0.9866565018290432  0.08166670458610478  1.0000
  H   H8        1.0  0.1765217916825363  0.8376403783962535  0.2727698630890011  1.0000
  H   H9        1.0  0.0770334525266414  0.8832630157872776  0.7395287288523825  1.0000
  H   H10       1.0  0.45590991052640817  0.5681423354092079  0.6872007456613372  1.0000
  C   C18       1.0  0.13902147785141006  0.596691752958525  0.9751740210357385  1.0000
  C   C19       1.0  0.2067768376581649  0.6818419313398365  0.04142621428842941  1.0000
  C   C20       1.0  0.2789261132145546  0.7551060766927362  0.9602445861746571  1.0000
  C   C21       1.0  0.28390594630035804  0.7435523229760599  0.8113328859474973  1.0000
  C   C22       1.0  0.21644054564230175  0.6615807802824145  0.7433600507886369  1.0000
  C   C23       1.0  0.14252402918736748  0.5893106855706236  0.8228486291392154  1.0000
  N   N5        1.0  0.3477887293828536  0.8400555116084334  0.029503166333103126  1.0000
  H   H11       1.0  0.9967081376872758  0.31462380006988405  0.10269867528270656  1.0000
  H   H12       1.0  0.20500136364208948  0.6886853663550847  0.15740741980883574  1.0000
  H   H13       1.0  0.3396155236019627  0.799301450979244  0.7474850258630701  1.0000
  H   H14       1.0  0.2207609305806928  0.6575670934769848  0.6272098300786786  1.0000
  H   H15       1.0  0.0436855992212033  0.4037207050596372  0.5578224424826692  1.0000
  H   H16       1.0  0.3449364764379348  0.8491040906142768  0.14082162306248275  1.0000
  H   H17       1.0  0.4021145326420996  0.8946699439213007  0.9699504448075631  1.0000
  Zn  Zn1       1.0  0.03520438051859  0.5930029217515476  0.39901340885749015  1.0000
  Zn  Zn2       1.0  0.24633191153260459  0.5929988670306694  0.3990085842191895  1.0000
  C   C24       1.0  0.14189444932708195  0.5849575914022027  0.6626526740486802  1.0000
  C   C25       1.0  0.13964413785017982  0.6010460167188663  0.13536945028090597  1.0000
  C   C26       1.0  0.13915678721240887  0.8565877305387205  0.3917609260997497  1.0000
  C   C27       1.0  0.14238173868099446  0.32941414331254504  0.4062612850406868  1.0000
  O   O1        1.0  0.2199749438673901  0.6024995136481057  0.1891307046184012  1.0000
  O   O2        1.0  0.22180455903036922  0.5834999321137234  0.608887348637001  1.0000
  O   O3        1.0  0.21959278837121876  0.8028446916515095  0.3901403370553045  1.0000
  O   O4        1.0  0.2221866419736946  0.3831547653760614  0.40787760792494093  1.0000
  O   O5        1.0  0.059349578029994854  0.8028470234091756  0.390144385145784  1.0000
  O   O6        1.0  0.061561337925498665  0.5835039981442137  0.6088913099106759  1.0000
  O   O7        1.0  0.05973171595935156  0.6025035445058766  0.1891329309032903  1.0000
  O   O8        1.0  0.06194341457099717  0.3831587849711111  0.4078799424790329  1.0000
