data_image0
_chemical_formula_structural       NC9NC5H8C8H6C8NH10Zn2C4O8
_chemical_formula_sum              "N3 C34 H24 Zn2 O8"
_cell_length_a       17.807436237873137
_cell_length_b       9.275140704573507
_cell_length_c       9.275652972338538
_cell_angle_alpha    86.0727604772434
_cell_angle_beta     89.8368236096327
_cell_angle_gamma    88.98377242316299

_space_group_name_H-M_alt    "P 1"
_space_group_IT_number       1

loop_
  _space_group_symop_operation_xyz
  'x, y, z'

loop_
  _atom_site_type_symbol
  _atom_site_label
  _atom_site_symmetry_multiplicity
  _atom_site_fract_x
  _atom_site_fract_y
  _atom_site_fract_z
  _atom_site_occupancy
  N   N1        1.0  0.7093453883744598  0.5301471761758767  0.4022304155839642  1.0000
  C   C1        1.0  0.6484982267616871  0.4910073606972248  0.38990572060326545  1.0000
  C   C2        1.0  0.5728110453647393  0.4423217404221671  0.37457513838786727  1.0000
  C   C3        1.0  0.5538272469777265  0.36230118398081257  0.2578580744725072  1.0000
  C   C4        1.0  0.48033787311913606  0.3149068452700881  0.24288108045537468  1.0000
  C   C5        1.0  0.4247811732857539  0.34711376697739627  0.344584167794607  1.0000
  C   C6        1.0  0.3466819647706991  0.296873935902189  0.3287588836573915  1.0000
  C   C7        1.0  0.2851102605220873  0.3878096628359416  0.35775580740158275  1.0000
  C   C8        1.0  0.21147742562150795  0.3401900457411733  0.342793476827971  1.0000
  C   C9        1.0  0.1488733689802415  0.434115815866109  0.3722011612163615  1.0000
  N   N2        1.0  0.09855265750991597  0.5096256446805134  0.3958441182288029  1.0000
  C   C10       1.0  0.1988310920637622  0.2013481586274959  0.298805428017623  1.0000
  C   C11       1.0  0.2595453063730162  0.11039699558635396  0.26979915774434327  1.0000
  C   C12       1.0  0.3330554491780649  0.15757722117693795  0.28453569673199497  1.0000
  C   C13       1.0  0.4444603082799691  0.42768464183123256  0.46154580328126  1.0000
  C   C14       1.0  0.5180007240991723  0.47486652972952964  0.47634956543166335  1.0000
  H   H1        1.0  0.5957702374893041  0.3368309436886343  0.1782123125380263  1.0000
  H   H2        1.0  0.4667368722916096  0.25472742497241363  0.15071688628425028  1.0000
  H   H3        1.0  0.2943195016926446  0.49620327510229845  0.3900537446737029  1.0000
  H   H4        1.0  0.1421152469239792  0.16349201135971847  0.2869598443733177  1.0000
  H   H5        1.0  0.24963732544243977  0.0029051504775219313  0.23617108221289215  1.0000
  H   H6        1.0  0.379218058282742  0.08446327583390079  0.2632270178819207  1.0000
  H   H7        1.0  0.4032366935081409  0.45256575637822105  0.5426268430238836  1.0000
  H   H8        1.0  0.5321327815660424  0.5363933958979177  0.5673608692316305  1.0000
  C   C15       1.0  0.9016672272455241  0.09655925879260119  0.39806671583094183  1.0000
  C   C16       1.0  0.9118671438746901  0.17858446826830288  0.26641685663680215  1.0000
  C   C17       1.0  0.9286369759662594  0.11154131648438571  0.1398252297130671  1.0000
  C   C18       1.0  0.935610439112333  0.9612620308786272  0.14245096171691118  1.0000
  C   C19       1.0  0.9244392748292042  0.8776914026415132  0.27175447013645604  1.0000
  C   C20       1.0  0.9062379629589071  0.9432022084269843  0.40002022281180305  1.0000
  C   C21       1.0  0.9533888224618635  0.8923878752034615  0.01181388905060232  1.0000
  C   C22       1.0  0.9682744199888031  0.8347076886843299  0.9024426222724156  1.0000
  H   H9        1.0  0.9153621976129691  0.17470982403883675  0.7520072469091261  1.0000
  H   H10       1.0  0.9086202378434355  0.29555102922637233  0.26205524939555036  1.0000
  H   H11       1.0  0.9369009237461184  0.1771804651533504  0.040045393789873936  1.0000
  H   H12       1.0  0.928224384119489  0.7608834057167876  0.2715143070162963  1.0000
  H   H13       1.0  0.9125769176023191  0.6459367353468592  0.6385384246893568  1.0000
  H   H14       1.0  0.9813407777817591  0.7840749073561543  0.80643761948722  1.0000
  C   C23       1.0  0.9022655385045995  0.5171592687600071  0.9757936649576076  1.0000
  C   C24       1.0  0.8540623351477532  0.6140244639164487  0.04295765194441903  1.0000
  C   C25       1.0  0.8118343939501746  0.7189889814363073  0.9611965758529033  1.0000
  C   C26       1.0  0.8167877101020881  0.7257529940021346  0.8103467507139244  1.0000
  C   C27       1.0  0.8633376965421794  0.6290391549366989  0.7418019666317472  1.0000
  C   C28       1.0  0.9056396930446275  0.5226022046985248  0.8222932277592578  1.0000
  C   C29       1.0  0.7596564167360769  0.8203912802188635  0.034832745619938196  1.0000
  C   C30       1.0  0.6820573058672721  0.7540281465731609  0.05672462160840763  1.0000
  N   N3        1.0  0.6316468639776296  0.8541339974959413  0.12599307263660586  1.0000
  H   H15       1.0  0.9561564269634216  0.30007710376039154  0.2710034930918612  1.0000
  H   H16       1.0  0.8504683611182193  0.6102020970147943  0.1598345444660949  1.0000
  H   H17       1.0  0.7839058128896843  0.8051564971045522  0.7454891235517129  1.0000
  H   H18       1.0  0.8647270211410865  0.6351588948210904  0.6247741300772487  1.0000
  H   H19       1.0  0.7833125370687944  0.8444811899566782  0.14121957830704088  1.0000
  H   H20       1.0  0.7542058826379318  0.9247848425221011  0.9688620390261593  1.0000
  H   H21       1.0  0.6584469650175335  0.7310944120604103  0.9499226584677496  1.0000
  H   H22       1.0  0.6868013450315833  0.6505014408783496  0.12459208326532044  1.0000
  H   H23       1.0  0.5783410497139982  0.8085213890753397  0.13115457567084915  1.0000
  H   H24       1.0  0.649271866434748  0.8604220715914856  0.23284109137667558  1.0000
  Zn  Zn1       1.0  0.8216622101736167  0.5242213125372241  0.4003957948503498  1.0000
  Zn  Zn2       1.0  0.9862358013046783  0.5155398336460015  0.3976905609372169  1.0000
  C   C31       1.0  0.9049692064425132  0.5158305691853966  0.6622734687829279  1.0000
  C   C32       1.0  0.9029306125578133  0.5239323020059983  0.1358130031248017  1.0000
  C   C33       1.0  0.9053472524569628  0.7831319404035524  0.39390750752479775  1.0000
  C   C34       1.0  0.9025525013418583  0.2566292022776891  0.40417903815207373  1.0000
  O   O1        1.0  0.9656086036846038  0.5229045287557916  0.18849031812594227  1.0000
  O   O2        1.0  0.9671987554856007  0.5102682106538403  0.6075425264265779  1.0000
  O   O3        1.0  0.9675031964761576  0.7261175024485553  0.3908351312749773  1.0000
  O   O4        1.0  0.9653041061611434  0.3070552495409373  0.4051976061563677  1.0000
  O   O5        1.0  0.84259384915624  0.732705899606372  0.39288875054678507  1.0000
  O   O6        1.0  0.8422894172062767  0.5168583392858928  0.6095960728448304  1.0000
  O   O7        1.0  0.8406992582768408  0.5294945960079789  0.1905421315581083  1.0000
  O   O8        1.0  0.8403947611253719  0.31364530717734707  0.40724952762529565  1.0000
