data_image0
_chemical_formula_structural       NC12NC2H8C7N4H6C6NO2H5Zn2C4O8
_chemical_formula_sum              "N7 C31 H19 O10 Zn2"
_cell_length_a       17.80743265337812
_cell_length_b       9.274187458527196
_cell_length_c       9.273426996046743
_cell_angle_alpha    85.50475773600851
_cell_angle_beta     91.97882923782456
_cell_angle_gamma    89.89930755814213

_space_group_name_H-M_alt    "P 1"
_space_group_IT_number       1

loop_
  _space_group_symop_operation_xyz
  'x, y, z'

loop_
  _atom_site_type_symbol
  _atom_site_label
  _atom_site_symmetry_multiplicity
  _atom_site_fract_x
  _atom_site_fract_y
  _atom_site_fract_z
  _atom_site_occupancy
  N   N1        1.0  0.7078746347656287  0.5725421815736649  0.4555059854034902  1.0000
  C   C1        1.0  0.6568867567522758  0.6059012281279319  0.3793599968136523  1.0000
  C   C2        1.0  0.5934528504590563  0.6473974312417348  0.2846439838358148  1.0000
  C   C3        1.0  0.6048675548861451  0.7083718816129625  0.14429477374902588  1.0000
  C   C4        1.0  0.5433445888627212  0.7481799893353219  0.05223107420898111  1.0000
  C   C5        1.0  0.47025090241363116  0.7273113649493088  0.09978499885289338  1.0000
  C   C6        1.0  0.45786096768984197  0.6662012986373864  0.24065369527394953  1.0000
  C   C7        1.0  0.5202411908779473  0.6263969348784444  0.33269906545267225  1.0000
  C   C8        1.0  0.3802066334507239  0.6440731378333744  0.29137882139385796  1.0000
  C   C9        1.0  0.36212574667036085  0.6732302408902864  0.43278489753016547  1.0000
  C   C10       1.0  0.2890024976032509  0.6524074352695872  0.4803842074538041  1.0000
  C   C11       1.0  0.23301973031541848  0.602138585681441  0.38750701456857617  1.0000
  C   C12       1.0  0.1577635489705554  0.5806909516768519  0.43665947811759387  1.0000
  N   N2        1.0  0.0972629085842461  0.5634484969391864  0.4761746772392512  1.0000
  C   C13       1.0  0.2504107657936201  0.5727896492583477  0.24670323427351026  1.0000
  C   C14       1.0  0.3234800741175682  0.5936309162675424  0.1988196115248424  1.0000
  H   H1        1.0  0.6612488606521782  0.7251012906926015  0.10612470919969619  1.0000
  H   H2        1.0  0.5523031404154942  0.7956886318526142  0.9438525224607878  1.0000
  H   H3        1.0  0.42345759497954827  0.7607305388028688  0.027094054979278196  1.0000
  H   H4        1.0  0.511973799235783  0.5773516822124378  0.44092931777481326  1.0000
  H   H5        1.0  0.40427736657185537  0.713971520327438  0.50593742739429  1.0000
  H   H6        1.0  0.2761072584480666  0.6758693320007225  0.5894787774679486  1.0000
  H   H7        1.0  0.20755022690094257  0.5334516660250876  0.17401883242900773  1.0000
  H   H8        1.0  0.3358409074059953  0.5684622259670629  0.09005114019567054  1.0000
  C   C15       1.0  0.9007366521606657  0.14469940425424244  0.46311030100975215  1.0000
  C   C16       1.0  0.9391904942179666  0.22625980901235243  0.3553139103629914  1.0000
  C   C17       1.0  0.9826231577312864  0.15889309469343482  0.2576571790247207  1.0000
  C   C18       1.0  0.9889557452731403  0.007818616881208438  0.2650893452772536  1.0000
  C   C19       1.0  0.9494935211259352  0.9250985193814452  0.37075431629076894  1.0000
  C   C20       1.0  0.9044080564851076  0.9912799073545989  0.4685830690518527  1.0000
  C   C21       1.0  0.036085045278574805  0.9384527577491593  0.16101873439455705  1.0000
  N   N3        1.0  0.07175663153674905  0.011144374243447833  0.052149985908165115  1.0000
  N   N4        1.0  0.10731085810750907  0.9107235502932268  0.9861803824290815  1.0000
  N   N5        1.0  0.09440256963826688  0.7813665007446176  0.0512053577126237  1.0000
  N   N6        1.0  0.050137001261042924  0.7958446288218399  0.16055984916966226  1.0000
  H   H9        1.0  0.8029149541723128  0.4154373842920847  0.6027305123819164  1.0000
  H   H10       1.0  0.937190038573469  0.34336334966531373  0.34857858553369736  1.0000
  H   H11       1.0  0.012063092757917504  0.22568730609638243  0.17706206978314842  1.0000
  H   H12       1.0  0.9518840254168244  0.8083382633907652  0.3752265637098797  1.0000
  H   H13       1.0  0.8573388185989312  0.694248953420673  0.6876702803210987  1.0000
  H   H14       1.0  0.03163599807069395  0.7105428984009973  0.2302538551089104  1.0000
  C   C22       1.0  0.9008523338520791  0.5710580234907243  0.041947458652640705  1.0000
  C   C23       1.0  0.9449114488743391  0.6730725106903674  0.1106611970974094  1.0000
  C   C24       1.0  0.9938678214368368  0.7655112886407582  0.03232929771216499  1.0000
  C   C25       1.0  0.9985934900691272  0.7550091949771705  0.8828730242217332  1.0000
  C   C26       1.0  0.9543883258997474  0.6561474824629956  0.8126876162891761  1.0000
  C   C27       1.0  0.9042923827775949  0.564921274159871  0.889746004083051  1.0000
  N   N7        1.0  0.03899533249187104  0.8683942812074148  0.10478728394659842  1.0000
  O   O1        1.0  0.03421103123370339  0.8788174199827367  0.2514125823414477  1.0000
  O   O2        1.0  0.08302804947166909  0.9501032569913009  0.03579273073808697  1.0000
  H   H15       1.0  0.795231736776094  0.44480302919835496  0.32502266296237514  1.0000
  H   H16       1.0  0.94234921838849  0.6781359458892127  0.22666800739152193  1.0000
  H   H17       1.0  0.036021989533710164  0.8244359694333067  0.8196519184256205  1.0000
  H   H18       1.0  0.9581064431074385  0.6534619062449425  0.6965588561008222  1.0000
  H   H19       1.0  0.7457994337206288  0.3841547631810849  0.7905666392774129  1.0000
  Zn  Zn1       1.0  0.8202436997560102  0.5699140319200182  0.4614788203966332  1.0000
  Zn  Zn2       1.0  0.9848938378840929  0.5660648032834046  0.47021354062480825  1.0000
  C   C28       1.0  0.903615575626034  0.5603388753683355  0.7294566714187047  1.0000
  C   C29       1.0  0.9015237684509391  0.5756417355420701  0.202235938424747  1.0000
  C   C30       1.0  0.9036868979895402  0.8312999350279013  0.46179611952801425  1.0000
  C   C31       1.0  0.9014523827055225  0.30467894479993585  0.46989655309936845  1.0000
  O   O3        1.0  0.9642329501017851  0.5757130203509071  0.2593449566413737  1.0000
  O   O4        1.0  0.965872032667485  0.5573450306660753  0.6789766811803681  1.0000
  O   O5        1.0  0.9659287901559982  0.7761495219386121  0.4628388567895663  1.0000
  O   O6        1.0  0.964176136034877  0.35690854148686  0.4754826698843584  1.0000
  O   O7        1.0  0.8409613454181911  0.7790702950317403  0.45620968814876894  1.0000
  O   O8        1.0  0.8409045951245528  0.5602675361569484  0.6723474467673269  1.0000
  O   O9        1.0  0.8392655053488155  0.5786354881717224  0.2527139863778778  1.0000
  O   O10       1.0  0.839208691673267  0.35983099821436276  0.46885180778036567  1.0000
