data_image0
_chemical_formula_structural       NC12NC2H8C9H10C6NCH7Zn2C4O8
_chemical_formula_sum              "N3 C34 H25 Zn2 O8"
_cell_length_a       19.240039667572717
_cell_length_b       10.297183801781406
_cell_length_c       9.273390368590327
_cell_angle_alpha    86.14107260812962
_cell_angle_beta     89.99083702737411
_cell_angle_gamma    89.99762600624447

_space_group_name_H-M_alt    "P 1"
_space_group_IT_number       1

loop_
  _space_group_symop_operation_xyz
  'x, y, z'

loop_
  _atom_site_type_symbol
  _atom_site_label
  _atom_site_symmetry_multiplicity
  _atom_site_fract_x
  _atom_site_fract_y
  _atom_site_fract_z
  _atom_site_occupancy
  N   N1        1.0  0.6545685298476509  0.40646048000360896  0.40947867711898156  1.0000
  C   C1        1.0  0.5944201610355385  0.40646056313831935  0.4094785861453081  1.0000
  C   C2        1.0  0.5196021239035554  0.4064606789990073  0.4094784337086186  1.0000
  C   C3        1.0  0.48312096747900357  0.3430751623933821  0.5242758083216317  1.0000
  C   C4        1.0  0.41045021441085744  0.34296516914132236  0.5243719056819518  1.0000
  C   C5        1.0  0.3732698889837037  0.40646076917329044  0.40947818098331146  1.0000
  C   C6        1.0  0.4104652419229369  0.4699565583074526  0.29458467209711214  1.0000
  C   C7        1.0  0.48313592541322065  0.46984633079135807  0.29468090552056214  1.0000
  C   C8        1.0  0.2960647985540026  0.40646068947795655  0.4094780751284328  1.0000
  C   C9        1.0  0.258875906139331  0.2936131795687209  0.4559998642158827  1.0000
  C   C10       1.0  0.1862052232214019  0.2937191399493204  0.45589846058051436  1.0000
  C   C11       1.0  0.1497325116284414  0.40646056091603855  0.409478142787862  1.0000
  C   C12       1.0  0.0749144744546789  0.40646044978079787  0.4094784188055909  1.0000
  N   N2        1.0  0.014766157585606596  0.4064604111578168  0.4094786501288097  1.0000
  C   C13       1.0  0.18620731089495127  0.5192020571698897  0.3630577662611201  1.0000
  C   C14       1.0  0.25887801258899484  0.5193081959953754  0.362956182092933  1.0000
  H   H1        1.0  0.5108300131548831  0.2940079046064119  0.6139061372957255  1.0000
  H   H2        1.0  0.3833509740057582  0.2947080529772945  0.6152398468070637  1.0000
  H   H3        1.0  0.3833779515436702  0.5182137009917276  0.20371667452758246  1.0000
  H   H4        1.0  0.5108566511789872  0.5189134912150486  0.20505088267182514  1.0000
  H   H5        1.0  0.28596848173813616  0.2047640857268567  0.49063190075146945  1.0000
  H   H6        1.0  0.1584895731481345  0.20578043452200623  0.4916764584210027  1.0000
  H   H7        1.0  0.1584931375197242  0.6071407382080245  0.3272797845803257  1.0000
  H   H8        1.0  0.2859719158094866  0.6081573685604629  0.3283240958323965  1.0000
  C   C15       1.0  0.8346730983378045  0.024986852868364336  0.40968286426816847  1.0000
  C   C16       1.0  0.83265849856085  0.03339521343009544  0.2580165667977776  1.0000
  C   C17       1.0  0.831626199417785  0.9210865750400324  0.18031348741187592  1.0000
  C   C18       1.0  0.8326504010288617  0.7982184943242522  0.25742873068668537  1.0000
  C   C19       1.0  0.8346682738884856  0.7879241892650503  0.40928686386021385  1.0000
  C   C20       1.0  0.8356657904910626  0.9017750090425838  0.4844226354647456  1.0000
  C   C21       1.0  0.8294470752045615  0.9396130055234431  0.016275677311285545  1.0000
  C   C22       1.0  0.7887558969811278  0.8401281787784697  0.9360433275994845  1.0000
  C   C23       1.0  0.8679385298589546  0.840392559678029  0.931464729618184  1.0000
  H   H9        1.0  0.8354559878079154  0.34928529583220885  0.4681247534042869  1.0000
  H   H10       1.0  0.8318808978497583  0.12806366985147744  0.19946500830578962  1.0000
  H   H11       1.0  0.8318927079621031  0.71007394493391  0.200503137645472  1.0000
  H   H12       1.0  0.8372197481630308  0.8945603394342075  0.6014363688467708  1.0000
  H   H13       1.0  0.8384702348948334  0.5612646957168379  0.6961041176382734  1.0000
  H   H14       1.0  0.8287473044681843  0.039823933882503264  0.9635510414516872  1.0000
  H   H15       1.0  0.7655582306255013  0.7571184539052181  0.0016342389117578447  1.0000
  H   H16       1.0  0.764243367524504  0.8800251510238886  0.8340702118075876  1.0000
  H   H17       1.0  0.8928400607961571  0.7575442389190497  0.9942751409300565  1.0000
  H   H18       1.0  0.8897047647463879  0.8804416708686935  0.8268142949776274  1.0000
  C   C24       1.0  0.8347029199373702  0.402404587930532  0.9862412094023862  1.0000
  C   C25       1.0  0.8985380841546317  0.39982346567163907  0.0598450257619898  1.0000
  C   C26       1.0  0.9612597430372926  0.4093182545510894  0.9844253005690144  1.0000
  C   C27       1.0  0.9617398462468185  0.4217460894573808  0.8327908616049062  1.0000
  C   C28       1.0  0.8983283301836197  0.4221364511996113  0.7583785802407546  1.0000
  C   C29       1.0  0.8346384567170253  0.41050647490118203  0.8327285388993517  1.0000
  N   N3        1.0  0.025636208321668352  0.43273659913349927  0.7519968768395509  1.0000
  C   C30       1.0  0.09425943732974183  0.4328896962746812  0.8189849853646081  1.0000
  H   H19       1.0  0.7250010661724217  0.3400046097416556  0.27211360718736666  1.0000
  H   H20       1.0  0.009147039757282817  0.40812290598629325  0.04554691855361481  1.0000
  H   H21       1.0  0.6726640723562162  0.30958467811127677  0.7372898579968101  1.0000
  H   H22       1.0  0.023381034517247153  0.44134590471511426  0.6391165753679608  1.0000
  H   H23       1.0  0.09876962837957781  0.5162216139137557  0.8884102684972093  1.0000
  H   H24       1.0  0.10273794387539614  0.34003212525012494  0.8845871178418063  1.0000
  H   H25       1.0  0.13499042723807797  0.4427102541221446  0.7340893157118873  1.0000
  Zn  Zn1       1.0  0.7585137930762503  0.4064570715244178  0.4094869817939988  1.0000
  Zn  Zn2       1.0  0.9108209122992555  0.40645333582964627  0.40948211362487763  1.0000
  C   C31       1.0  0.8346491094516059  0.4037999253984845  0.6727270014059237  1.0000
  C   C32       1.0  0.8346872590917397  0.4091121223383809  0.1462422345715193  1.0000
  C   C33       1.0  0.8346660359808289  0.6436578183923336  0.40361832874295356  1.0000
  C   C34       1.0  0.8346702805947832  0.16925266935014305  0.4153509848872956  1.0000
  O   O1        1.0  0.8924817611947177  0.4113561471855083  0.19993819574225857  1.0000
  O   O2        1.0  0.8924521867298589  0.4015520812828548  0.6190269310213179  1.0000
  O   O3        1.0  0.8924650758337298  0.5952403776554234  0.40171977318133  1.0000
  O   O4        1.0  0.892468820126917  0.21766785907266661  0.41724524551256414  1.0000
  O   O5        1.0  0.7768658332736447  0.5952425482840145  0.4017238499003919  1.0000
  O   O6        1.0  0.7768529441625629  0.4015558119084508  0.619030930081653  1.0000
  O   O7        1.0  0.7768825188059308  0.4113598159573848  0.1999404619817713  1.0000
  O   O8        1.0  0.7768695777271156  0.2176715195874326  0.4172476198158397  1.0000
