data_image0
_chemical_formula_structural       NC9NC5H8C7F3H5C7OCH10Zn2C4O8
_chemical_formula_sum              "N2 C33 H23 F3 O9 Zn2"
_cell_length_a       17.807436237873137
_cell_length_b       9.272718291674593
_cell_length_c       10.300835455316063
_cell_angle_alpha    86.00164586726821
_cell_angle_beta     89.41013499251636
_cell_angle_gamma    87.96869977406762

_space_group_name_H-M_alt    "P 1"
_space_group_IT_number       1

loop_
  _space_group_symop_operation_xyz
  'x, y, z'

loop_
  _atom_site_type_symbol
  _atom_site_label
  _atom_site_symmetry_multiplicity
  _atom_site_fract_x
  _atom_site_fract_y
  _atom_site_fract_z
  _atom_site_occupancy
  N   N1        1.0  0.7012017712485256  0.5406970705350418  0.5678759027673532  1.0000
  C   C1        1.0  0.6407632367323929  0.5016207574194669  0.556586029022974  1.0000
  C   C2        1.0  0.5655843425156921  0.4530141272093924  0.5425426523401717  1.0000
  C   C3        1.0  0.5477806209026098  0.3736969373096417  0.43701142154006084  1.0000
  C   C4        1.0  0.47478625267210767  0.3263798259056685  0.4232927475674195  1.0000
  C   C5        1.0  0.4185485012838487  0.3579606930076815  0.5150699876701599  1.0000
  C   C6        1.0  0.3409738261564317  0.3078024068280616  0.5005735260685478  1.0000
  C   C7        1.0  0.2784513714274497  0.3985883248824624  0.527130288460296  1.0000
  C   C8        1.0  0.2053155717445788  0.3510457641493099  0.5134237504724599  1.0000
  C   C9        1.0  0.1417315467990372  0.4448202004540393  0.5403648222478681  1.0000
  N   N2        1.0  0.0906230039689647  0.5202083597460299  0.5620246731604823  1.0000
  C   C10       1.0  0.1941197840960844  0.21243082217686332  0.473133142964685  1.0000
  C   C11       1.0  0.2557849269346297  0.12162952117156856  0.4465678867387419  1.0000
  C   C12       1.0  0.3288029511070773  0.16873395121304877  0.4600689153270034  1.0000
  C   C13       1.0  0.4370415456380172  0.4378268617414151  0.6208241755834216  1.0000
  C   C14       1.0  0.5100895742898569  0.4849325333976031  0.6343857730179931  1.0000
  H   H1        1.0  0.5902592550354685  0.34871688600194317  0.3651376088148002  1.0000
  H   H2        1.0  0.4620892494011775  0.26675686581603997  0.33997565149309006  1.0000
  H   H3        1.0  0.2865358693112569  0.5068175674657611  0.5567441591820859  1.0000
  H   H4        1.0  0.1377988822585038  0.174635625209832  0.4622810186236863  1.0000
  H   H5        1.0  0.24699835308068038  0.014310697936371176  0.41576000290886883  1.0000
  H   H6        1.0  0.3757224286777288  0.09572788759403306  0.4405234253026089  1.0000
  H   H7        1.0  0.3952823342175914  0.4622085859294702  0.6939882117679108  1.0000
  H   H8        1.0  0.5233095060281576  0.5459106371574729  0.716670662655184  1.0000
  C   C15       1.0  0.8975518732538227  0.1069830972778776  0.5620573300738125  1.0000
  C   C16       1.0  0.8517325424736353  0.1906847041084463  0.47301045781009216  1.0000
  C   C17       1.0  0.8005982435330704  0.1258241156027493  0.39428884141065085  1.0000
  C   C18       1.0  0.7972742264016937  0.9747121669324534  0.4019301405375805  1.0000
  C   C19       1.0  0.8431492268723699  0.8900478856704348  0.4881664091625277  1.0000
  C   C20       1.0  0.8942801101613949  0.9539108890912646  0.5678543760811681  1.0000
  C   C21       1.0  0.75341067228148  0.2171930391873802  0.29700179997145204  1.0000
  F   F1        1.0  0.7341111105741496  0.3496391041467002  0.34448252220682796  1.0000
  F   F2        1.0  0.6878139337161313  0.14923729297971253  0.27085887362032923  1.0000
  F   F3        1.0  0.7939255112674247  0.23981605275011095  0.18265211735507414  1.0000
  H   H9        1.0  0.9868215650000469  0.1810473198126692  0.840943832546651  1.0000
  H   H10       1.0  0.8547307894766666  0.30749432426038004  0.46692193047047326  1.0000
  H   H11       1.0  0.7597045711563462  0.9215811055563778  0.340053808147869  1.0000
  H   H12       1.0  0.8400827108348953  0.7734405581004808  0.48995951217341743  1.0000
  H   H13       1.0  0.055616307855818725  0.8295465801873451  0.7217131036598059  1.0000
  C   C22       1.0  0.8958480055341518  0.5303770133843246  0.18363981486195557  1.0000
  C   C23       1.0  0.9645321232160072  0.600525341135405  0.1771721390190164  1.0000
  C   C24       1.0  0.998683877829808  0.6374064056958133  0.05670835022308829  1.0000
  C   C25       1.0  0.9647108488880313  0.600707525513325  0.9418719691624057  1.0000
  C   C26       1.0  0.8959840055462586  0.5305169605511533  0.9462718738236959  1.0000
  C   C27       1.0  0.861871191677989  0.496077783098372  0.06758756037690294  1.0000
  C   C28       1.0  0.07323504431741723  0.7086320046728172  0.051133043076148736  1.0000
  O   O1        1.0  0.13106750635712472  0.6003542310363307  0.05705781588014047  1.0000
  C   C29       1.0  0.20138229013778775  0.6658541447015672  0.051931149548264166  1.0000
  H   H14       1.0  0.8699669506164791  0.5019938858612176  0.5136031652832256  1.0000
  H   H15       1.0  0.9917555132018205  0.6267382441611522  0.2656892616597395  1.0000
  H   H16       1.0  0.9920568164647765  0.6270468180962532  0.849213321994776  1.0000
  H   H17       1.0  0.8089026758357563  0.4419652450579201  0.07181324758363794  1.0000
  H   H18       1.0  0.7667586694756477  0.39664899254809  0.7474058856745701  1.0000
  H   H19       1.0  0.0769395658371954  0.778810841884555  0.13423771791955552  1.0000
  H   H20       1.0  0.07711358699719639  0.7788236769998869  0.9591212045520144  1.0000
  H   H21       1.0  0.24622154637755633  0.5795423596101681  0.05666509765338179  1.0000
  H   H22       1.0  0.20872471062635145  0.7324131311421991  0.13641814275310749  1.0000
  H   H23       1.0  0.20890795272866902  0.7324636290128697  0.9589047816515327  1.0000
  Zn  Zn1       1.0  0.813580342060627  0.534780624730073  0.5661948477094847  1.0000
  Zn  Zn2       1.0  0.978244462272963  0.5261130526947688  0.5637163228907046  1.0000
  C   C30       1.0  0.8959788020034848  0.5247457934111872  0.8020787680560322  1.0000
  C   C31       1.0  0.8958477934509822  0.5361496088994353  0.3278325153816082  1.0000
  C   C32       1.0  0.8948937632042094  0.7938227671889928  0.5615841812260702  1.0000
  C   C33       1.0  0.8969327827672241  0.26707090554263124  0.5683271604274869  1.0000
  O   O2        1.0  0.9583369220436527  0.5347913550710317  0.37528427257914476  1.0000
  O   O3        1.0  0.958465934719496  0.5195244726729746  0.7527454866297804  1.0000
  O   O4        1.0  0.9575889100236714  0.7368075765304531  0.5585444291684193  1.0000
  O   O5        1.0  0.9592138904935561  0.3175082644691394  0.5694852335957055  1.0000
  O   O6        1.0  0.8326108576482437  0.7433854159150881  0.5604259378434633  1.0000
  O   O7        1.0  0.833487875635312  0.5261040445959939  0.7546269379278867  1.0000
  O   O8        1.0  0.833358862925196  0.5413708764529805  0.37716416234842476  1.0000
  O   O9        1.0  0.8342358314292305  0.32408777555488855  0.5713652206487652  1.0000
