data_image0
_chemical_formula_structural       NC8NC6H8C7NC2NH8C8NH7Zn2C4O8
_chemical_formula_sum              "N5 C35 H23 Zn2 O8"
_cell_length_a       17.457602349358154
_cell_length_b       9.273995741505848
_cell_length_c       9.274266800404106
_cell_angle_alpha    86.13411906663325
_cell_angle_beta     92.41618932719734
_cell_angle_gamma    92.2639659462817

_space_group_name_H-M_alt    "P 1"
_space_group_IT_number       1

loop_
  _space_group_symop_operation_xyz
  'x, y, z'

loop_
  _atom_site_type_symbol
  _atom_site_label
  _atom_site_symmetry_multiplicity
  _atom_site_fract_x
  _atom_site_fract_y
  _atom_site_fract_z
  _atom_site_occupancy
  N   N1        1.0  0.7374411057899225  0.6026954187035755  0.4808214806060634  1.0000
  C   C1        1.0  0.6761360616775163  0.5515984628161457  0.46888986417571  1.0000
  C   C2        1.0  0.5998699943614144  0.4880402736820926  0.4540575399187361  1.0000
  C   C3        1.0  0.5412393538612678  0.5332524086074498  0.53729616697977  1.0000
  C   C4        1.0  0.4664212728330059  0.4720520278244882  0.5231526507921982  1.0000
  C   C5        1.0  0.40419294534711864  0.5197913016108244  0.6113050887669225  1.0000
  C   C6        1.0  0.3300126608017039  0.5398567843513813  0.5494922124313231  1.0000
  C   C7        1.0  0.27138041850820094  0.5848654913831377  0.6328500119499414  1.0000
  C   C8        1.0  0.1957757668506272  0.6055861143851224  0.568580910918987  1.0000
  N   N2        1.0  0.1350025044275779  0.6222384102215059  0.5169087000931365  1.0000
  C   C9        1.0  0.28643542809719574  0.6100828746454514  0.7785857381114103  1.0000
  C   C10       1.0  0.35983156838252645  0.5904525767248188  0.8408299791404052  1.0000
  C   C11       1.0  0.41845118973379725  0.5456475459471021  0.7579806576223898  1.0000
  C   C12       1.0  0.45152497585892293  0.3648755447580374  0.42417831352417085  1.0000
  C   C13       1.0  0.5101437388120188  0.31997617083670016  0.3413844492544161  1.0000
  C   C14       1.0  0.5841752092361662  0.3813057950495886  0.3561385537314228  1.0000
  H   H1        1.0  0.5537296040969525  0.6173105276004274  0.6114783062319834  1.0000
  H   H2        1.0  0.31804521505636724  0.5224081789561413  0.4362378502628657  1.0000
  H   H3        1.0  0.24149031991837938  0.6448590875005678  0.8439715882207371  1.0000
  H   H4        1.0  0.3712963659157399  0.6096283579892096  0.953675353239599  1.0000
  H   H5        1.0  0.47463554470680125  0.5293660515221257  0.8090897791776426  1.0000
  H   H6        1.0  0.394816915790873  0.3144332745293072  0.41220858162672425  1.0000
  H   H7        1.0  0.4981794922408034  0.2371485306563623  0.2658763827450777  1.0000
  H   H8        1.0  0.6291127975967139  0.34556767164790675  0.29131694951449605  1.0000
  C   C15       1.0  0.9339355728947402  0.18885766967493667  0.4976045164591132  1.0000
  C   C16       1.0  0.9479440562790425  0.2718096422160836  0.36851207121263585  1.0000
  C   C17       1.0  0.9687944475087044  0.20678763577640355  0.24544754431330779  1.0000
  C   C18       1.0  0.9764993105320655  0.05673402376794167  0.24798447196940487  1.0000
  C   C19       1.0  0.960884910258867  0.9724166006432101  0.3757369887253475  1.0000
  C   C20       1.0  0.9385152578390068  0.03606542454411475  0.500138729451231  1.0000
  C   C21       1.0  0.9995384810013913  0.9898695211712184  0.1161193472491855  1.0000
  N   N3        1.0  0.002874944465388832  0.06334055040958407  0.9854348376589006  1.0000
  C   C22       1.0  0.026260168766573787  0.965926026454374  0.8968959697570261  1.0000
  C   C23       1.0  0.036889470929696536  0.8361051838750067  0.9743869471435597  1.0000
  N   N4        1.0  0.020117263832425628  0.8513196986104227  0.1122420966128488  1.0000
  H   H9        1.0  0.8708664513087306  0.4519073554415087  0.6993451552989081  1.0000
  H   H10       1.0  0.9446253899274619  0.3884556876836795  0.36356151371825496  1.0000
  H   H11       1.0  0.9800265288045594  0.27480891761730075  0.14854210136143764  1.0000
  H   H12       1.0  0.9634742628948737  0.8559966916819891  0.3779697140978574  1.0000
  H   H13       1.0  0.9385270883450774  0.7398242242287901  0.739859582474041  1.0000
  H   H14       1.0  0.03522302544572555  0.9885305453310852  0.782779575221241  1.0000
  H   H15       1.0  0.05590701940383227  0.7376096311085385  0.9333799950434547  1.0000
  H   H16       1.0  0.023937791919117504  0.7715955953895564  0.19685099496589858  1.0000
  C   C24       1.0  0.9379727190851923  0.6093943010715406  0.07571162964249045  1.0000
  C   C25       1.0  0.8928357615286858  0.5039373707571604  0.15250573776950277  1.0000
  C   C26       1.0  0.8431174532543108  0.4094711338082011  0.07986554070554266  1.0000
  C   C27       1.0  0.8368878313987695  0.4189669138724536  0.9286267238333045  1.0000
  C   C28       1.0  0.8830592653328802  0.5210268988502885  0.850611641584575  1.0000
  C   C29       1.0  0.9344780880164089  0.615528841641213  0.9220316056926685  1.0000
  C   C30       1.0  0.7840929335987075  0.3156453777088246  0.8505007125203137  1.0000
  C   C31       1.0  0.8249206670325562  0.1858077446278985  0.8226618371520729  1.0000
  N   N5        1.0  0.8571488058335793  0.08333615531343753  0.8006882362213132  1.0000
  H   H17       1.0  0.02419430319447647  0.9310297240137824  0.16376726713635548  1.0000
  H   H18       1.0  0.8947539164815461  0.4965627172055204  0.2696751926265062  1.0000
  H   H19       1.0  0.8088409787919917  0.32960401812902607  0.14180263534591808  1.0000
  H   H20       1.0  0.8800896080322874  0.5241714446810755  0.7334593161530221  1.0000
  H   H21       1.0  0.9953004714591523  0.8294110148077503  0.6317400544555358  1.0000
  H   H22       1.0  0.7624974430462483  0.3673892575683879  0.7459035027845112  1.0000
  H   H23       1.0  0.7336203011804879  0.2835331004814994  0.9160066901427221  1.0000
  Zn  Zn1       1.0  0.852168682403325  0.6083312957648124  0.4912437812157651  1.0000
  Zn  Zn2       1.0  0.0202748009163607  0.6165907914999522  0.5064981617639364  1.0000
  C   C32       1.0  0.9351058891281556  0.6086224845154261  0.7620416940802008  1.0000
  C   C33       1.0  0.937339439159951  0.616301514081532  0.23570056235579798  1.0000
  C   C34       1.0  0.9376693611454507  0.8758833506054594  0.493917097504299  1.0000
  C   C35       1.0  0.934775900093959  0.3490389126078304  0.5038252253681044  1.0000
  O   O1        1.0  0.0009222664961692202  0.6217477801720133  0.2951832487854858  1.0000
  O   O2        1.0  0.9991117118627679  0.6094438933325712  0.7141363114562502  1.0000
  O   O3        1.0  0.0011808817568197427  0.825260391282385  0.4976237291428483  1.0000
  O   O4        1.0  0.9988530397408061  0.40593128893983876  0.5116957178793093  1.0000
  O   O5        1.0  0.8735903862125514  0.8189907955078816  0.4860462198872457  1.0000
  O   O6        1.0  0.8715212260008679  0.6031760301246908  0.7025587305510966  1.0000
  O   O7        1.0  0.873331787567371  0.6154798541400834  0.28360393523280814  1.0000
  O   O8        1.0  0.871262560306991  0.3996633533732239  0.5001165123330646  1.0000
