data_image0
_chemical_formula_structural       NC10NC3NCH9C16H10C12IH9Zn2C4O8
_chemical_formula_sum              "N3 C46 H28 I1 Zn2 O8"
_cell_length_a       19.437513618241372
_cell_length_b       10.29914801576943
_cell_length_c       10.29977335064465
_cell_angle_alpha    85.52085607386434
_cell_angle_beta     90.35638175706923
_cell_angle_gamma    89.53623586623313

_space_group_name_H-M_alt    "P 1"
_space_group_IT_number       1

loop_
  _space_group_symop_operation_xyz
  'x, y, z'

loop_
  _atom_site_type_symbol
  _atom_site_label
  _atom_site_symmetry_multiplicity
  _atom_site_fract_x
  _atom_site_fract_y
  _atom_site_fract_z
  _atom_site_occupancy
  N   N1        1.0  0.6479034225902134  0.4110035324461161  0.5751620142680105  1.0000
  C   C1        1.0  0.5889719129192555  0.42801587471732216  0.5721804128278045  1.0000
  C   C2        1.0  0.515533725438046  0.44927123034369204  0.5684794182701338  1.0000
  C   C3        1.0  0.47375673555182024  0.34807774755064574  0.5568533060501266  1.0000
  C   C4        1.0  0.39786716209343104  0.35814577757858834  0.5496286372643906  1.0000
  C   C5        1.0  0.3583117307105924  0.4389774263034207  0.6153447860604129  1.0000
  C   C6        1.0  0.28212731034492955  0.4303714725964902  0.6069034867254623  1.0000
  C   C7        1.0  0.2489763540006344  0.30901612193456196  0.6115866939498211  1.0000
  C   C8        1.0  0.1772399220846522  0.3026463988435226  0.6044207082595521  1.0000
  C   C9        1.0  0.1376838059694977  0.41715917877701114  0.5929339030973844  1.0000
  C   C10       1.0  0.0638328350945261  0.41045130958982745  0.5855999365674207  1.0000
  N   N2        1.0  0.004461752676453106  0.4050587727114334  0.579703885690489  1.0000
  C   C11       1.0  0.1701182232925356  0.5382036715189238  0.5889960757817896  1.0000
  C   C12       1.0  0.24183910119501706  0.5448273827819908  0.5962239997160628  1.0000
  C   C13       1.0  0.38701950827735887  0.5312371613892597  0.7052346751542373  1.0000
  N   N3        1.0  0.4440102927968032  0.5944616804187755  0.6848096878462886  1.0000
  C   C14       1.0  0.4878345129473581  0.5852405001583425  0.571704893006479  1.0000
  H   H1        1.0  0.49612639468831476  0.25301885834145144  0.544763260106262  1.0000
  H   H2        1.0  0.3731358036324404  0.2886494224633116  0.49133316939498767  1.0000
  H   H3        1.0  0.2784161544500054  0.21909369023872127  0.6226370668612677  1.0000
  H   H4        1.0  0.1526342820138894  0.20841180660433078  0.6083388039026976  1.0000
  H   H5        1.0  0.1399933655340695  0.6274703132690198  0.5802580710705891  1.0000
  H   H6        1.0  0.2659632726259651  0.639474810570742  0.5922903088100666  1.0000
  H   H7        1.0  0.3570304357724229  0.5515938081329912  0.7895948407539404  1.0000
  H   H8        1.0  0.5305973033130351  0.6555560323282998  0.5774452381522368  1.0000
  H   H9        1.0  0.4581589111057516  0.6133840329862799  0.4810498807823551  1.0000
  C   C15       1.0  0.8261369073786071  0.026630465704511108  0.5775979358426253  1.0000
  C   C16       1.0  0.8104165262929116  0.03652977542327584  0.44392381854412766  1.0000
  C   C17       1.0  0.8024965035947922  0.9244183796904506  0.37598424373630723  1.0000
  C   C18       1.0  0.810508333217118  0.8012765460501301  0.44352039803346127  1.0000
  C   C19       1.0  0.8262348542030329  0.7894216674305052  0.5772793463666355  1.0000
  C   C20       1.0  0.8339535397277247  0.9026166359892872  0.6434945321879137  1.0000
  C   C21       1.0  0.785866406113875  0.9359362583393743  0.2345731509375575  1.0000
  C   C22       1.0  0.8184099546216143  0.8544330851441208  0.1497700763495995  1.0000
  C   C23       1.0  0.8027342442528803  0.8653988927540093  0.016679099771749636  1.0000
  C   C24       1.0  0.7543539869424865  0.9577713860522571  0.9665848932217953  1.0000
  C   C25       1.0  0.7216848770130707  0.03925733751445003  0.05010242857817726  1.0000
  C   C26       1.0  0.7373115356433784  0.02853360740902278  0.18321372688633475  1.0000
  C   C27       1.0  0.7382412169249272  0.9689365711409228  0.8295556071724034  1.0000
  C   C28       1.0  0.7247469457776775  0.9782873063296929  0.7147955617046078  1.0000
  C   C29       1.0  0.7089453136038316  0.9892368916031853  0.5804127189671346  1.0000
  C   C30       1.0  0.6954533071263148  0.9985862065310377  0.46567121009514606  1.0000
  H   H10       1.0  0.8321482579718701  0.35029795280820714  0.6290283706381499  1.0000
  H   H11       1.0  0.8052218921047376  0.13168664101784613  0.3919476105547941  1.0000
  H   H12       1.0  0.8035379103611359  0.7145142933668291  0.3920161508407274  1.0000
  H   H13       1.0  0.8460770609165731  0.8942651868868342  0.7466016401032334  1.0000
  H   H14       1.0  0.8554917912292411  0.5597466941383017  0.8299151599110438  1.0000
  H   H15       1.0  0.8566320336309792  0.7833808301796297  0.18610662006036982  1.0000
  H   H16       1.0  0.8284688296066297  0.8020653655492085  0.9528321123123863  1.0000
  H   H17       1.0  0.6840099081292731  0.11086521655755986  0.012402962542446433  1.0000
  H   H18       1.0  0.7107748563340023  0.09149093144843866  0.24624771045400684  1.0000
  H   H19       1.0  0.6836062391900676  0.00679569390191248  0.3649184909135039  1.0000
  C   C31       1.0  0.8261530976471014  0.40813270619520603  0.19606896961377007  1.0000
  C   C32       1.0  0.8885287775459091  0.47610213332274665  0.1904973703819015  1.0000
  C   C33       1.0  0.9201680903989965  0.5104343860324796  0.07054462771458625  1.0000
  C   C34       1.0  0.8885949298730274  0.47588685557720795  0.9552286894849242  1.0000
  C   C35       1.0  0.826218674042313  0.4079194431695163  0.9588083223378159  1.0000
  C   C36       1.0  0.7953473055538877  0.37442189643621515  0.07970093068070061  1.0000
  C   C37       1.0  0.9861560855996142  0.5823380529750042  0.06570435589191481  1.0000
  C   C38       1.0  0.9969920650340205  0.6851852913265184  0.14560980525760248  1.0000
  C   C39       1.0  0.05913595851297759  0.7527472782477382  0.14085281355899837  1.0000
  C   C40       1.0  0.11113463624109611  0.7185178574952891  0.056539823966257126  1.0000
  C   C41       1.0  0.10096242687100632  0.6165458254312326  0.9767851987778035  1.0000
  C   C42       1.0  0.03888829945315431  0.5487566840930063  0.9811372322898988  1.0000
  I   I1        1.0  0.2048252096883769  0.8206034369825215  0.04967156667140582  1.0000
  H   H20       1.0  0.8023651425925924  0.3822986118435456  0.5256402090635963  1.0000
  H   H21       1.0  0.9131342686241625  0.5009410346388593  0.27977707857984835  1.0000
  H   H22       1.0  0.9122926992883845  0.5036818674164893  0.8624059339494554  1.0000
  H   H23       1.0  0.7472269221733377  0.32198772032087963  0.08323080098990143  1.0000
  H   H24       1.0  0.8024611759121514  0.3819848424997825  0.6327217236029976  1.0000
  H   H25       1.0  0.9571013658574702  0.7144307341010707  0.21048038578733497  1.0000
  H   H26       1.0  0.0667603968889332  0.8319038783900066  0.20250255374684034  1.0000
  H   H27       1.0  0.1411913116456598  0.5895311636613404  0.9116268476156497  1.0000
  H   H28       1.0  0.032459393188308594  0.46903921825252626  0.9196638578138508  1.0000
  Zn  Zn1       1.0  0.750798460275343  0.4092845115952272  0.5764802106772495  1.0000
  Zn  Zn2       1.0  0.9015667207481459  0.40676712014361516  0.5783963636315552  1.0000
  C   C43       1.0  0.8262040759386551  0.40278566915834907  0.8146363638960237  1.0000
  C   C44       1.0  0.8261627516909495  0.4132675738107374  0.34024035811930564  1.0000
  C   C45       1.0  0.8262123596767786  0.6452394099875896  0.5721643176295836  1.0000
  C   C46       1.0  0.826154416311726  0.17081227338893612  0.5827124736224514  1.0000
  O   O1        1.0  0.883381760062664  0.4140298791415815  0.3893527655504734  1.0000
  O   O2        1.0  0.8834146885677576  0.40011174226483637  0.7669778987829117  1.0000
  O   O3        1.0  0.8834206066112131  0.5958962167313206  0.5711799955259753  1.0000
  O   O4        1.0  0.8833757905650358  0.21824541485233254  0.5851505707748177  1.0000
  O   O5        1.0  0.768989339008645  0.5978062177469874  0.5697260028732665  1.0000
  O   O6        1.0  0.7689834211564809  0.4020233037335414  0.7655238362327761  1.0000
  O   O7        1.0  0.7689504925570988  0.4159413957863747  0.3878971416160957  1.0000
  O   O8        1.0  0.7689445230638349  0.2201569221803681  0.5836950442123114  1.0000
