data_image0
_chemical_formula_structural       NC11NC3H8C6NCOC6H11C7OC4NC2H9Zn2C4O8
_chemical_formula_sum              "N4 C44 H28 O10 Zn2"
_cell_length_a       17.807433833752565
_cell_length_b       10.29965916528486
_cell_length_c       10.299375074045738
_cell_angle_alpha    85.55751919023885
_cell_angle_beta     88.51814048155188
_cell_angle_gamma    90.70223866869796

_space_group_name_H-M_alt    "P 1"
_space_group_IT_number       1

loop_
  _space_group_symop_operation_xyz
  'x, y, z'

loop_
  _atom_site_type_symbol
  _atom_site_label
  _atom_site_symmetry_multiplicity
  _atom_site_fract_x
  _atom_site_fract_y
  _atom_site_fract_z
  _atom_site_occupancy
  N   N1        1.0  0.7077585746405097  0.43900043382413967  0.5350563015617431  1.0000
  C   C1        1.0  0.656928709132064  0.404249295654632  0.6016102952231837  1.0000
  C   C2        1.0  0.5936912318686678  0.3610217453906297  0.6843949696097518  1.0000
  C   C3        1.0  0.6053992779652964  0.29742651360811734  0.8070981365816248  1.0000
  C   C4        1.0  0.5440696350795652  0.2558795662106901  0.8875993264397402  1.0000
  C   C5        1.0  0.47087750209445384  0.27761434659504913  0.8460380713382913  1.0000
  C   C6        1.0  0.45819271968453423  0.3413643003155422  0.7228747374319446  1.0000
  C   C7        1.0  0.3804327808007693  0.36443022226894506  0.678533141867192  1.0000
  C   C8        1.0  0.3616547861672565  0.3476072048230359  0.5489417502808547  1.0000
  C   C9        1.0  0.28843270683601174  0.3693032746265842  0.5073364092415324  1.0000
  C   C10       1.0  0.2330456574824747  0.4081411922889331  0.5945022533536728  1.0000
  C   C11       1.0  0.1576870604063121  0.43049622719238934  0.5515357723115799  1.0000
  N   N2        1.0  0.09710412130598131  0.44846801448345097  0.516993848634795  1.0000
  C   C12       1.0  0.251132160051623  0.425174982731852  0.7235625560982564  1.0000
  C   C13       1.0  0.32430145482404577  0.4034438873206003  0.765423326150388  1.0000
  C   C14       1.0  0.5203796725851143  0.3829066766841829  0.6423899626324512  1.0000
  H   H1        1.0  0.6618598546871428  0.27999981323202916  0.8404594824833902  1.0000
  H   H2        1.0  0.5532529265244941  0.20639258457460755  0.9823235562617807  1.0000
  H   H3        1.0  0.4242280747825541  0.24303511010553058  0.9094687019465343  1.0000
  H   H4        1.0  0.40333216133813493  0.3159919616081175  0.4802120534520995  1.0000
  H   H5        1.0  0.2749953869690187  0.35546056880453225  0.40729309700510274  1.0000
  H   H6        1.0  0.2087378230172679  0.4555674197460515  0.7917770669412091  1.0000
  H   H7        1.0  0.3372106223914013  0.41883203789356777  0.8652843757459008  1.0000
  H   H8        1.0  0.5118950795821343  0.43375589309820795  0.547900499322325  1.0000
  C   C15       1.0  0.9023688635531839  0.0623720596128441  0.5259124679676758  1.0000
  C   C16       1.0  0.9028887576448265  0.07171762320310493  0.3890679722473598  1.0000
  C   C17       1.0  0.9042584728833011  0.9596165196564105  0.32016662755320513  1.0000
  C   C18       1.0  0.903030286344556  0.8365306593058809  0.3893578002528084  1.0000
  C   C19       1.0  0.9025009964578129  0.8250865294443692  0.5261485065216585  1.0000
  C   C20       1.0  0.9024376326311963  0.9386218842917653  0.5936414746452661  1.0000
  N   N3        1.0  0.9036358828883738  0.9727273879598158  0.18012489154700395  1.0000
  C   C21       1.0  0.9388569071280818  0.8824852717355972  0.09876225464223043  1.0000
  O   O1        1.0  0.9906798914734872  0.8109089282188682  0.14333763058598925  1.0000
  C   C22       1.0  0.9170295722238555  0.8758104916740311  0.9614042124932171  1.0000
  C   C23       1.0  0.8475643682939931  0.9239962498124303  0.9182795908090977  1.0000
  C   C24       1.0  0.8274419944404228  0.9165432060703684  0.7886863112472757  1.0000
  C   C25       1.0  0.8760851256531693  0.8606715632435885  0.7009703194693246  1.0000
  C   C26       1.0  0.9448890834100534  0.8116827280380557  0.7427493546175294  1.0000
  C   C27       1.0  0.9652982665948341  0.8187864532314653  0.8722248506305692  1.0000
  H   H9        1.0  0.9006711158224624  0.2519897445648489  0.7840783190539351  1.0000
  H   H10       1.0  0.9028059756317959  0.16634538312653047  0.33524711868880797  1.0000
  H   H11       1.0  0.9011681638093089  0.7497148622935026  0.3366371865900854  1.0000
  H   H12       1.0  0.9020468985106663  0.9305523656619953  0.6991326723948433  1.0000
  H   H13       1.0  0.9012984726624315  0.49322317555410305  0.578667435024421  1.0000
  H   H14       1.0  0.8822032807175704  0.058356634818562014  0.13517732100281088  1.0000
  H   H15       1.0  0.8081919476988604  0.9657111271455624  0.9845905318483621  1.0000
  H   H16       1.0  0.7739036782954101  0.9536878884663249  0.756383224977839  1.0000
  H   H17       1.0  0.8603591254075511  0.854970277585292  0.6007392196948014  1.0000
  H   H18       1.0  0.9824840923588904  0.7681295271144508  0.6747570966715708  1.0000
  H   H19       1.0  0.019024863019303288  0.7804610737984031  0.9023004245502889  1.0000
  C   C28       1.0  0.9024604982824327  0.44387228562039877  0.14464259692564216  1.0000
  C   C29       1.0  0.9603045903915259  0.5383875628598447  0.13354515820710056  1.0000
  C   C30       1.0  0.9888960897750968  0.5871244656185373  0.010717896877519452  1.0000
  C   C31       1.0  0.9601829130664558  0.5381468741084228  0.8983254113586722  1.0000
  C   C32       1.0  0.9024093492497737  0.44358636431630205  0.9074184355006372  1.0000
  C   C33       1.0  0.8737477830889969  0.3972442584606483  0.031045982400883736  1.0000
  C   C34       1.0  0.05051472905829946  0.6859393544764885  0.9989126409209684  1.0000
  O   O2        1.0  0.09852321407475229  0.6824218532169593  0.9070490097407262  1.0000
  C   C35       1.0  0.05765958333136334  0.7887561339042766  0.09124026971765997  1.0000
  C   C36       1.0  0.12910903321954104  0.837053449528553  0.11969693198844332  1.0000
  C   C37       1.0  0.13640598519895453  0.935240354239818  0.20560626735056475  1.0000
  C   C38       1.0  0.2097790425602959  0.9833751223067397  0.23500473221853732  1.0000
  N   N4        1.0  0.2687627135751718  0.02206443602722574  0.2586340228589243  1.0000
  C   C39       1.0  0.07226066144929955  0.9865303642256777  0.26279230678687443  1.0000
  C   C40       1.0  0.0010618318791604192  0.9402507449447205  0.23382370325297153  1.0000
  H   H20       1.0  0.7940917242357026  0.26406648877297356  0.372982546077425  1.0000
  H   H21       1.0  0.9837649919312837  0.5731585336536571  0.22065089435028779  1.0000
  H   H22       1.0  0.9825511174583034  0.5749257851244487  0.8035540520252122  1.0000
  H   H23       1.0  0.8291544641708848  0.3243792225479356  0.038797466187017626  1.0000
  H   H24       1.0  0.8806484388663125  0.4064713396140016  0.5834962356568226  1.0000
  H   H25       1.0  0.17904633527501934  0.7975486111704817  0.07598664989696768  1.0000
  H   H26       1.0  0.07728540923422854  0.06252872804732545  0.3292624855148152  1.0000
  H   H27       1.0  0.9514989874333742  0.9807433633617346  0.2773681056163277  1.0000
  H   H28       1.0  0.937808524693103  0.8095803571945279  0.12547265352031167  1.0000
  Zn  Zn1       1.0  0.8201152877765754  0.441729095707466  0.5298513516335712  1.0000
  Zn  Zn2       1.0  0.9847473908599014  0.4457287292253471  0.522209381816839  1.0000
  C   C41       1.0  0.9024164638677642  0.43846675977071947  0.763235916610004  1.0000
  C   C42       1.0  0.9024480128215112  0.4489927473811008  0.28882486137027663  1.0000
  C   C43       1.0  0.902472510140247  0.6809191337885432  0.5209286585435573  1.0000
  C   C44       1.0  0.9023919100966307  0.2065388116972389  0.5311321908035629  1.0000
  O   O3        1.0  0.9649208467378694  0.45222339555744884  0.33431365696663407  1.0000
  O   O4        1.0  0.9648955867194083  0.438270761324012  0.7119466685780237  1.0000
  O   O5        1.0  0.9649400024825443  0.6340540986047056  0.5162818828383824  1.0000
  O   O6        1.0  0.9648763748050848  0.25644006623851645  0.5299783479373217  1.0000
  O   O7        1.0  0.8399862476505358  0.6310177573308346  0.5220823881140861  1.0000
  O   O8        1.0  0.8399418321589412  0.43523598035271793  0.7177471050878861  1.0000
  O   O9        1.0  0.839967092324185  0.4491885699175566  0.3401125319817484  1.0000
  O   O10       1.0  0.8399226203801926  0.2534052312734014  0.5357773203223888  1.0000
