data_image0
_chemical_formula_structural       NC12NC2H8C6NCH9C6NH7Zn2C4O8
_chemical_formula_sum              "N4 C31 H24 Zn2 O8"
_cell_length_a       19.240039667572717
_cell_length_b       9.273386996610926
_cell_length_c       9.274774538082514
_cell_angle_alpha    84.97283399596293
_cell_angle_beta     90.34966360595384
_cell_angle_gamma    89.39858615406628

_space_group_name_H-M_alt    "P 1"
_space_group_IT_number       1

loop_
  _space_group_symop_operation_xyz
  'x, y, z'

loop_
  _atom_site_type_symbol
  _atom_site_label
  _atom_site_symmetry_multiplicity
  _atom_site_fract_x
  _atom_site_fract_y
  _atom_site_fract_z
  _atom_site_occupancy
  N   N1        1.0  0.6417281371071298  0.5927571388714379  0.4054227276382109  1.0000
  C   C1        1.0  0.5815797675455224  0.5927572329591579  0.40542263642899057  1.0000
  C   C2        1.0  0.5067617292889508  0.5927573645808013  0.40542248362862887  1.0000
  C   C3        1.0  0.47099381836837856  0.5201417307185232  0.5204621555890552  1.0000
  C   C4        1.0  0.3983239812009101  0.5200177153599155  0.5205585311035226  1.0000
  C   C5        1.0  0.36042949307537164  0.5927574696160463  0.4054222304352242  1.0000
  C   C6        1.0  0.3969106829307235  0.6654974297094376  0.29028614562701915  1.0000
  C   C7        1.0  0.4695822840582639  0.6653731515498198  0.2903826577023462  1.0000
  C   C8        1.0  0.2832244027616246  0.592757383156211  0.405422124539695  1.0000
  C   C9        1.0  0.24681267587911968  0.4665313240310666  0.4521574238932613  1.0000
  C   C10       1.0  0.17414108308538878  0.4666509632356244  0.4520557401161995  1.0000
  C   C11       1.0  0.136892116767202  0.5927572390691092  0.40542219246259803  1.0000
  C   C12       1.0  0.0620740810772468  0.5927571103044296  0.4054224690083039  1.0000
  N   N2        1.0  0.0019257651464071024  0.5927570629350114  0.40542270070187736  1.0000
  C   C13       1.0  0.1725906607035551  0.7188635996512036  0.358788585894237  1.0000
  C   C14       1.0  0.24526045095903523  0.7189834405256379  0.35868672109910577  1.0000
  H   H1        1.0  0.4992573799583195  0.46391456641750284  0.6102811043724432  1.0000
  H   H2        1.0  0.3717785821473815  0.46466633155508835  0.6116157282214173  1.0000
  H   H3        1.0  0.3692695508752089  0.7208488440591412  0.19922889195171845  1.0000
  H   H4        1.0  0.4967484954106122  0.7216002017984837  0.20056401559562298  1.0000
  H   H5        1.0  0.2745109128772482  0.36718741890999906  0.48695480993972917  1.0000
  H   H6        1.0  0.14702957240813394  0.3682959437342989  0.48799946452883697  1.0000
  H   H7        1.0  0.1442723481193338  0.8172185917537881  0.32284487769586456  1.0000
  H   H8        1.0  0.2717486921841466  0.8183274340370548  0.32388928515490534  1.0000
  C   C15       1.0  0.8239696973496848  0.16909695193124952  0.40613191103487745  1.0000
  C   C16       1.0  0.8357836860949348  0.25370869506516613  0.27563592633833345  1.0000
  C   C17       1.0  0.8410535417393793  0.1903420207185491  0.14513187611162692  1.0000
  C   C18       1.0  0.8345850571133487  0.04007047764328919  0.14178712519315728  1.0000
  C   C19       1.0  0.8239945429945186  0.9544997666774226  0.271829795865445  1.0000
  C   C20       1.0  0.8196909572497024  0.016406049305960794  0.40472600663677016  1.0000
  N   N3        1.0  0.8392593152414268  0.9716908370157238  0.008588689888695987  1.0000
  C   C21       1.0  0.8504169986791976  0.050813537561256616  0.8677485797337402  1.0000
  H   H9        1.0  0.8388771169691928  0.42917870166985006  0.6430813803531998  1.0000
  H   H10       1.0  0.8393233966817442  0.3703700040548574  0.273865253575863  1.0000
  H   H11       1.0  0.8495257243384222  0.2597976667847517  0.04709682246580127  1.0000
  H   H12       1.0  0.8207071540742442  0.8381185202710064  0.2695529874986531  1.0000
  H   H13       1.0  0.8463315418722133  0.8819836027227662  0.7562496270489363  1.0000
  H   H14       1.0  0.8343544851811472  0.8592976584905277  0.011581512892947284  1.0000
  H   H15       1.0  0.8072552053180059  0.12960542777782091  0.8426723594394971  1.0000
  H   H16       1.0  0.9007241030021407  0.10836325151609727  0.8679814640854087  1.0000
  H   H17       1.0  0.8519138818560659  0.974120834878513  0.7823062944482119  1.0000
  C   C22       1.0  0.8205643649822311  0.5964414454919464  0.9816065075279633  1.0000
  C   C23       1.0  0.8693830381345317  0.681578275177562  0.04820173871193334  1.0000
  C   C24       1.0  0.9213798452216093  0.754830935133317  0.9673152622876149  1.0000
  C   C25       1.0  0.9249804251923239  0.7432789926241545  0.8183570144024458  1.0000
  C   C26       1.0  0.8763686901206132  0.6613203003279844  0.7500539471430975  1.0000
  C   C27       1.0  0.8230962978752061  0.5890615351856414  0.8292513788101276  1.0000
  N   N4        1.0  0.9709974329938627  0.8397670528201255  0.03691607148382214  1.0000
  H   H18       1.0  0.7180983123732662  0.3144177112125577  0.10799480518047709  1.0000
  H   H19       1.0  0.8680973950847454  0.688420637388784  0.16421051484003746  1.0000
  H   H20       1.0  0.9651299879289865  0.7990193810042273  0.7547337449565269  1.0000
  H   H21       1.0  0.8794882361334567  0.6573072427161455  0.6338875557727354  1.0000
  H   H22       1.0  0.7519250582705748  0.4035006488495536  0.5634775134657983  1.0000
  H   H23       1.0  0.9689334504123418  0.848814213336033  0.148270982902311  1.0000
  H   H24       1.0  0.010149541898851974  0.8943729233933121  0.9775833694020982  1.0000
  Zn  Zn1       1.0  0.745673445342078  0.5927531928125209  0.4054310482843185  1.0000
  Zn  Zn2       1.0  0.8979805702929694  0.5927491382200152  0.40542617833910616  1.0000
  C   C28       1.0  0.8226451847938815  0.584709123429761  0.6690378863572115  1.0000
  C   C29       1.0  0.8210104852610899  0.6007950266564133  0.14181947884843393  1.0000
  C   C30       1.0  0.8204789851161391  0.8562966805851383  0.39924046375517874  1.0000
  C   C31       1.0  0.8231766419498308  0.3292057355031046  0.4116169812744169  1.0000
  O   O1        1.0  0.878959999249136  0.6022482955357946  0.19558657791196032  1.0000
  O   O2        1.0  0.880293258751601  0.5832516924586488  0.6152666774617508  1.0000
  O   O3        1.0  0.8785432504307197  0.8025620665101891  0.39740334738489225  1.0000
  O   O4        1.0  0.8807099552225578  0.38293793274823024  0.41344979975905893  1.0000
  O   O5        1.0  0.7629440084375123  0.8025643982873262  0.3974074268584337  1.0000
  O   O6        1.0  0.7646940077724175  0.5832557582367366  0.6152706771054096  1.0000
  O   O7        1.0  0.7633607433869211  0.6022523261466772  0.19558884242513172  1.0000
  O   O8        1.0  0.7651106997328251  0.38294195209815673  0.41345217249605887  1.0000
