data_image0
_chemical_formula_structural       NC8NH4C9H10C7ONH5Zn2C4O8
_chemical_formula_sum              "N3 C28 H19 O9 Zn2"
_cell_length_a       13.859017124695912
_cell_length_b       10.297183801781406
_cell_length_c       9.273042158839658
_cell_angle_alpha    86.13565984305119
_cell_angle_beta     90.09322216123502
_cell_angle_gamma    89.9976557662862

_space_group_name_H-M_alt    "P 1"
_space_group_IT_number       1

loop_
  _space_group_symop_operation_xyz
  'x, y, z'

loop_
  _atom_site_type_symbol
  _atom_site_label
  _atom_site_symmetry_multiplicity
  _atom_site_fract_x
  _atom_site_fract_y
  _atom_site_fract_z
  _atom_site_occupancy
  N   N1        1.0  0.906815057936685  0.4065969885271643  0.409406469319672  1.0000
  C   C1        1.0  0.8344000617202209  0.38547338862990116  0.3532544089247893  1.0000
  C   C2        1.0  0.7443201101058189  0.35919871201729703  0.2834084623097288  1.0000
  C   C3        1.0  0.6567782668500377  0.3848138475515774  0.3514994722647131  1.0000
  C   C4        1.0  0.5690897895811574  0.35919981071222495  0.283407882458109  1.0000
  C   C5        1.0  0.5691255419663187  0.3079636844356246  0.14720438120004678  1.0000
  C   C6        1.0  0.6564851073121224  0.2824470030769655  0.07937547184119875  1.0000
  C   C7        1.0  0.7439909021894379  0.30796157928257434  0.14720556060788526  1.0000
  C   C8        1.0  0.4791602224339992  0.3854742185211288  0.35325391049134597  1.0000
  N   N2        1.0  0.40686618328082  0.4065972770769104  0.4094062531657727  1.0000
  H   H1        1.0  0.6568917966714268  0.4244725914865548  0.45692424501250223  1.0000
  H   H2        1.0  0.5017723868725649  0.287803582809258  0.0936093015772257  1.0000
  H   H3        1.0  0.6563718734161738  0.24286925119201497  0.9741642017211173  1.0000
  H   H4        1.0  0.8112286059878625  0.28779959485346024  0.09361148115956874  1.0000
  C   C9        1.0  0.15684883693648555  0.02512352270621477  0.40961060041273933  1.0000
  C   C10       1.0  0.1538706688101832  0.03354483627235494  0.2579374408299113  1.0000
  C   C11       1.0  0.15234464300432116  0.9212428340850772  0.1802308457831967  1.0000
  C   C12       1.0  0.1538587243265073  0.798368167370152  0.25734957812239223  1.0000
  C   C13       1.0  0.1568416657678542  0.7880608929236025  0.4092145820876647  1.0000
  C   C14       1.0  0.15831633407896395  0.9019052957576533  0.4843537531959099  1.0000
  C   C15       1.0  0.14912327691799174  0.9397832741571966  0.016185613823529902  1.0000
  C   C16       1.0  0.09253704618273839  0.8403052602979377  0.9359496483804058  1.0000
  C   C17       1.0  0.20245834176591693  0.8405701108808623  0.9313708145122234  1.0000
  H   H5        1.0  0.15800558259978437  0.3494169744685409  0.4680551337384909  1.0000
  H   H6        1.0  0.1527211342230419  0.12821829326822146  0.1993832331838752  1.0000
  H   H7        1.0  0.15273877122574064  0.7102284796876347  0.2004214094942374  1.0000
  H   H8        1.0  0.1606135697089861  0.8946806326340252  0.6013727808419063  1.0000
  H   H9        1.0  0.16246278483923968  0.5613769038454113  0.6960448128600181  1.0000
  H   H10       1.0  0.14808875907331576  0.039998705444982165  0.9634585924477205  1.0000
  H   H11       1.0  0.06041088561765173  0.757289909768373  0.001543536066834774  1.0000
  H   H12       1.0  0.05838512953580711  0.8802109185352958  0.8339719272302677  1.0000
  H   H13       1.0  0.23710346629232681  0.7577164497087235  0.9941840589436858  1.0000
  H   H14       1.0  0.23255058351443236  0.880628182686314  0.8267156365877503  1.0000
  C   C18       1.0  0.15638388647419535  0.40257742725942147  0.9861497849608081  1.0000
  C   C19       1.0  0.06776095507683677  0.41084951891459337  0.05882633485570855  1.0000
  C   C20       1.0  0.9808803250673742  0.43168682302825784  0.9825593932053317  1.0000
  C   C21       1.0  0.9831575787692356  0.4426829782395307  0.8310549845112267  1.0000
  C   C22       1.0  0.07020093475957756  0.4325036285066251  0.757369994539038  1.0000
  C   C23       1.0  0.1573066286435736  0.4106069509014221  0.832675455684607  1.0000
  C   C24       1.0  0.8886769562275852  0.44065460546930396  0.06241479642288029  1.0000
  O   O1        1.0  0.8822312586925256  0.39038433040782006  0.1898115128762714  1.0000
  N   N3        1.0  0.8066019255053563  0.506558272088625  0.9988441612189587  1.0000
  H   H15       1.0  0.39048478839688916  0.45219707324429376  0.08608399161013192  1.0000
  H   H16       1.0  0.9175422773543451  0.4555269552087696  0.7684252118323873  1.0000
  H   H17       1.0  0.3150982643423357  0.4380009877335809  0.5497393895205263  1.0000
  H   H18       1.0  0.8112481774351221  0.5626543058892659  0.9011492152712552  1.0000
  H   H19       1.0  0.7413855383494317  0.506412016018555  0.055086724984513724  1.0000
  Zn  Zn1       1.0  0.05111902313119154  0.406593682505279  0.40941473668592554  1.0000
  Zn  Zn2       1.0  0.2625622234362961  0.40659009839261584  0.40940981307876  1.0000
  C   C25       1.0  0.1571300816763037  0.40391412655677095  0.6726666402072863  1.0000
  C   C26       1.0  0.1565534739831147  0.40927129471356904  0.14615805012172212  1.0000
  C   C27       1.0  0.15683178052545288  0.6437950062425553  0.4035457904721369  1.0000
  C   C28       1.0  0.15685170308164498  0.1693888550267115  0.4152789775132104  1.0000
  O   O2        1.0  0.23685198172399047  0.4115107903305546  0.19985642006152515  1.0000
  O   O3        1.0  0.23731207006135935  0.4016709267539924  0.618964118958673  1.0000
  O   O4        1.0  0.23707010804807216  0.5953777850422177  0.4016471280469973  1.0000
  O   O5        1.0  0.23709387146815097  0.21780394031123573  0.4171733028986475  1.0000
  O   O6        1.0  0.07658730294414084  0.5953798405892247  0.40165124686013565  1.0000
  O   O7        1.0  0.07682926485455323  0.40167454230463795  0.6189681601095705  1.0000
  O   O8        1.0  0.07636917469289872  0.4115143441754939  0.19985872831319185  1.0000
  O   O9        1.0  0.07661106455099076  0.217807485889834  0.417175719218966  1.0000
