data_image0
_chemical_formula_structural       NC6NC3H6C9H6C7NH4Zn2C4O8
_chemical_formula_sum              "N3 C29 H16 Zn2 O8"
_cell_length_a       14.934028789175542
_cell_length_b       9.275152443626249
_cell_length_c       9.275157849593905
_cell_angle_alpha    85.91609934181939
_cell_angle_beta     89.71635168279133
_cell_angle_gamma    90.53595971611534

_space_group_name_H-M_alt    "P 1"
_space_group_IT_number       1

loop_
  _space_group_symop_operation_xyz
  'x, y, z'

loop_
  _atom_site_type_symbol
  _atom_site_label
  _atom_site_symmetry_multiplicity
  _atom_site_fract_x
  _atom_site_fract_y
  _atom_site_fract_z
  _atom_site_occupancy
  N   N1        1.0  0.8573824006387263  0.5625567086626715  0.4044529794196652  1.0000
  C   C1        1.0  0.7798913541171185  0.5614516961807983  0.40377812608732677  1.0000
  C   C2        1.0  0.6834885634225337  0.560071981842146  0.4029356983084975  1.0000
  C   C3        1.0  0.6362133300248655  0.6675240254602237  0.46843756168045586  1.0000
  C   C4        1.0  0.5426965809657378  0.6664162207063957  0.46776212424735414  1.0000
  C   C5        1.0  0.49554276440548156  0.5579112100161876  0.4016184513296117  1.0000
  C   C6        1.0  0.3989075520023224  0.5602393070566032  0.40303892479167747  1.0000
  N   N2        1.0  0.3214358086040731  0.5620869487389952  0.4041665778248986  1.0000
  C   C7        1.0  0.5428056865060414  0.4489725855325057  0.3352098292508696  1.0000
  C   C8        1.0  0.493954416018853  0.331005096198173  0.26329913820317996  1.0000
  C   C9        1.0  0.6369586306659203  0.4512107977645621  0.33657427670084306  1.0000
  H   H1        1.0  0.6716415746622407  0.7521862742854082  0.5200475433089986  1.0000
  H   H2        1.0  0.5070419236752255  0.7504264460709733  0.5189744945290113  1.0000
  H   H3        1.0  0.45175385902476567  0.3792358304513075  0.174547927897172  1.0000
  H   H4        1.0  0.45059815603684106  0.268912937034268  0.3436071679011823  1.0000
  H   H5        1.0  0.5410667312471683  0.2545957838247379  0.21671424516708182  1.0000
  H   H6        1.0  0.6741114156980201  0.3683181615749138  0.28604346883889464  1.0000
  C   C10       1.0  0.08676789085245207  0.13870637516693463  0.4057826589233504  1.0000
  C   C11       1.0  0.054802351320496476  0.22029846714674248  0.2833732952099499  1.0000
  C   C12       1.0  0.031166523949551092  0.15367929448747097  0.1586666122488527  1.0000
  C   C13       1.0  0.039126513489404546  0.004283416386694266  0.1539000768366645  1.0000
  C   C14       1.0  0.06934389769912097  0.9209949775841869  0.2752758350824611  1.0000
  C   C15       1.0  0.09205882560790246  0.9859263050129724  0.40284933979729476  1.0000
  C   C16       1.0  0.015221590491108597  0.9359136151672047  0.02475811091715729  1.0000
  C   C17       1.0  0.9952068307864381  0.8786364555499501  0.9166219613327611  1.0000
  C   C18       1.0  0.9709228827195938  0.8091287517198825  0.7854177084752219  1.0000
  H   H7        1.0  0.21464262716350502  0.2230015289707372  0.6935095618356271  1.0000
  H   H8        1.0  0.007482361184176111  0.21904371978308143  0.06534785041687807  1.0000
  H   H9        1.0  0.17527413325671326  0.6924394107199559  0.599647502328005  1.0000
  H   H10       1.0  0.9872552917659114  0.6925201120136175  0.7988706663702057  1.0000
  H   H11       1.0  0.898097065235679  0.8215949457506739  0.7657340143044151  1.0000
  H   H12       1.0  0.008993802040099473  0.860539935837647  0.692113452584453  1.0000
  C   C19       1.0  0.09057604261513535  0.5582375612995778  0.9811316315050882  1.0000
  C   C20       1.0  0.16804839916095737  0.6051863556089425  0.05061720952535719  1.0000
  C   C21       1.0  0.24099829168537784  0.6634830675511371  0.9704921520509626  1.0000
  C   C22       1.0  0.23732780633202677  0.6757580939807966  0.8197930316846511  1.0000
  C   C23       1.0  0.16168911038644662  0.6276393045047777  0.7489688199094227  1.0000
  C   C24       1.0  0.08825069111788486  0.5663950473440889  0.82750043384255  1.0000
  C   C25       1.0  0.3193608177112457  0.7124399130400543  0.04327782509186307  1.0000
  N   N3        1.0  0.38234421954102715  0.75178801492593  0.10178524886051088  1.0000
  H   H13       1.0  0.872404503152323  0.5098197361909034  0.0892721084794148  1.0000
  H   H14       1.0  0.2933711286234879  0.7213316505301233  0.7567778383606036  1.0000
  H   H15       1.0  0.16153838370285137  0.6352236347072266  0.6318782442995348  1.0000
  H   H16       1.0  0.9422575664807585  0.5277382708644587  0.5503182406551237  1.0000
  Zn  Zn1       1.0  0.9912981565980192  0.5624173606403153  0.404378659011315  1.0000
  Zn  Zn2       1.0  0.18751997654462893  0.562214593736375  0.4042527210468747  1.0000
  C   C26       1.0  0.08865232448587967  0.5591063412066122  0.6675384803283615  1.0000
  C   C27       1.0  0.09016796237118752  0.5655274324586705  0.14109303349542301  1.0000
  C   C28       1.0  0.09106988910352976  0.8257283320608226  0.3976612245899853  1.0000
  C   C29       1.0  0.08775031976207281  0.2989037092672808  0.41097037210770226  1.0000
  O   O1        1.0  0.16449612566219884  0.5678907374597442  0.19472977025684934  1.0000
  O   O2        1.0  0.16325197661405777  0.5565880485664685  0.6138057484970734  1.0000
  O   O3        1.0  0.16520318267420278  0.7718886935562359  0.3958779505130847  1.0000
  O   O4        1.0  0.1625448530061513  0.3525901018170974  0.41265746019670013  1.0000
  O   O5        1.0  0.01627321317565089  0.7720418526302844  0.3959739198968808  1.0000
  O   O6        1.0  0.01432201814612343  0.5567429400483885  0.6139016350423578  1.0000
  O   O7        1.0  0.01556617170016183  0.5680455619730895  0.19482392437454288  1.0000
  O   O8        1.0  0.013614898679170203  0.35274491705401423  0.41275172239392344  1.0000
