data_image0
_chemical_formula_structural       NC6NC3H6C9H8C7OH6Zn2C4O8
_chemical_formula_sum              "N2 C29 H20 O9 Zn2"
_cell_length_a       14.934028789175542
_cell_length_b       9.275152443626249
_cell_length_c       9.274074313596557
_cell_angle_alpha    85.92156872667384
_cell_angle_beta     90.20908406498742
_cell_angle_gamma    90.53595971611534

_space_group_name_H-M_alt    "P 1"
_space_group_IT_number       1

loop_
  _space_group_symop_operation_xyz
  'x, y, z'

loop_
  _atom_site_type_symbol
  _atom_site_label
  _atom_site_symmetry_multiplicity
  _atom_site_fract_x
  _atom_site_fract_y
  _atom_site_fract_z
  _atom_site_occupancy
  N   N1        1.0  0.8488588369013879  0.5622743464770024  0.4042955932639483  1.0000
  C   C1        1.0  0.7713641852491784  0.5611692145670835  0.40362067336348506  1.0000
  C   C2        1.0  0.6749568942253812  0.5597893511449221  0.4027781624868421  1.0000
  C   C3        1.0  0.6280315780035552  0.6672529865550737  0.46828648701997966  1.0000
  C   C4        1.0  0.5345112206935033  0.666145062269833  0.4676109829611374  1.0000
  C   C5        1.0  0.4870040583498484  0.5576283462072278  0.40146078557356013  1.0000
  C   C6        1.0  0.3903764342508475  0.5599566946272552  0.40288139915237275  1.0000
  N   N2        1.0  0.31291071488221206  0.5618045358691532  0.40400916341827653  1.0000
  C   C7        1.0  0.5339122192834258  0.4486779694633902  0.33504561289016666  1.0000
  C   C8        1.0  0.48467679505420647  0.33069775417386094  0.26312782850892247  1.0000
  C   C9        1.0  0.6280724524511845  0.45091642316019703  0.33641019493043145  1.0000
  H   H1        1.0  0.6637355280649762  0.7519243687414359  0.5199015595023171  1.0000
  H   H2        1.0  0.49913014474945416  0.75016435063075  0.5188284048758582  1.0000
  H   H3        1.0  0.44200212066461075  0.3789127822237934  0.17436786370578905  1.0000
  H   H4        1.0  0.4417495481949184  0.2686198070328547  0.343443779861319  1.0000
  H   H5        1.0  0.5315402493590466  0.2542801977235998  0.21653834029816912  1.0000
  H   H6        1.0  0.6649552971080056  0.368014844589555  0.2858744026653335  1.0000
  C   C10       1.0  0.07825143038932245  0.13842424829317168  0.405625403928384  1.0000
  C   C11       1.0  0.04563196840932893  0.21999467762371983  0.2832039656481229  1.0000
  C   C12       1.0  0.021329946092712535  0.15335343576115013  0.1584849815105822  1.0000
  C   C13       1.0  0.029264472347643605  0.003956714131891023  0.15371797592316616  1.0000
  C   C14       1.0  0.06013025738681341  0.9206897550626306  0.2751057067800744  1.0000
  C   C15       1.0  0.08352669507537985  0.985643659032979  0.40269179545716005  1.0000
  C   C16       1.0  0.004669660700826527  0.9355640588020006  0.02456327132701941  1.0000
  C   C17       1.0  0.9840772274137392  0.8782677624503517  0.9164164550981075  1.0000
  C   C18       1.0  0.9590923737656644  0.8087368395492517  0.7851992601381395  1.0000
  H   H7        1.0  0.20766323114553864  0.222770320807695  0.6933806884743958  1.0000
  H   H8        1.0  0.0409139638731606  0.336512489870161  0.2827535279790758  1.0000
  H   H9        1.0  0.9971472656377267  0.21870134653903417  0.0651570146341991  1.0000
  H   H10       1.0  0.06388987103620947  0.8043364492308217  0.271082821600209  1.0000
  H   H11       1.0  0.16779331720134788  0.6921915918924002  0.5995093703310062  1.0000
  H   H12       1.0  0.9754966497908897  0.6921305805980168  0.7986535450446732  1.0000
  H   H13       1.0  0.8861614041178288  0.8211995501785286  0.765513624350497  1.0000
  H   H14       1.0  0.9966648528886753  0.86013151171639  0.6918858006338398  1.0000
  C   C19       1.0  0.07979105602796287  0.5578802844047241  0.980932488560807  1.0000
  C   C20       1.0  0.001983032960080288  0.6005475516322121  0.05072206787566036  1.0000
  C   C21       1.0  0.9286565605540311  0.6548035428017136  0.9713976983234871  1.0000
  C   C22       1.0  0.9314239512011272  0.6678351632106918  0.8200709059484037  1.0000
  C   C23       1.0  0.008012126049687703  0.6234275321413771  0.749148217383377  1.0000
  C   C24       1.0  0.08198703163937981  0.5661875445493234  0.8273847987988412  1.0000
  C   C25       1.0  0.8547625002212481  0.7260615452662114  0.7345263986630179  1.0000
  O   O1        1.0  0.7848446337576098  0.7663255308878847  0.7951368166239612  1.0000
  H   H15       1.0  0.2983480977151741  0.5209061425931456  0.0877132684836166  1.0000
  H   H16       1.0  0.998625567634205  0.5951572642882035  0.1676623793395866  1.0000
  H   H17       1.0  0.870110514747958  0.6878861806850016  0.028721271024470866  1.0000
  H   H18       1.0  0.009093235236453669  0.6304172687416463  0.6319667077056432  1.0000
  H   H19       1.0  0.2288654328217434  0.5360563460850962  0.5499320119352533  1.0000
  H   H20       1.0  0.8579966469038408  0.7348144258369065  0.6176245998393086  1.0000
  Zn  Zn1       1.0  0.9827741958340009  0.562134985302246  0.40422126552456716  1.0000
  Zn  Zn2       1.0  0.17899534300804165  0.5619321961112034  0.4040953151374962  1.0000
  C   C26       1.0  0.08153418848363224  0.5588705369700953  0.6674070451569014  1.0000
  C   C27       1.0  0.08023750478741748  0.5651984637556189  0.14090966928395088  1.0000
  C   C28       1.0  0.0825100431667753  0.8254447679458375  0.39750316848962197  1.0000
  C   C29       1.0  0.07926157255553057  0.29862250045736327  0.41081362883330863  1.0000
  O   O2        1.0  0.1548522006209061  0.5675712607904773  0.19455169682007445  1.0000
  O   O3        1.0  0.1558467952545518  0.5563427353080259  0.6136690130818787  1.0000
  O   O4        1.0  0.15663381031794488  0.7716048138572165  0.39571971850900467  1.0000
  O   O5        1.0  0.154065118384429  0.3523091915692871  0.41250088333815316  1.0000
  O   O6        1.0  0.007704353496956744  0.771757989914861  0.3958156973593048  1.0000
  O   O7        1.0  0.006917349021650305  0.5564976437588816  0.6137649090854957  1.0000
  O   O8        1.0  0.005922749639109433  0.5677261019661719  0.19464586022521302  1.0000
  O   O9        1.0  0.005135667615058684  0.35246402348768013  0.4125951548334821  1.0000
