data_image0
_chemical_formula_structural       NC8NH4C7NH5C6H6Zn2C4O8
_chemical_formula_sum              "N3 C25 H15 Zn2 O8"
_cell_length_a       13.859017981522156
_cell_length_b       9.275154477615127
_cell_length_c       10.68112160042829
_cell_angle_alpha    85.78691594316618
_cell_angle_beta     89.99986217780584
_cell_angle_gamma    89.43373755438122

_space_group_name_H-M_alt    "P 1"
_space_group_IT_number       1

loop_
  _space_group_symop_operation_xyz
  'x, y, z'

loop_
  _atom_site_type_symbol
  _atom_site_label
  _atom_site_symmetry_multiplicity
  _atom_site_fract_x
  _atom_site_fract_y
  _atom_site_fract_z
  _atom_site_occupancy
  N   N1        1.0  0.898155585994489  0.5778883935936727  0.6240999370397933  1.0000
  C   C1        1.0  0.8258475940524646  0.5708594172246408  0.5708084045234809  1.0000
  C   C2        1.0  0.735900718305866  0.5621166626792706  0.5045206737290162  1.0000
  C   C3        1.0  0.7358312629571387  0.5450674255389159  0.37525634521538187  1.0000
  C   C4        1.0  0.6484548947263304  0.5365779355357765  0.31088244238259577  1.0000
  C   C5        1.0  0.5609659756154362  0.5450691475217644  0.37525613543455894  1.0000
  C   C6        1.0  0.5606704749798573  0.5621176357379933  0.5045205174111995  1.0000
  C   C7        1.0  0.6482291662784353  0.570640309720744  0.569142990927487  1.0000
  C   C8        1.0  0.4706077713087666  0.5708603207861445  0.5708081987635809  1.0000
  N   N2        1.0  0.3982066682558171  0.5778887070097269  0.6240998567997977  1.0000
  H   H1        1.0  0.8031712109720668  0.5383584090214324  0.3243921944084134  1.0000
  H   H2        1.0  0.6485421495125197  0.5234083922859782  0.21103131155145996  1.0000
  H   H3        1.0  0.4937149207589042  0.5383615060942188  0.3243918402371777  1.0000
  H   H4        1.0  0.6481417276624952  0.5838364022453215  0.6691971249493509  1.0000
  C   C9        1.0  0.15097790849172088  0.1544992698196197  0.6226507668561434  1.0000
  C   C10       1.0  0.1244929232381702  0.23767832800342847  0.5122368255198337  1.0000
  C   C11       1.0  0.09015961550386109  0.17163987154101656  0.40767167684755395  1.0000
  C   C12       1.0  0.08174597949332198  0.02151934130350464  0.4122889881793448  1.0000
  C   C13       1.0  0.10912525101493165  0.9371326085109041  0.5201861313964953  1.0000
  C   C14       1.0  0.1453936652455879  0.0012667842844302699  0.625559849059613  1.0000
  C   C15       1.0  0.062390933003224625  0.25840074105546584  0.2959269597584997  1.0000
  N   N3        1.0  0.04007261482284898  0.32814057411229003  0.2061128303706783  1.0000
  H   H5        1.0  0.16968673476908902  0.23117036371726657  0.930041493955075  1.0000
  H   H6        1.0  0.1284334541953005  0.3546377307432742  0.5085211360047228  1.0000
  H   H7        1.0  0.05484454390569173  0.9693927410081112  0.33192410429932995  1.0000
  H   H8        1.0  0.10405854204717606  0.8206650089676778  0.5200759242682458  1.0000
  H   H9        1.0  0.16208539891849627  0.702496566125451  0.8315203791355388  1.0000
  C   C16       1.0  0.14818580569053563  0.5778829959719727  0.25636006097885145  1.0000
  C   C17       1.0  0.07965199333954436  0.49769667891808483  0.19466210336632872  1.0000
  C   C18       1.0  0.07965193248718876  0.4976967713659668  0.06377996373104722  1.0000
  C   C19       1.0  0.14818572937162316  0.5778830666476045  0.991850496898012  1.0000
  C   C20       1.0  0.216662977655387  0.6580029332586448  0.053547645882043415  1.0000
  C   C21       1.0  0.21666296545786717  0.6580029109018914  0.1844399444682847  1.0000
  H   H10       1.0  0.2174916519860213  0.6589733952360042  0.5498963792239198  1.0000
  H   H11       1.0  0.025931955861281383  0.43484285383625904  0.24748301206705103  1.0000
  H   H12       1.0  0.025931935262124783  0.43484292170307715  0.018978983074676496  1.0000
  H   H13       1.0  0.27039002979966376  0.7208650408563637  0.0007711010025390719  1.0000
  H   H14       1.0  0.2703899815182056  0.7208649903140152  0.22919546831331505  1.0000
  H   H15       1.0  0.217491956443306  0.6589728929155823  0.6879673517847307  1.0000
  Zn  Zn1       1.0  0.042459558019561715  0.5778846339743458  0.6241071290691376  1.0000
  Zn  Zn2       1.0  0.2539027765117061  0.5778807030313242  0.624102870605721  1.0000
  C   C22       1.0  0.1482214956316752  0.5721392970860664  0.8528073392438524  1.0000
  C   C23       1.0  0.14814313585593936  0.5836278590442927  0.3954027895471508  1.0000
  C   C24       1.0  0.14644423567509723  0.8412096799110031  0.6200196412613086  1.0000
  C   C25       1.0  0.14992033508534752  0.31455574399929875  0.628190548345364  1.0000
  O   O1        1.0  0.22837045642308357  0.5855481057891294  0.4420651617518718  1.0000
  O   O2        1.0  0.22847469261000564  0.5702149791751441  0.806141370736182  1.0000
  O   O3        1.0  0.22703845102333123  0.787492716185888  0.6181636627757354  1.0000
  O   O4        1.0  0.22980662579049826  0.3682703790935691  0.6300427758530633  1.0000
  O   O5        1.0  0.06655563658556551  0.7874949579150119  0.6181672238166667  1.0000
  O   O6        1.0  0.06799186674420653  0.5702189531272368  0.8061448709563156  1.0000
  O   O7        1.0  0.06788763095288353  0.585552029498738  0.4420671561768137  1.0000
  O   O8        1.0  0.06932380038435437  0.36827429249090615  0.6300448641321319  1.0000
