data_image0
_chemical_formula_structural       NC12NC2H8C7OC4NC3H8C7OC6H10Zn2C4O8
_chemical_formula_sum              "N3 C45 H26 O10 Zn2"
_cell_length_a       17.80743265337812
_cell_length_b       10.299371701877257
_cell_length_c       10.299382801718286
_cell_angle_alpha    85.59153606020502
_cell_angle_beta     91.51478421497153
_cell_angle_gamma    89.44495547056906

_space_group_name_H-M_alt    "P 1"
_space_group_IT_number       1

loop_
  _space_group_symop_operation_xyz
  'x, y, z'

loop_
  _atom_site_type_symbol
  _atom_site_label
  _atom_site_symmetry_multiplicity
  _atom_site_fract_x
  _atom_site_fract_y
  _atom_site_fract_z
  _atom_site_occupancy
  N   N1        1.0  0.7078312829454293  0.4063742530259147  0.6018924124016809  1.0000
  C   C1        1.0  0.6570275067726633  0.4359177526444645  0.53320635018269  1.0000
  C   C2        1.0  0.5938225925728652  0.47266772249566746  0.4477695357803131  1.0000
  C   C3        1.0  0.6055787831918956  0.5266602051429545  0.3211729733730071  1.0000
  C   C4        1.0  0.5442806150507491  0.5619071173812653  0.2381315212920001  1.0000
  C   C5        1.0  0.4710721051525763  0.5434248644340463  0.28102684353230956  1.0000
  C   C6        1.0  0.45833904047399054  0.4893136833407905  0.4080914932170489  1.0000
  C   C7        1.0  0.520494528167293  0.4540700213141374  0.4911164352055403  1.0000
  C   C8        1.0  0.380561668553723  0.4697179409940605  0.4538466249880322  1.0000
  C   C9        1.0  0.3617547538067654  0.49693292970149955  0.580898425724865  1.0000
  C   C10       1.0  0.2885162945328814  0.4784922592946548  0.6238343256788377  1.0000
  C   C11       1.0  0.2331415987301219  0.43258251634681705  0.5405562786918916  1.0000
  C   C12       1.0  0.15776621761904444  0.41358933426128025  0.5848928660952941  1.0000
  N   N2        1.0  0.0971697489585763  0.39832009323089634  0.6205364322955451  1.0000
  C   C13       1.0  0.25125690227168634  0.4051987369870207  0.4140473716217625  1.0000
  C   C14       1.0  0.32444255553892415  0.42365413524543927  0.3708555959157711  1.0000
  H   H1        1.0  0.6620523435367764  0.5414762474261612  0.2867423413943142  1.0000
  H   H2        1.0  0.5535010775484646  0.6039822471353509  0.14037052149768048  1.0000
  H   H3        1.0  0.4244479104688129  0.5730456735768255  0.2154486871498329  1.0000
  H   H4        1.0  0.5119723370934578  0.41060955129491816  0.5887524697457456  1.0000
  H   H5        1.0  0.4034225992065655  0.5341270855847  0.646484101956635  1.0000
  H   H6        1.0  0.27505684762403054  0.5003599740526641  0.7218492764675368  1.0000
  H   H7        1.0  0.2088722244271363  0.3692719596003222  0.3488751186433261  1.0000
  H   H8        1.0  0.3373734023818249  0.4002509376179082  0.2731433948160218  1.0000
  C   C15       1.0  0.9024648418406725  0.020977464500928408  0.6110857016771061  1.0000
  C   C16       1.0  0.9061419296611174  0.03021713778025958  0.4745994625688763  1.0000
  C   C17       1.0  0.9071435274418976  0.9177260953484035  0.4056563414681997  1.0000
  C   C18       1.0  0.9061511602086999  0.794948689490122  0.474917294485025  1.0000
  C   C19       1.0  0.9025433798148206  0.7837067465940035  0.6113546696306632  1.0000
  C   C20       1.0  0.9005234419170143  0.8973262457103001  0.6786241525039892  1.0000
  C   C21       1.0  0.9118152514460824  0.9273224847449595  0.2616327809412369  1.0000
  O   O1        1.0  0.9479836956801422  0.840817344748503  0.208419919757465  1.0000
  C   C22       1.0  0.8754434815053214  0.03497310041467005  0.1779804284756008  1.0000
  C   C23       1.0  0.9076420962660975  0.07892922702863836  0.05955428786272887  1.0000
  C   C24       1.0  0.8732510534513369  0.17952938236196125  0.97911813003673  1.0000
  C   C25       1.0  0.9069075340148245  0.22463899931334375  0.8585756932326736  1.0000
  N   N3        1.0  0.9339658434281124  0.2608975361995052  0.7616772161686267  1.0000
  C   C26       1.0  0.8061007184997162  0.23610432550451296  0.016073633960881125  1.0000
  C   C27       1.0  0.7732682658855722  0.1919503639320399  0.13272990533485518  1.0000
  C   C28       1.0  0.8074436103069071  0.09165214303153024  0.2131443367653609  1.0000
  H   H9        1.0  0.9090727192788411  0.12507050890087146  0.4218541781888027  1.0000
  H   H10       1.0  0.9074800833250491  0.708073918397439  0.42196966869740854  1.0000
  H   H11       1.0  0.8976890868701367  0.8893992326358021  0.7838453344968906  1.0000
  H   H12       1.0  0.9017897378857519  0.4519146190502875  0.6638428622809834  1.0000
  H   H13       1.0  0.9597472024615147  0.03575438345651616  0.030473112618021318  1.0000
  H   H14       1.0  0.7790303822409717  0.3138694661431025  0.9545389802117792  1.0000
  H   H15       1.0  0.7210351098715753  0.23514382953847157  0.16065196426836037  1.0000
  H   H16       1.0  0.780284651683038  0.05752067892849367  0.3019984313397989  1.0000
  C   C29       1.0  0.9025790432396135  0.4022673411394049  0.22985396262845192  1.0000
  C   C30       1.0  0.9815036150985698  0.4014981179271626  0.23233001561240108  1.0000
  C   C31       1.0  0.02131077779888813  0.3996220649369644  0.11652022620770186  1.0000
  C   C32       1.0  0.9813205499567331  0.4015299417690515  0.9970756903569494  1.0000
  C   C33       1.0  0.9024291467310803  0.4024168979795204  0.9925863697183605  1.0000
  C   C34       1.0  0.8635159836327058  0.402435730700515  0.10956312367333498  1.0000
  C   C35       1.0  0.10464500921941489  0.4001938191952253  0.11888310281553416  1.0000
  O   O2        1.0  0.13775204943238184  0.4602179986930086  0.025962732853511257  1.0000
  C   C36       1.0  0.1504211446154875  0.3326634672297605  0.22655816464108344  1.0000
  C   C37       1.0  0.2210385706887159  0.38166256546857946  0.26105873816330427  1.0000
  C   C38       1.0  0.2649828465317514  0.3178194347442793  0.36139559316374953  1.0000
  C   C39       1.0  0.23922961491427253  0.20404826962970038  0.4274865568194867  1.0000
  C   C40       1.0  0.16960823121179258  0.15358159928922333  0.39301015800714406  1.0000
  C   C41       1.0  0.12544990543078582  0.21705044452081346  0.2927649819586935  1.0000
  H   H17       1.0  0.753636768771234  0.4057306763762851  0.43234653293977954  1.0000
  H   H18       1.0  0.012109260536343756  0.40381547046613586  0.32439547794678236  1.0000
  H   H19       1.0  0.011933621287127048  0.4010680078095337  0.907590214918387  1.0000
  H   H20       1.0  0.8026710853965786  0.40302954254906376  0.10685003836329043  1.0000
  H   H21       1.0  0.8721226629745191  0.4038626061233281  0.6633203496753395  1.0000
  H   H22       1.0  0.24190476780267267  0.4699042196417425  0.21115330065379198  1.0000
  H   H23       1.0  0.31906422538366264  0.35658453296128645  0.3878719129054524  1.0000
  H   H24       1.0  0.2733520263783742  0.15471497990230687  0.5050470388057762  1.0000
  H   H25       1.0  0.14996482407109246  0.0648587395369624  0.4436027538943174  1.0000
  H   H26       1.0  0.07227026648126422  0.1749845135257282  0.2661444806950344  1.0000
  Zn  Zn1       1.0  0.820185955573652  0.40404653066974183  0.6072801594669162  1.0000
  Zn  Zn2       1.0  0.9848150706642746  0.4006372241846437  0.6151592744709118  1.0000
  C   C42       1.0  0.9024552943878893  0.3972149679361319  0.8484117427960958  1.0000
  C   C43       1.0  0.902547529738533  0.4074703883364342  0.37402790522482565  1.0000
  C   C44       1.0  0.9025256825250814  0.6395337577406444  0.6061285121358848  1.0000
  C   C45       1.0  0.9024770852506674  0.16515003940329892  0.6163112018843544  1.0000
  O   O3        1.0  0.9650128441413552  0.40791709871061066  0.4254040784890658  1.0000
  O   O4        1.0  0.9649396690530034  0.39417969302807765  0.8030152613206845  1.0000
  O   O5        1.0  0.9649956658937378  0.58985519804058  0.6073697985363726  1.0000
  O   O6        1.0  0.9649567911439451  0.2122416041326214  0.6210494412140648  1.0000
  O   O7        1.0  0.8400441789141461  0.5924421518866059  0.6013899900281767  1.0000
  O   O8        1.0  0.8399881822442499  0.39676820716756683  0.7970353841175859  1.0000
  O   O9        1.0  0.8400613576847002  0.410505567286873  0.41942263988272516  1.0000
  O   O10       1.0  0.8400053046641299  0.21483006343921218  0.6150680999714517  1.0000
