data_image0
_chemical_formula_structural       NC11NC3H8C13OH12C13F3H9Zn2C4O8
_chemical_formula_sum              "N2 C44 H29 O9 F3 Zn2"
_cell_length_a       17.807433833752565
_cell_length_b       10.299150109392551
_cell_length_c       10.2985328690268
_cell_angle_alpha    85.5582241043329
_cell_angle_beta     88.52982223362811
_cell_angle_gamma    90.66566965777596

_space_group_name_H-M_alt    "P 1"
_space_group_IT_number       1

loop_
  _space_group_symop_operation_xyz
  'x, y, z'

loop_
  _atom_site_type_symbol
  _atom_site_label
  _atom_site_symmetry_multiplicity
  _atom_site_fract_x
  _atom_site_fract_y
  _atom_site_fract_z
  _atom_site_occupancy
  N   N1        1.0  0.7070611578718354  0.43811490383459945  0.5340682156106775  1.0000
  C   C1        1.0  0.6562519831898495  0.4034068511522171  0.6006467610278363  1.0000
  C   C2        1.0  0.5930402432373525  0.36023289358925603  0.6834619757074334  1.0000
  C   C3        1.0  0.6047862660350812  0.29671714114939984  0.8062100929486155  1.0000
  C   C4        1.0  0.5434814752675537  0.2552223536982474  0.8867406564460647  1.0000
  C   C5        1.0  0.4702764093360867  0.27693023143678824  0.8451640470980621  1.0000
  C   C6        1.0  0.4575535378772185  0.3406003999377674  0.7219556499847954  1.0000
  C   C7        1.0  0.3797798449707537  0.3636376080746089  0.6775977546068781  1.0000
  C   C8        1.0  0.36099189211371285  0.3467228198614372  0.5480146674342599  1.0000
  C   C9        1.0  0.2877568882903713  0.3683919527242916  0.5063939968810576  1.0000
  C   C10       1.0  0.2323666569631863  0.4072941630285328  0.5935359771725741  1.0000
  C   C11       1.0  0.1569947308117192  0.4296213749966961  0.5505536988627218  1.0000
  N   N2        1.0  0.0964010761170548  0.4475707946695744  0.5159990753548118  1.0000
  C   C12       1.0  0.2504629765316788  0.4244193742217186  0.7225878237717611  1.0000
  C   C13       1.0  0.32364523990122207  0.4027153902780743  0.7644639522518777  1.0000
  C   C14       1.0  0.5197156423268734  0.38209062735975646  0.641441504944954  1.0000
  H   H1        1.0  0.6612572169378951  0.27931203746166466  0.8395837505521639  1.0000
  H   H2        1.0  0.5526942249314156  0.2057966918010108  0.981499847795183  1.0000
  H   H3        1.0  0.4236472255774496  0.24239192243358554  0.9086190461747985  1.0000
  H   H4        1.0  0.40267213228929954  0.31505678986088737  0.47930444574272446  1.0000
  H   H5        1.0  0.2743121878794559  0.3544783209971696  0.40635766372294957  1.0000
  H   H6        1.0  0.2080661498622938  0.45486212543078197  0.7907836601621344  1.0000
  H   H7        1.0  0.3365612107245169  0.4181744839631425  0.8643169923791589  1.0000
  H   H8        1.0  0.5112011310664083  0.43287881443689546  0.5469161806201428  1.0000
  C   C15       1.0  0.9018055212537617  0.06144505448639159  0.5251743049691859  1.0000
  C   C16       1.0  0.9004294377882743  0.04964957646925483  0.6620586204695753  1.0000
  C   C17       1.0  0.8996663517415254  0.9265327496303499  0.7312011951552908  1.0000
  C   C18       1.0  0.9002845734821958  0.8143906015137751  0.661701922782332  1.0000
  C   C19       1.0  0.9016638943674182  0.824230778572898  0.5249038621451296  1.0000
  C   C20       1.0  0.9024183738210588  0.9482185205666662  0.4574393946190047  1.0000
  C   C21       1.0  0.8982040561654016  0.9150360347521632  0.8759194558561398  1.0000
  C   C22       1.0  0.8520129231347444  0.8210548944862904  0.946089422285124  1.0000
  C   C23       1.0  0.8506120150480532  0.8103173020889315  0.08227031608488233  1.0000
  C   C24       1.0  0.8958696570532041  0.8924143215939978  0.1507202233515701  1.0000
  C   C25       1.0  0.941342082657621  0.9873318390655245  0.08122622926254852  1.0000
  C   C26       1.0  0.9427604294575159  0.9982456519391084  0.9450442374016639  1.0000
  C   C27       1.0  0.892784648139976  0.8831919212552575  0.29696005089598  1.0000
  O   O1        1.0  0.8366367629663427  0.9650160579627715  0.33980937988098436  1.0000
  H   H9        1.0  0.9039148674714431  0.2909905540720312  0.2668213964016102  1.0000
  H   H10       1.0  0.898906449154302  0.1364009579176471  0.7151416466585554  1.0000
  H   H11       1.0  0.900716186369975  0.7192934259253303  0.7145191611934059  1.0000
  H   H12       1.0  0.9034801595023916  0.9565247005126911  0.3519230557847546  1.0000
  H   H13       1.0  0.9021438647189222  0.5005389597190302  0.472288876955848  1.0000
  H   H14       1.0  0.8160823234419253  0.7571590439123299  0.8956445576109273  1.0000
  H   H15       1.0  0.8140699537985404  0.7381142662553555  0.1343453677307036  1.0000
  H   H16       1.0  0.975888917031867  0.05274726094619652  0.13248157300179086  1.0000
  H   H17       1.0  0.9793277073183486  0.07089495870884012  0.8937747160463264  1.0000
  H   H18       1.0  0.9480470979281789  0.9123744901848949  0.33456819191537057  1.0000
  H   H19       1.0  0.8805780905870357  0.7808847320420096  0.33534182407639157  1.0000
  H   H20       1.0  0.8369204740889541  0.9553727108621616  0.43642976061456873  1.0000
  C   C28       1.0  0.9017131380009915  0.44271546119186533  0.14364263509359376  1.0000
  C   C29       1.0  0.9770515760730724  0.40365056921913767  0.1423741566953225  1.0000
  C   C30       1.0  0.015226104966877818  0.3839747712637258  0.02456051171823992  1.0000
  C   C31       1.0  0.9770958796305943  0.4039072824366121  0.9070713312097438  1.0000
  C   C32       1.0  0.9017562730961565  0.44296044026160686  0.9064355188635473  1.0000
  C   C33       1.0  0.864546034699945  0.46210996315032554  0.025196308248849546  1.0000
  C   C34       1.0  0.0948767723090127  0.3426860518727737  0.024153861743919203  1.0000
  C   C35       1.0  0.1467401530949248  0.39855047874066996  0.9301853977071133  1.0000
  C   C36       1.0  0.22170209050146658  0.35979438677954606  0.9298241355386293  1.0000
  C   C37       1.0  0.24616503408953247  0.26298465088405276  0.022195698210290438  1.0000
  C   C38       1.0  0.19473618150496994  0.20894996795270002  0.11772066209051112  1.0000
  C   C39       1.0  0.1197791282471907  0.24773923614923096  0.11819260656111831  1.0000
  C   C40       1.0  0.3276241056714382  0.2246732768464876  0.02471335881473658  1.0000
  F   F1        1.0  0.36613674721241213  0.3049295384747548  0.10238186835965912  1.0000
  F   F2        1.0  0.35961601728272696  0.23662432449947926  0.9003673530578578  1.0000
  F   F3        1.0  0.33460524329826713  0.09671147339913964  0.07432199189820365  1.0000
  H   H21       1.0  0.7594945473212522  0.5173556442180265  0.3532945803781673  1.0000
  H   H22       1.0  0.006474145920750685  0.39020447943214626  0.2330928084799433  1.0000
  H   H23       1.0  0.005950969158635684  0.38722517378901067  0.8161078074433105  1.0000
  H   H24       1.0  0.806480966629425  0.4922127923081369  0.025440838730409258  1.0000
  H   H25       1.0  0.7592542173815364  0.5160100766931908  0.6979719491787817  1.0000
  H   H26       1.0  0.12960662758747454  0.47390466880740245  0.8582237553886759  1.0000
  H   H27       1.0  0.26064214244441164  0.4059700266301458  0.8575152249556091  1.0000
  H   H28       1.0  0.21246978472425976  0.1365021186013864  0.19209628274627089  1.0000
  H   H29       1.0  0.0811094840139368  0.20252426666683299  0.1915082980791727  1.0000
  Zn  Zn1       1.0  0.819416248939558  0.44084019717209566  0.5288613383388514  1.0000
  Zn  Zn2       1.0  0.9840459728593791  0.44483488433345975  0.5212165431698959  1.0000
  C   C41       1.0  0.9017474063002113  0.4377400051235203  0.7622532350149251  1.0000
  C   C42       1.0  0.9017166129531331  0.4479367587888594  0.287824689907487  1.0000
  C   C43       1.0  0.9016865046553822  0.6800463226740164  0.5197795975987649  1.0000
  C   C44       1.0  0.901777458714986  0.20562887947641562  0.5302983997291966  1.0000
  O   O2        1.0  0.9641939024834182  0.4511993707471027  0.33331234670601995  1.0000
  O   O3        1.0  0.9642202681133369  0.43750828837301314  0.7109629820460723  1.0000
  O   O4        1.0  0.9641702471332946  0.6331736841744444  0.5151638429220602  1.0000
  O   O5        1.0  0.9642438672792554  0.2555339828422112  0.5291113910536935  1.0000
  O   O6        1.0  0.8392182983396365  0.6301410973015655  0.5209664930570148  1.0000
  O   O7        1.0  0.8392683190226095  0.43447726190030306  0.71676556237744  1.0000
  O   O8        1.0  0.8392419533627501  0.44816829851474815  0.33911336553774674  1.0000
  O   O9        1.0  0.8392919181627468  0.2525029013515383  0.5349125072637209  1.0000
