data_image0
_chemical_formula_structural       NC12NC2H8C7OC4NC3H8C7OC6OCH12Zn2C4O8
_chemical_formula_sum              "N3 C46 H28 O11 Zn2"
_cell_length_a       17.80743265337812
_cell_length_b       10.299371701877257
_cell_length_c       10.299362532796529
_cell_angle_alpha    85.59861751689631
_cell_angle_beta     91.54954799628842
_cell_angle_gamma    89.44495547056906

_space_group_name_H-M_alt    "P 1"
_space_group_IT_number       1

loop_
  _space_group_symop_operation_xyz
  'x, y, z'

loop_
  _atom_site_type_symbol
  _atom_site_label
  _atom_site_symmetry_multiplicity
  _atom_site_fract_x
  _atom_site_fract_y
  _atom_site_fract_z
  _atom_site_occupancy
  N   N1        1.0  0.7073415846237322  0.40621094124609924  0.6018795654032416  1.0000
  C   C1        1.0  0.6565137506104318  0.4357464177030772  0.5331928720384489  1.0000
  C   C2        1.0  0.5932789114856886  0.47248640775133466  0.44775527257015085  1.0000
  C   C3        1.0  0.6049907606501033  0.5264641027598813  0.32115754688624554  1.0000
  C   C4        1.0  0.5436635065787493  0.5617013149955181  0.2381153317499387  1.0000
  C   C5        1.0  0.47047002110895086  0.5432240726150706  0.2810110481488537  1.0000
  C   C6        1.0  0.4577814618362793  0.48912773383743874  0.40807686541137556  1.0000
  C   C7        1.0  0.5199660296769979  0.45389376988492874  0.4911025703034591  1.0000
  C   C8        1.0  0.3800201160154595  0.46953733610944304  0.4538324176193202  1.0000
  C   C9        1.0  0.3612577021739694  0.496767165631631  0.5808853858158687  1.0000
  C   C10       1.0  0.2880342815411275  0.47833151053140677  0.6238216803013101  1.0000
  C   C11       1.0  0.23263041693890968  0.4324120399444418  0.5405428680850288  1.0000
  C   C12       1.0  0.1572705650708131  0.41342403677865663  0.5848798628906038  1.0000
  N   N2        1.0  0.0966865808533896  0.3981589592434762  0.6205237566141752  1.0000
  C   C13       1.0  0.25070140972783866  0.405013483184852  0.4140327985437518  1.0000
  C   C14       1.0  0.32387193473151354  0.4234638362480175  0.3708406259550885  1.0000
  H   H1        1.0  0.6614522613918143  0.5412761232297179  0.28672659852970117  1.0000
  H   H2        1.0  0.5528497275073957  0.6037650253688536  0.1403534336446286  1.0000
  H   H3        1.0  0.4238228571534338  0.5728372216281638  0.21543228917865087  1.0000
  H   H4        1.0  0.5114780364021557  0.41044470464937377  0.5887395020063675  1.0000
  H   H5        1.0  0.4029485194794105  0.5339689825229048  0.6464716647044635  1.0000
  H   H6        1.0  0.2746091651497047  0.5002106743339699  0.721837531734516  1.0000
  H   H7        1.0  0.20829390478243603  0.3690790930817053  0.3488599467073741  1.0000
  H   H8        1.0  0.3367685570974769  0.40004922493987083  0.2731275269927522  1.0000
  C   C15       1.0  0.9019783635417901  0.020815226581556212  0.611072939154407  1.0000
  C   C16       1.0  0.9056076459695606  0.030038957017270333  0.47458544589483975  1.0000
  C   C17       1.0  0.9065850958728846  0.9175398613970093  0.4056416912862866  1.0000
  C   C18       1.0  0.905616987840304  0.7947705458528134  0.47490328073149773  1.0000
  C   C19       1.0  0.9020569957241066  0.7835445400925536  0.6113419095794697  1.0000
  C   C20       1.0  0.9000606194986327  0.897171896900971  0.6786120105818647  1.0000
  C   C21       1.0  0.9112063744775165  0.9271194275217276  0.26161680734868353  1.0000
  O   O1        1.0  0.9473561804829835  0.8406080717753917  0.20840345720000575  1.0000
  C   C22       1.0  0.8748053046338209  0.034760271830000425  0.17796368621427616  1.0000
  C   C23       1.0  0.9069624396953109  0.07870256518537566  0.059536457401570875  1.0000
  C   C24       1.0  0.8725432234754129  0.17929332483827135  0.9790995604599256  1.0000
  C   C25       1.0  0.9061574830900122  0.22438886132826985  0.8585560160097114  1.0000
  N   N3        1.0  0.9331818530396893  0.26063607958424084  0.761656648560264  1.0000
  C   C26       1.0  0.8054058324834772  0.23587258472237682  0.016055403962593084  1.0000
  C   C27       1.0  0.7726142396578173  0.191732249671549  0.13271274727334093  1.0000
  C   C28       1.0  0.8068177498744465  0.09144342191362467  0.2131279176198533  1.0000
  H   H9        1.0  0.9085199611311926  0.12488616700525836  0.4218396768463526  1.0000
  H   H10       1.0  0.9069273656288717  0.7078895899921764  0.42195516841618314  1.0000
  H   H11       1.0  0.8972631190090768  0.8892571746248765  0.7838341594362386  1.0000
  H   H12       1.0  0.901321738202703  0.4517585436507906  0.6638305845358261  1.0000
  H   H13       1.0  0.9590573599774002  0.03552432466545752  0.03045501493435765  1.0000
  H   H14       1.0  0.7783139432219922  0.31363053754944614  0.9545201847808968  1.0000
  H   H15       1.0  0.7203908635674251  0.23492897683036817  0.16063506277840833  1.0000
  H   H16       1.0  0.7796899131051291  0.057322336783177  0.30198282866108106  1.0000
  C   C29       1.0  0.9019590354867417  0.4020605718589426  0.2298376970251601  1.0000
  C   C30       1.0  0.8306391776769859  0.344854827479703  0.22968973115670233  1.0000
  C   C31       1.0  0.7943437207254304  0.31733188456522  0.11242854655809675  1.0000
  C   C32       1.0  0.8308507589351639  0.34501400985339026  0.9944456199357203  1.0000
  C   C33       1.0  0.9020763326905855  0.4022992007137521  0.9925771728121693  1.0000
  C   C34       1.0  0.9371578232426727  0.43074884909589617  0.11078938519189686  1.0000
  C   C35       1.0  0.7194136455365772  0.2555837422691858  0.11462125185535665  1.0000
  O   O2        1.0  0.7040565017564666  0.17669464137786917  0.20975488223992156  1.0000
  C   C36       1.0  0.6619084498707337  0.28332425058400257  0.008961983888000184  1.0000
  C   C37       1.0  0.6561439251922574  0.40681617942904746  0.9408754441976037  1.0000
  C   C38       1.0  0.6011573395746665  0.43213298232307756  0.8425551803149145  1.0000
  C   C39       1.0  0.5506114959743413  0.3355138853223971  0.8110519763961022  1.0000
  C   C40       1.0  0.5555859691197491  0.21223185011632828  0.8800189670542542  1.0000
  C   C41       1.0  0.6105658092122952  0.1867879874444656  0.9784112687017315  1.0000
  O   O3        1.0  0.49653296156108934  0.3657918962978876  0.7114879653248445  1.0000
  C   C42       1.0  0.4417477502557026  0.27716353176048836  0.6694606944042265  1.0000
  H   H17       1.0  0.03666775517991838  0.5095137129122445  0.43743099162104415  1.0000
  H   H18       1.0  0.8028208948372371  0.3226891646166974  0.32088379991625193  1.0000
  H   H19       1.0  0.8039921582346927  0.32048936288351015  0.9040966770501706  1.0000
  H   H20       1.0  0.9921033547151706  0.4749360172593416  0.1100808053594855  1.0000
  H   H21       1.0  0.9295259535997464  0.42378957191747585  0.6644300965129584  1.0000
  H   H22       1.0  0.6935980154468512  0.48429242018124197  0.9645203835440439  1.0000
  H   H23       1.0  0.5975876801682344  0.5276663129267027  0.7908538007606286  1.0000
  H   H24       1.0  0.5172689848839508  0.13545924398837103  0.8584297214136619  1.0000
  H   H25       1.0  0.6134055360462953  0.09108788384936028  0.029964439354020156  1.0000
  H   H26       1.0  0.4064648655112543  0.32658834529107916  0.589704674607002  1.0000
  H   H27       1.0  0.40505946294705  0.2457092250320967  0.7512423132687851  1.0000
  H   H28       1.0  0.46974421089837665  0.19126448232029136  0.6321158366074089  1.0000
  Zn  Zn1       1.0  0.8196981443532906  0.403883848228162  0.607267361975667  1.0000
  Zn  Zn2       1.0  0.9843300191667186  0.4004754620959079  0.6151465493796546  1.0000
  C   C43       1.0  0.9020519414257564  0.3970804518734435  0.8484011610263706  1.0000
  C   C44       1.0  0.901978020057733  0.40728045989381356  0.374012964414012  1.0000
  C   C45       1.0  0.9020374679310668  0.6393709407761015  0.6061157040623231  1.0000
  C   C46       1.0  0.9019924372248654  0.16498841187024224  0.6162984873779838  1.0000
  O   O4        1.0  0.9644613293745701  0.40773317147588767  0.4253896097661114  1.0000
  O   O5        1.0  0.964520415611546  0.39403987424029646  0.8030042624095806  1.0000
  O   O6        1.0  0.9645078860701746  0.589692526069665  0.6073570018688035  1.0000
  O   O7        1.0  0.9644738027242193  0.21208053006934402  0.6210367702466559  1.0000
  O   O8        1.0  0.8395543046150098  0.592278781419252  0.6013771384130546  1.0000
  O   O9        1.0  0.8395668343031589  0.39662768987532315  0.797024330258298  1.0000
  O   O10       1.0  0.8395077478713873  0.410320941365301  0.4194081161972388  1.0000
  O   O11       1.0  0.8395202212319789  0.21466829070045912  0.6150553740424054  1.0000
