data_image0
_chemical_formula_structural       NC5NC4H6C7NH5C6IH3Zn2C4O8
_chemical_formula_sum              "N3 C26 H14 I1 Zn2 O8"
_cell_length_a       13.854160002989762
_cell_length_b       9.275154477615127
_cell_length_c       9.275433903346869
_cell_angle_alpha    86.39417635758981
_cell_angle_beta     89.96562887878927
_cell_angle_gamma    89.43370676253429

_space_group_name_H-M_alt    "P 1"
_space_group_IT_number       1

loop_
  _space_group_symop_operation_xyz
  'x, y, z'

loop_
  _atom_site_type_symbol
  _atom_site_label
  _atom_site_symmetry_multiplicity
  _atom_site_fract_x
  _atom_site_fract_y
  _atom_site_fract_z
  _atom_site_occupancy
  N   N1        1.0  0.8992154260623095  0.5610503809731127  0.4167307771721991  1.0000
  C   C1        1.0  0.8267437809902194  0.5856282773620258  0.3578059823886215  1.0000
  C   C2        1.0  0.7365880328310423  0.6162038400909344  0.2845012803497855  1.0000
  C   C3        1.0  0.6491780638341534  0.5874904328204857  0.35608133110018336  1.0000
  C   C4        1.0  0.5614456203759105  0.6162038541704205  0.28450125724251385  1.0000
  C   C5        1.0  0.4716356405573873  0.5856281310540992  0.3578060733925519  1.0000
  N   N2        1.0  0.3994418558846695  0.5610503174914834  0.41673077683363013  1.0000
  C   C6        1.0  0.5611517589727087  0.6742371193764916  0.1413625264814531  1.0000
  C   C7        1.0  0.6485148171446334  0.7050990023445447  0.06968760529939066  1.0000
  C   C8        1.0  0.6481921331966305  0.7632512369187272  0.9150650277236343  1.0000
  C   C9        1.0  0.7362288480597409  0.6742371170920196  0.1413624362309298  1.0000
  H   H1        1.0  0.6494315478397444  0.5424625489828074  0.4668676390771107  1.0000
  H   H2        1.0  0.4931608905215106  0.6954265710223477  0.08581971081183326  1.0000
  H   H3        1.0  0.7126066208898193  0.8311416398556869  0.891557522774239  1.0000
  H   H4        1.0  0.5828981431880188  0.8311416424237913  0.8915575878427578  1.0000
  H   H5        1.0  0.6488249144661609  0.6719895259700741  0.8431778080282601  1.0000
  H   H6        1.0  0.8039838488995349  0.6954266825692592  0.08581962586298686  1.0000
  C   C10       1.0  0.1521271869309976  0.13764331593574264  0.41506326348868106  1.0000
  C   C11       1.0  0.12569269133663608  0.21947122939383434  0.28800822750036614  1.0000
  C   C12       1.0  0.09140395472897711  0.15215320796325038  0.1676834854882825  1.0000
  C   C13       1.0  0.08298486866432793  0.002089187963591589  0.17299669470865586  1.0000
  C   C14       1.0  0.11031532667863891  0.9190228003969306  0.29715561244689837  1.0000
  C   C15       1.0  0.14653941059082332  0.9844464342375977  0.4184107878203506  1.0000
  C   C16       1.0  0.06368603221680647  0.23754664872775044  0.03909710492419016  1.0000
  N   N3        1.0  0.041408512271873255  0.3061874193328553  0.9357465920558877  1.0000
  H   H7        1.0  0.17067615590139318  0.21807602125366543  0.7687825290720847  1.0000
  H   H8        1.0  0.12963661569689222  0.33638515896429033  0.28373252722124453  1.0000
  H   H9        1.0  0.056117508502905526  0.9489791620498487  0.08051957343912486  1.0000
  H   H10       1.0  0.10524690070093157  0.8025538563737088  0.2970287940214593  1.0000
  H   H11       1.0  0.16312549275100685  0.6881965993104205  0.6554127575059003  1.0000
  C   C17       1.0  0.14953241048765067  0.5565446420103939  0.9935668863422835  1.0000
  C   C18       1.0  0.2384638175872151  0.5538453515128081  0.0670110846213865  1.0000
  C   C19       1.0  0.3253489581356831  0.564432515681548  0.9909341986390182  1.0000
  C   C20       1.0  0.32469332772296117  0.5780555899137099  0.8404424080881516  1.0000
  C   C21       1.0  0.23741171942959918  0.5785754768465692  0.7654690730713996  1.0000
  C   C22       1.0  0.1491341720561429  0.5655450389729715  0.8399070890570446  1.0000
  I   I1        1.0  0.45757457555358805  0.5625184475785932  0.1037110305609863  1.0000
  H   H12       1.0  0.9188786197988241  0.6419642410565836  0.0913941586789806  1.0000
  H   H13       1.0  0.3919542392351874  0.5868694432565982  0.7812663207671946  1.0000
  H   H14       1.0  0.9934026189997465  0.6169915271850357  0.5556349289601918  1.0000
  Zn  Zn1       1.0  0.04356999532931203  0.5610465910091746  0.4167390924458636  1.0000
  Zn  Zn2       1.0  0.2550873600803052  0.5610424345322507  0.41673424974272755  1.0000
  C   C23       1.0  0.14924520348868198  0.5580998361586365  0.6799079877237353  1.0000
  C   C24       1.0  0.1494144496128227  0.5639910100856245  0.1535655030414249  1.0000
  C   C25       1.0  0.14759334881229313  0.8243215319217927  0.4120355853673361  1.0000
  C   C26       1.0  0.1510662435078225  0.29776758284667904  0.42143797537933825  1.0000
  O   O1        1.0  0.2296446399641343  0.5664822115994663  0.20726063776450943  1.0000
  O   O2        1.0  0.2295518061773871  0.5556043878465329  0.6262087583785232  1.0000
  O   O3        1.0  0.2282168298561527  0.7705817899641418  0.40989990418529354  1.0000
  O   O4        1.0  0.2309795440915993  0.35150481864851724  0.42356938395242394  1.0000
  O   O5        1.0  0.06767773913751512  0.7705842068958157  0.40990395823024617  1.0000
  O   O6        1.0  0.06901270405963622  0.5556085362569023  0.6262127424360411  1.0000
  O   O7        1.0  0.06910553905734096  0.5664862913405129  0.2072628890802275  1.0000
  O   O8        1.0  0.07044044319807272  0.35150888922581114  0.4235717432675361  1.0000
