data_image0
_chemical_formula_structural       NC12NC2H8C9NC2H9C6NCOCH9Zn2C4O8
_chemical_formula_sum              "N4 C37 H26 O9 Zn2"
_cell_length_a       17.80743265337812
_cell_length_b       9.273595471060368
_cell_length_c       10.300272075376753
_cell_angle_alpha    85.63083163589278
_cell_angle_beta     91.53227337963533
_cell_angle_gamma    88.84631592348521

_space_group_name_H-M_alt    "P 1"
_space_group_IT_number       1

loop_
  _space_group_symop_operation_xyz
  'x, y, z'

loop_
  _atom_site_type_symbol
  _atom_site_label
  _atom_site_symmetry_multiplicity
  _atom_site_fract_x
  _atom_site_fract_y
  _atom_site_fract_z
  _atom_site_occupancy
  N   N1        1.0  0.6990958530092839  0.5629087192944489  0.6032564059822334  1.0000
  C   C1        1.0  0.6481013561846248  0.5957641649216279  0.5346004432042872  1.0000
  C   C2        1.0  0.5846592000049416  0.6366339530895677  0.44920107018780975  1.0000
  C   C3        1.0  0.5960666412436499  0.6966798546670133  0.3226595555920113  1.0000
  C   C4        1.0  0.5345407324930831  0.7358787475060626  0.2396540539855472  1.0000
  C   C5        1.0  0.46145152275994633  0.7153246038145451  0.2825305489122547  1.0000
  C   C6        1.0  0.4490680089954509  0.6551465816494848  0.40954002278623736  1.0000
  C   C7        1.0  0.5114512146726505  0.6159513087697153  0.4925290179409137  1.0000
  C   C8        1.0  0.37141717522046946  0.6333539588489362  0.4552751828306835  1.0000
  C   C9        1.0  0.35246950697026125  0.6635053755314448  0.582347709703801  1.0000
  C   C10       1.0  0.2793501046154382  0.6429973933917964  0.625264819660404  1.0000
  C   C11       1.0  0.2242369048579384  0.5920552782563497  0.5419469885841091  1.0000
  C   C12       1.0  0.1489841687728356  0.5709327757769228  0.5862642188090836  1.0000
  N   N2        1.0  0.08848629845235967  0.5539517043961049  0.6218922231422368  1.0000
  C   C13       1.0  0.24249407916536153  0.5617160582957401  0.4154171778758246  1.0000
  C   C14       1.0  0.3155605397541155  0.5822405526549965  0.3722442153249157  1.0000
  H   H1        1.0  0.6524445581508657  0.7131568260718959  0.28824401789422693  1.0000
  H   H2        1.0  0.5434895863172171  0.7826706336842821  0.1419359188717133  1.0000
  H   H3        1.0  0.41463671181398026  0.7482640481164283  0.21698244980092232  1.0000
  H   H4        1.0  0.5032089613220988  0.567620792588161  0.5901208994634299  1.0000
  H   H5        1.0  0.393925153612971  0.7047776816162546  0.6479656865975971  1.0000
  H   H6        1.0  0.2657768121355691  0.6672270290691269  0.7232965740953468  1.0000
  H   H7        1.0  0.2003140351485556  0.5218511879076295  0.35021379186842205  1.0000
  H   H8        1.0  0.32861454491254655  0.5563052654687843  0.2745137663808048  1.0000
  C   C15       1.0  0.8960545930389419  0.13484082341327697  0.6120896674014578  1.0000
  C   C16       1.0  0.8877150962526126  0.21873576311941179  0.4929912626555304  1.0000
  C   C17       1.0  0.8727616144201062  0.15441555469691304  0.37730128945918073  1.0000
  C   C18       1.0  0.8657706855402706  0.0041088848186188265  0.37748964622170744  1.0000
  C   C19       1.0  0.8752649244401632  0.9190202531475885  0.4957776008877186  1.0000
  C   C20       1.0  0.8915347849546873  0.9820083290859988  0.6130704709233565  1.0000
  C   C21       1.0  0.8493408278202663  0.9359960138804  0.2542073448056721  1.0000
  C   C22       1.0  0.8860809678304472  0.8064535285371559  0.22739496030249187  1.0000
  C   C23       1.0  0.8697656667389274  0.7444152038870948  0.11078474247132086  1.0000
  N   N3        1.0  0.818587433105482  0.8089399440407279  0.02366095726132555  1.0000
  C   C24       1.0  0.782117814136949  0.9341788882572242  0.046642295095672866  1.0000
  C   C25       1.0  0.7967690847226943  0.9999894223774157  0.16194791226432348  1.0000
  H   H9        1.0  0.9484003104425272  0.39725042704377367  0.8093954710470803  1.0000
  H   H10       1.0  0.8911744705574435  0.33545590394492325  0.4895661858595881  1.0000
  H   H11       1.0  0.8669204955750959  0.22257312225377168  0.2872988967523167  1.0000
  H   H12       1.0  0.8706321527498313  0.8026316641103176  0.49648409519292686  1.0000
  H   H13       1.0  0.9736982697204921  0.8511980127006267  0.9034427333275188  1.0000
  H   H14       1.0  0.9277246494314434  0.7546978283187156  0.2949951940461948  1.0000
  H   H15       1.0  0.8980122762524633  0.6449613215181792  0.08940093073562738  1.0000
  H   H16       1.0  0.7415385178499743  0.982643613055963  0.9754442950467457  1.0000
  H   H17       1.0  0.7665966437472127  0.09883905594587626  0.17951313711499117  1.0000
  C   C26       1.0  0.893800083153197  0.5585709352804609  0.23122780847525792  1.0000
  C   C27       1.0  0.8167212764702428  0.5944624717881406  0.22414806052378222  1.0000
  C   C28       1.0  0.7780974884754422  0.6144917645626267  0.10317908246386076  1.0000
  C   C29       1.0  0.8167306255109484  0.5941334279407433  0.9890140843018558  1.0000
  C   C30       1.0  0.8937893419811265  0.5582781963851264  0.9939323744186462  1.0000
  C   C31       1.0  0.9319782317034071  0.5412223802356445  0.11552743218358973  1.0000
  N   N4        1.0  0.6989300494956597  0.6490208482131709  0.09445478815203523  1.0000
  C   C32       1.0  0.6611525912315593  0.7396729041939201  0.18022562264621267  1.0000
  O   O1        1.0  0.6980356499129076  0.8159649355990324  0.25436260773055075  1.0000
  C   C33       1.0  0.5773400150579954  0.7522089195872423  0.17511701127867685  1.0000
  H   H18       1.0  0.9228697026811824  0.5428540814770877  0.5614749912454038  1.0000
  H   H19       1.0  0.7864273844774706  0.6040160028631304  0.31285388592287133  1.0000
  H   H20       1.0  0.7863605055254073  0.6076451264699222  0.896209461722568  1.0000
  H   H21       1.0  0.9914311325755369  0.5135792764185543  0.12017649121580365  1.0000
  H   H22       1.0  0.9227507898829587  0.5425856285970889  0.6685213122580209  1.0000
  H   H23       1.0  0.6677296493333539  0.6137704029215454  0.015953953529146865  1.0000
  H   H24       1.0  0.5529658691059195  0.6449848450871478  0.16142239425949656  1.0000
  H   H25       1.0  0.5565476463710133  0.7912121978231295  0.26722144869042785  1.0000
  H   H26       1.0  0.558876319816782  0.829715850354926  0.0924798444783621  1.0000
  Zn  Zn1       1.0  0.8114655480470566  0.5603200642699817  0.6086417824056711  1.0000
  Zn  Zn2       1.0  0.9761166635460491  0.5565285891211638  0.6165174256849568  1.0000
  C   C34       1.0  0.8938203344749795  0.5525871655975967  0.8497581199614287  1.0000
  C   C35       1.0  0.8937636653912324  0.5642632663688936  0.37540130369901736  1.0000
  C   C36       1.0  0.892385349969832  0.8218777356360875  0.607709956971813  1.0000
  C   C37       1.0  0.8951986029575494  0.29497096455783284  0.6174495312303927  1.0000
  O   O2        1.0  0.9562357170771394  0.5647285266412754  0.4267760040317305  1.0000
  O   O3        1.0  0.9563146754962601  0.5492431753743587  0.8043604755581418  1.0000
  O   O4        1.0  0.9551550650239943  0.7666987352026474  0.6089048328590072  1.0000
  O   O5        1.0  0.9573952713114551  0.3472729784628452  0.622231546684971  1.0000
  O   O6        1.0  0.8301868840942975  0.7695756762237171  0.6029276587112573  1.0000
  O   O7        1.0  0.8313464853180406  0.5521218494634159  0.7983832341742332  1.0000
  O   O8        1.0  0.8312675272391058  0.5676071510622056  0.42079720125949077  1.0000
  O   O9        1.0  0.8324270815240187  0.35015159252933437  0.6162528412642261  1.0000
