data_image0
_chemical_formula_structural       NC8NC6H8C6NCOCH9C9H10Zn2C4O8
_chemical_formula_sum              "N3 C35 H27 O9 Zn2"
_cell_length_a       17.457602349358154
_cell_length_b       10.300268703208214
_cell_length_c       9.272679976505534
_cell_angle_alpha    86.02026342835288
_cell_angle_beta     93.25957942520282
_cell_angle_gamma    91.66828978603887

_space_group_name_H-M_alt    "P 1"
_space_group_IT_number       1

loop_
  _space_group_symop_operation_xyz
  'x, y, z'

loop_
  _atom_site_type_symbol
  _atom_site_label
  _atom_site_symmetry_multiplicity
  _atom_site_fract_x
  _atom_site_fract_y
  _atom_site_fract_z
  _atom_site_occupancy
  N   N1        1.0  0.7165262827557649  0.4414402338331001  0.47472101495731733  1.0000
  C   C1        1.0  0.655414445624379  0.3954310187233781  0.46293354940600384  1.0000
  C   C2        1.0  0.5793887749470498  0.3382013475305015  0.448280538314266  1.0000
  C   C3        1.0  0.5211573948852721  0.37897596408567413  0.5314522303914144  1.0000
  C   C4        1.0  0.446571879725548  0.3238694557252153  0.5174814909844381  1.0000
  C   C5        1.0  0.3847671784371606  0.36692340635281073  0.60556347044794  1.0000
  C   C6        1.0  0.30998931371157457  0.38493216070793895  0.5436385291017045  1.0000
  C   C7        1.0  0.251758408691747  0.4255237521354256  0.6269301065340094  1.0000
  C   C8        1.0  0.1755332292764353  0.4441201070107892  0.5625449162545872  1.0000
  N   N2        1.0  0.11426110345437371  0.45906519832725357  0.5107793911626404  1.0000
  C   C9        1.0  0.2678152299031232  0.44835389312033774  0.7727113200296724  1.0000
  C   C10       1.0  0.3418098918495237  0.43073728366817665  0.835066673356871  1.0000
  C   C11       1.0  0.40003102189226425  0.3903294959525637  0.7522833837216572  1.0000
  C   C12       1.0  0.4315006849943839  0.22729918177057273  0.4187478416575671  1.0000
  C   C13       1.0  0.4897219212893771  0.18680651320796793  0.3360203400465979  1.0000
  C   C14       1.0  0.5635248907142721  0.24202990941787908  0.35060178717599055  1.0000
  H   H1        1.0  0.5337578044048795  0.45471262797090994  0.605442727559647  1.0000
  H   H2        1.0  0.2972312795121875  0.3691243755724891  0.43034233857159987  1.0000
  H   H3        1.0  0.22318789783575274  0.47971806420197854  0.8380468197652456  1.0000
  H   H4        1.0  0.35405237421763713  0.44809955091909126  0.9479483258038992  1.0000
  H   H5        1.0  0.4567077412102887  0.3757177107488803  0.8034842316551993  1.0000
  H   H6        1.0  0.37498185801445294  0.18187929616737322  0.4069202544084116  1.0000
  H   H7        1.0  0.47763020606670564  0.11217638242086303  0.2606990988767892  1.0000
  H   H8        1.0  0.6081545290861573  0.20980030309647854  0.2858339048905163  1.0000
  C   C15       1.0  0.9154753607767164  0.068908736870543  0.4927661261436116  1.0000
  C   C16       1.0  0.9278632030272126  0.07775844679380152  0.34402712423664505  1.0000
  C   C17       1.0  0.935153485074795  0.964966110825728  0.26948042150111795  1.0000
  C   C18       1.0  0.9276897181938936  0.8425915007245877  0.3440473619688389  1.0000
  C   C19       1.0  0.9153193941633161  0.8315871126301624  0.4927474002066043  1.0000
  C   C20       1.0  0.9095667592891257  0.9453590831252012  0.5664355474377212  1.0000
  N   N3        1.0  0.9466401808980606  0.9723807674970333  0.11672714442270736  1.0000
  C   C21       1.0  0.9914101375464937  0.07291132637595622  0.04332084730904917  1.0000
  O   O1        1.0  0.03498901803967348  0.14832001076191892  0.11384524484696822  1.0000
  C   C22       1.0  0.9908485661621387  0.08260282700750325  0.881771443677445  1.0000
  H   H9        1.0  0.9096482999596516  0.39294081475444487  0.5488769203001969  1.0000
  H   H10       1.0  0.9303205102276711  0.17229183247530133  0.28560047465570193  1.0000
  H   H11       1.0  0.9322369973390023  0.7560033901546936  0.2854464502856482  1.0000
  H   H12       1.0  0.9000333257863288  0.9377252249710585  0.6811616606669362  1.0000
  H   H13       1.0  0.9094959843601368  0.4999805686037793  0.548649775750141  1.0000
  H   H14       1.0  0.9252881795497695  0.8955910503382435  0.05686519954575764  1.0000
  H   H15       1.0  0.9319605932062685  0.06266224036030499  0.8355596426354448  1.0000
  H   H16       1.0  0.009720963196344417  0.18179461941950525  0.841444827515481  1.0000
  H   H17       1.0  0.030315379927955854  0.010338810144587375  0.8456637500920849  1.0000
  C   C23       1.0  0.913842028731304  0.44711250181641016  0.06925311068416451  1.0000
  C   C24       1.0  0.9660126719177118  0.3690958359780533  0.15424956557687453  1.0000
  C   C25       1.0  0.021960447514252968  0.30176986601601175  0.09072115808346881  1.0000
  C   C26       1.0  0.027629463483359595  0.31024874142602715  0.9403728073613733  1.0000
  C   C27       1.0  0.9745380013522871  0.3864621418427159  0.8539086054902874  1.0000
  C   C28       1.0  0.9169527283975627  0.4533833446333575  0.916260482838545  1.0000
  C   C29       1.0  0.0907355738709146  0.23481790841788347  0.879946188249817  1.0000
  C   C30       1.0  0.07247393230982224  0.1745786461340411  0.736191085462159  1.0000
  C   C31       1.0  0.12642952212849037  0.29324752048304853  0.7432634994029294  1.0000
  H   H18       1.0  0.7982707766170872  0.5297929432550962  0.3317258661838236  1.0000
  H   H19       1.0  0.9647990903721766  0.3624915239442741  0.2712141841005782  1.0000
  H   H20       1.0  0.06170187432514052  0.24351722218042296  0.15995684926745812  1.0000
  H   H21       1.0  0.9762535384915296  0.3921520810848783  0.7372851978768278  1.0000
  H   H22       1.0  0.7426957024743105  0.5678294741580185  0.7857590087243396  1.0000
  H   H23       1.0  0.13085782517204692  0.17817767355752825  0.9557702656485971  1.0000
  H   H24       1.0  0.01546484863426346  0.1942130928406609  0.681340945820784  1.0000
  H   H25       1.0  0.10230190527382055  0.08241166906394447  0.7246018282320037  1.0000
  H   H26       1.0  0.10223240571857711  0.38490895886937815  0.6925961134467479  1.0000
  H   H27       1.0  0.187801140996813  0.27042919184771136  0.7358047423137553  1.0000
  Zn  Zn1       1.0  0.831303991790129  0.4465229970378408  0.4851350104329235  1.0000
  Zn  Zn2       1.0  0.9994834257103765  0.4539718754085169  0.5003772031882125  1.0000
  C   C32       1.0  0.9163640930297278  0.4470245868746363  0.7561578830637239  1.0000
  C   C33       1.0  0.914425161169774  0.45347200647445685  0.22935463851080337  1.0000
  C   C34       1.0  0.9153238293795257  0.6873819245303048  0.4870036553387771  1.0000
  C   C35       1.0  0.9154653680335014  0.2131131066449186  0.49850893796124374  1.0000
  O   O2        1.0  0.978444085599816  0.45842745948023556  0.2888705066491968  1.0000
  O   O3        1.0  0.9799894662135921  0.4477216774643964  0.708210071420663  1.0000
  O   O4        1.0  0.9791485852999319  0.6418132403501127  0.4908660502121271  1.0000
  O   O5        1.0  0.9792849087262006  0.26433590254177824  0.5062144145234728  1.0000
  O   O6        1.0  0.85150245138289  0.6361589673640007  0.4792977938886651  1.0000
  O   O7        1.0  0.8523433316916098  0.44206896411157587  0.696641738162709  1.0000
  O   O8        1.0  0.850797944770194  0.4527746880396426  0.2773004394882084  1.0000
  O   O9        1.0  0.8516387682924398  0.25868312261334747  0.4946444554877458  1.0000
