data_image0
_chemical_formula_structural       NC5NC4H6C6ClH5C7ONH5Zn2C4O8
_chemical_formula_sum              "N3 C26 H16 Cl1 O9 Zn2"
_cell_length_a       13.854160002989762
_cell_length_b       10.30297070629231
_cell_length_c       9.273042158839658
_cell_angle_alpha    86.1623812568413
_cell_angle_beta     90.09323775389821
_cell_angle_gamma    89.9983107048755

_space_group_name_H-M_alt    "P 1"
_space_group_IT_number       1

loop_
  _space_group_symop_operation_xyz
  'x, y, z'

loop_
  _atom_site_type_symbol
  _atom_site_label
  _atom_site_symmetry_multiplicity
  _atom_site_fract_x
  _atom_site_fract_y
  _atom_site_fract_z
  _atom_site_occupancy
  N   N1        1.0  0.9071462917800398  0.405762118378022  0.4101370137978033  1.0000
  C   C1        1.0  0.8347488198764397  0.4278982764958768  0.35109935902293765  1.0000
  C   C2        1.0  0.7446853441216593  0.45543625134771903  0.27765425594618476  1.0000
  C   C3        1.0  0.6571928078988623  0.4295751753314201  0.349366885758815  1.0000
  C   C4        1.0  0.5695429317248948  0.45543626402745185  0.2776542327770939  1.0000
  C   C5        1.0  0.47964067861472426  0.4278981447475784  0.3510994506295951  1.0000
  N   N2        1.0  0.4073727211833725  0.4057620612174171  0.4101370137101566  1.0000
  C   C6        1.0  0.5694182348603986  0.5077044792160443  0.1342479516130466  1.0000
  C   C7        1.0  0.6568778833086851  0.53550011182409  0.0624319308500052  1.0000
  C   C8        1.0  0.6567080243422794  0.5878765284779834  0.9075382772379275  1.0000
  C   C9        1.0  0.7444953237977939  0.5077044771675148  0.13424786134754596  1.0000
  H   H1        1.0  0.6573146278636565  0.3890204070133156  0.46036071242154875  1.0000
  H   H2        1.0  0.5014842431381051  0.5267892692919303  0.07860657394539072  1.0000
  H   H3        1.0  0.7215350485429333  0.649009155429792  0.8837560730759662  1.0000
  H   H4        1.0  0.5918265709550894  0.6490091577360761  0.8837561381516413  1.0000
  H   H5        1.0  0.6566319403949707  0.5057086770378476  0.8359927898837802  1.0000
  H   H6        1.0  0.8123072021248683  0.5267893697398685  0.07860648853287722  1.0000
  C   C10       1.0  0.15726411940874763  0.0245146962415761  0.41014324862477713  1.0000
  C   C11       1.0  0.2569630126393956  0.02163483745466955  0.4379054720984063  1.0000
  C   C12       1.0  0.3064309423451357  0.9032490835240423  0.4516802456481108  1.0000
  C   C13       1.0  0.256963011794892  0.7865268681420595  0.4379054043111839  1.0000
  C   C14       1.0  0.15726412979967996  0.786999638836552  0.41014333113460455  1.0000
  C   C15       1.0  0.10790067023685519  0.9065871994584064  0.39639751605747087  1.0000
  Cl  Cl1       1.0  0.43097861374260127  0.9011549697549259  0.4863617778952185  1.0000
  H   H7        1.0  0.11970929161237764  0.35290259928121803  0.3996848983194876  1.0000
  H   H8        1.0  0.29661568531020355  0.11101471096201054  0.44894705933125256  1.0000
  H   H9        1.0  0.2966156470261777  0.6958135171520724  0.448946955775058  1.0000
  H   H10       1.0  0.031009858198813398  0.9078799064004026  0.37498641038393954  1.0000
  H   H11       1.0  0.1197092872019931  0.4598746351851581  0.3996851704503149  1.0000
  C   C16       1.0  0.1568025785888562  0.4017447518673294  0.9868783585644688  1.0000
  C   C17       1.0  0.06814865518099733  0.41001200488439227  0.05955916122946947  1.0000
  C   C18       1.0  0.9812377629256867  0.4308370172328785  0.9833029954010799  1.0000
  C   C19       1.0  0.9835159190897652  0.441826649442265  0.8318042955535017  1.0000
  C   C20       1.0  0.07058969525494205  0.43165327064460834  0.758114062076245  1.0000
  C   C21       1.0  0.1577257202628077  0.40976951289622665  0.8334081976133382  1.0000
  C   C22       1.0  0.8890021533949043  0.43979955116810165  0.0631630108441057  1.0000
  O   O1        1.0  0.8825537202486622  0.38955909380797643  0.19053363044000093  1.0000
  N   N3        1.0  0.8068989717803916  0.5056641957469185  0.9996265463569179  1.0000
  H   H12       1.0  0.3909860235855564  0.45133479355989164  0.08683842976652922  1.0000
  H   H13       1.0  0.9178777351811304  0.45466305898579384  0.7691811594345892  1.0000
  H   H14       1.0  0.31557293540740233  0.43714718415144627  0.5504864239833398  1.0000
  H   H15       1.0  0.8115473835953887  0.5617269582393174  0.9019607204194405  1.0000
  H   H16       1.0  0.7416597190318298  0.5055180758149806  0.05586900400591154  1.0000
  Zn  Zn1       1.0  0.05150084845963929  0.4057587050077098  0.4101453462695832  1.0000
  Zn  Zn2       1.0  0.2630181785866297  0.40575496285412493  0.4101405187131797  1.0000
  C   C23       1.0  0.15754904805151426  0.4030806578690688  0.6733959079991405  1.0000
  C   C24       1.0  0.1569722889117566  0.4084346493906388  0.14689009840048528  1.0000
  C   C25       1.0  0.15725291282240494  0.6428192762716027  0.4043995734809127  1.0000
  C   C26       1.0  0.15726835204851897  0.16869447191224562  0.4158865097652673  1.0000
  O   O2        1.0  0.23729896969757844  0.41067275604785686  0.20058966798202582  1.0000
  O   O3        1.0  0.2377591262017198  0.40083872766017303  0.6196922594983678  1.0000
  O   O4        1.0  0.23751891281910661  0.5944307081554108  0.4024758162059541  1.0000
  O   O5        1.0  0.23753911078580592  0.2170807838166764  0.4178060032041442  1.0000
  O   O6        1.0  0.07697984407997095  0.5944328840477774  0.4024798617726848  1.0000
  O   O7        1.0  0.07722005737443836  0.40084246263101686  0.619696228212611  1.0000
  O   O8        1.0  0.07675989904478797  0.4106764293495907  0.20059190376500724  1.0000
  O   O9        1.0  0.07700004024690865  0.2170844488569718  0.41780834705148684  1.0000
