data_image0
_chemical_formula_structural       NC12NC2H8C6NH7C6NCOH5Zn2C4O8
_chemical_formula_sum              "N4 C31 H20 O9 Zn2"
_cell_length_a       19.240039667572717
_cell_length_b       9.274771166103584
_cell_length_c       9.27373355559583
_cell_angle_alpha    86.06900368676713
_cell_angle_beta     90.0110552776814
_cell_angle_gamma    90.59704977044065

_space_group_name_H-M_alt    "P 1"
_space_group_IT_number       1

loop_
  _space_group_symop_operation_xyz
  'x, y, z'

loop_
  _atom_site_type_symbol
  _atom_site_label
  _atom_site_symmetry_multiplicity
  _atom_site_fract_x
  _atom_site_fract_y
  _atom_site_fract_z
  _atom_site_occupancy
  N   N1        1.0  0.6621729664414869  0.5615583138367212  0.4074061726809153  1.0000
  C   C1        1.0  0.6020245980793855  0.5615584061394703  0.40740608158460273  1.0000
  C   C2        1.0  0.527206561570183  0.5615585347743748  0.40740592897813865  1.0000
  C   C3        1.0  0.4903900500348722  0.4911879016632316  0.5222947854291634  1.0000
  C   C4        1.0  0.4177186974290473  0.49106577576386806  0.5223910461313253  1.0000
  C   C5        1.0  0.3808743271121618  0.5615586348760824  0.40740567612666956  1.0000
  C   C6        1.0  0.4184056362574128  0.632051703991019  0.2924205216366629  1.0000
  C   C7        1.0  0.49107571892141433  0.631929317979922  0.29251691875289676  1.0000
  C   C8        1.0  0.3036692362181244  0.5615585463707795  0.40740557039795605  1.0000
  C   C9        1.0  0.2658563638314426  0.43625783069414426  0.45409725926891165  1.0000
  C   C10       1.0  0.19318625696269442  0.4363754779113756  0.4539956986738827  1.0000
  C   C11       1.0  0.1573369485841932  0.5615584036231145  0.4074056382502913  1.0000
  C   C12       1.0  0.0825189108351982  0.5615582802489291  0.4074059144250884  1.0000
  N   N2        1.0  0.022370593789317897  0.5615582373874148  0.4074061457968621  1.0000
  C   C13       1.0  0.19443515147672957  0.6867414129271993  0.36081551898049385  1.0000
  C   C14       1.0  0.26710643018839664  0.6868592582697158  0.3607137775887505  1.0000
  H   H1        1.0  0.517839625004502  0.4367134909124992  0.6119958971950616  1.0000
  H   H2        1.0  0.3903647340854939  0.4374910819881923  0.6133284803200212  1.0000
  H   H3        1.0  0.39157306895547617  0.6856264272085622  0.2014830309656488  1.0000
  H   H4        1.0  0.5190559149004552  0.6864036206521589  0.2028161132470934  1.0000
  H   H5        1.0  0.2924573158670418  0.3376036395806923  0.48886315322373  1.0000
  H   H6        1.0  0.16498427681265038  0.3387323076953632  0.48990611551842744  1.0000
  H   H7        1.0  0.16720730804446307  0.7843845560632536  0.3249051183320908  1.0000
  H   H8        1.0  0.29469195740444026  0.7855135367919377  0.32594783379122827  1.0000
  C   C15       1.0  0.8401414121044728  0.1379701743974171  0.4081916908464236  1.0000
  C   C16       1.0  0.8241288222675828  0.21989495565829276  0.27931080801421704  1.0000
  C   C17       1.0  0.8146053566083435  0.15345281825835344  0.14961223063258444  1.0000
  C   C18       1.0  0.8211307791186664  0.0036983387504747564  0.14785511715080268  1.0000
  C   C19       1.0  0.8358578758355768  0.9204351178311534  0.27496555366558795  1.0000
  C   C20       1.0  0.844408778202316  0.9851354759331437  0.4066331031509044  1.0000
  N   N3        1.0  0.799019580301571  0.23846188678795377  0.01931487210757133  1.0000
  H   H9        1.0  0.9184079929759387  0.2210174859145564  0.7236028543367028  1.0000
  H   H10       1.0  0.8206243058357652  0.3364817193417482  0.2787572022113709  1.0000
  H   H11       1.0  0.8141323884046789  0.9511395341047184  0.04806514711745514  1.0000
  H   H12       1.0  0.8389202717142106  0.8042267790766533  0.2708380185471393  1.0000
  H   H13       1.0  0.8943077637270983  0.6903735203535605  0.6212243718298445  1.0000
  H   H14       1.0  0.7942308923667649  0.35053528595311945  0.019268063019719953  1.0000
  H   H15       1.0  0.7920869716316035  0.18994574123143426  0.9218950326130573  1.0000
  C   C21       1.0  0.8422124268684313  0.5570081289403348  0.9841937381376975  1.0000
  C   C22       1.0  0.7782903137113594  0.5487289636350083  0.05816044872302251  1.0000
  C   C23       1.0  0.715059161461134  0.5521394580770109  0.9832047049948619  1.0000
  C   C24       1.0  0.7157552145327407  0.5685178910049307  0.8318268367807753  1.0000
  C   C25       1.0  0.7786214024466571  0.5746446153796358  0.7566600940014281  1.0000
  C   C26       1.0  0.8423377502760726  0.5660974637113383  0.8306310479824481  1.0000
  N   N4        1.0  0.6509472745748465  0.5470802735821934  0.0632285148064571  1.0000
  C   C27       1.0  0.5879946292273994  0.4806563425196322  0.01656831542543835  1.0000
  O   O1        1.0  0.5872446296839818  0.404320295436013  0.9093579278443595  1.0000
  H   H16       1.0  0.006499680619138636  0.6571683224531564  0.08032286822273571  1.0000
  H   H17       1.0  0.6678027981667888  0.5781218762790366  0.7711945665628606  1.0000
  H   H18       1.0  0.953505334096996  0.6274603002105148  0.5454118853277152  1.0000
  H   H19       1.0  0.6508915579577113  0.5854339455767197  0.16657694959197822  1.0000
  H   H20       1.0  0.5405507605261889  0.49275358499282346  0.07696691130702349  1.0000
  Zn  Zn1       1.0  0.7661182120004885  0.5615545299756841  0.40741448218031007  1.0000
  Zn  Zn2       1.0  0.9184253094738666  0.5615503813265863  0.4074096199209792  1.0000
  C   C28       1.0  0.8422835660745116  0.5586329723944767  0.6706468256034137  1.0000
  C   C29       1.0  0.8422616277774032  0.5644737604036463  0.1441774145503481  1.0000
  C   C30       1.0  0.8435977188602859  0.8249414986292589  0.4011846125764622  1.0000
  C   C31       1.0  0.8409474143015637  0.2981635019602584  0.41363970760397256  1.0000
  O   O2        1.0  0.9000778580889166  0.5669714271668329  0.19786756419911233  1.0000
  O   O3        1.0  0.9000648930561117  0.5561310642653823  0.6169525727441274  1.0000
  O   O4        1.0  0.9011253091039637  0.7711785832443243  0.3993599265004532  1.0000
  O   O5        1.0  0.8990173901049471  0.35192391734760897  0.41546010236533093  1.0000
  O   O6        1.0  0.7855260793944772  0.7711809939575666  0.3993639997300336  1.0000
  O   O7        1.0  0.7844656720617592  0.556135207190134  0.61695656594111  1.0000
  O   O8        1.0  0.784478636631034  0.5669755012187606  0.19786982474671944  1.0000
  O   O9        1.0  0.7834181686082511  0.35192798224272304  0.41546247098447014  1.0000
