data_image0
_chemical_formula_structural       NC6NC2H4C9H8C6NH7Zn2C4O8
_chemical_formula_sum              "N3 C27 H19 Zn2 O8"
_cell_length_a       14.927258858638513
_cell_length_b       9.275152443626249
_cell_length_c       9.274774538082514
_cell_angle_alpha    84.86265069898316
_cell_angle_beta     90.34966586359073
_cell_angle_gamma    90.5735452640029

_space_group_name_H-M_alt    "P 1"
_space_group_IT_number       1

loop_
  _space_group_symop_operation_xyz
  'x, y, z'

loop_
  _atom_site_type_symbol
  _atom_site_label
  _atom_site_symmetry_multiplicity
  _atom_site_fract_x
  _atom_site_fract_y
  _atom_site_fract_z
  _atom_site_occupancy
  N   N1        1.0  0.8474175716066229  0.5927006276510596  0.40254942853896303  1.0000
  C   C1        1.0  0.7698910803015598  0.5927005990382286  0.4025494392387903  1.0000
  C   C2        1.0  0.6734585732853465  0.5927007146148877  0.4025493889216034  1.0000
  C   C3        1.0  0.6257850181106311  0.5701051348753199  0.27579370546495907  1.0000
  C   C4        1.0  0.5320737064268434  0.5701051616842145  0.27579357175861685  1.0000
  C   C5        1.0  0.4856425082609328  0.5927005368348359  0.4025494081862204  1.0000
  C   C6        1.0  0.38920993425317946  0.5927006524145122  0.4025493578630919  1.0000
  N   N2        1.0  0.3116834429481164  0.592700623801681  0.40254936856291934  1.0000
  C   C7        1.0  0.5333159964441079  0.6152961165774213  0.5293050916369233  1.0000
  C   C8        1.0  0.6270273081278958  0.6152960897685271  0.5293052253432653  1.0000
  H   H1        1.0  0.6609979009409144  0.5525245009969475  0.1771705087945732  1.0000
  H   H2        1.0  0.4958942466378819  0.5525246986528148  0.17717050317137284  1.0000
  H   H3        1.0  0.4981031809420728  0.6328767391922205  0.6279283965573927  1.0000
  H   H4        1.0  0.6632067689307217  0.6328766492067968  0.6279284037550337  1.0000
  C   C9        1.0  0.07691762848189755  0.16905549436133605  0.4040229125305379  1.0000
  C   C10       1.0  0.04414245475174239  0.25286237149886026  0.28140709724936874  1.0000
  C   C11       1.0  0.0196859221454122  0.1885084882155541  0.1564956072803918  1.0000
  C   C12       1.0  0.02761863591008829  0.0392080658615106  0.15172672194880166  1.0000
  C   C13       1.0  0.05863813522757689  0.9537220635353312  0.27330627485846826  1.0000
  C   C14       1.0  0.082191958963374  0.016334560284104294  0.40108838977898187  1.0000
  C   C15       1.0  0.0028640826414450004  0.9731846927445059  0.022373018158564625  1.0000
  C   C16       1.0  0.9821378916518676  0.9178723006574476  0.9140595724566961  1.0000
  C   C17       1.0  0.9569907466989881  0.8507484981021021  0.7826402021341772  1.0000
  H   H5        1.0  0.20671978965072624  0.24819751829646017  0.6922676823841336  1.0000
  H   H6        1.0  0.0394217538983255  0.36938381013080135  0.28095310250865624  1.0000
  H   H7        1.0  0.9953848510881212  0.25556204009615857  0.06301988035518868  1.0000
  H   H8        1.0  0.062394863280531565  0.8374470856758143  0.26927998848731494  1.0000
  H   H9        1.0  0.1667236163502475  0.7193187992616993  0.5982381351348349  1.0000
  H   H10       1.0  0.9734180557540562  0.7339092821286256  0.796123772610255  1.0000
  H   H11       1.0  0.884003480391875  0.8635030836851043  0.7628814755411506  1.0000
  H   H12       1.0  0.994473370982876  0.9039103570042943  0.6892171722958884  1.0000
  C   C18       1.0  0.07797004309373358  0.5963848146746478  0.9787265755216423  1.0000
  C   C19       1.0  0.1419774926757169  0.6815186246054363  0.04516822282904065  1.0000
  C   C20       1.0  0.20992997431185956  0.7547686869577892  0.9641496019173101  1.0000
  C   C21       1.0  0.2144237358649862  0.7432171548306885  0.8152121941126191  1.0000
  C   C22       1.0  0.15072348186474838  0.661261369461309  0.7470569773576603  1.0000
  C   C23       1.0  0.08113952906158  0.5890051665537441  0.8263847604199674  1.0000
  N   N3        1.0  0.27496460499793773  0.8397017920662325  0.033597189383986155  1.0000
  H   H13       1.0  0.9423083528916298  0.3143710873323085  0.10562363868234015  1.0000
  H   H14       1.0  0.14040752947923552  0.6883607437952748  0.1611646551773771  1.0000
  H   H15       1.0  0.26688307605573314  0.7989555666444202  0.7514883715700429  1.0000
  H   H16       1.0  0.15469322603116797  0.6572484545302988  0.6308978258161813  1.0000
  H   H17       1.0  0.9870426584045501  0.40345086416613757  0.5609456431361544  1.0000
  H   H18       1.0  0.27241949948105004  0.8487486312297144  0.144935779487827  1.0000
  H   H19       1.0  0.32612386073792643  0.8943057262920224  0.9741659808098193  1.0000
  Zn  Zn1       1.0  0.9813946884795512  0.5926966882512471  0.4025577642170508  1.0000
  Zn  Zn2       1.0  0.17770630766684045  0.5926926433547424  0.40255291318135167  1.0000
  C   C24       1.0  0.08050265879565838  0.5846529093036579  0.6661791197219771  1.0000
  C   C25       1.0  0.07860049292837079  0.600738241291487  0.13893169297718289  1.0000
  C   C26       1.0  0.0811688764355914  0.8562308235004671  0.39589175060196324  1.0000
  C   C27       1.0  0.07793419779910238  0.32915859315831053  0.4092191450492917  1.0000
  O   O1        1.0  0.1533112748680295  0.6021914622063289  0.1926961747424485  1.0000
  O   O2        1.0  0.15478784514914135  0.5831955336946404  0.612410544433559  1.0000
  O   O3        1.0  0.15532482564491434  0.8024981209356004  0.3941515763706851  1.0000
  O   O4        1.0  0.15277422704400867  0.38288888622894257  0.41095503455523796  1.0000
  O   O5        1.0  0.006326702110842407  0.8025004453800639  0.3941556428372226  1.0000
  O   O6        1.0  0.005789732112865039  0.5831995920784889  0.6124145279420599  1.0000
  O   O7        1.0  0.004313155090113203  0.6021954854242202  0.19269842318390418  1.0000
  O   O8        1.0  0.0037761076028008937  0.38289289818627736  0.4109573912408371  1.0000
