data_image0
_chemical_formula_structural       NC9NC5H8C6SCH8C8H10Zn2C4O8
_chemical_formula_sum              "N2 C33 H26 S1 Zn2 O8"
_cell_length_a       17.807436237873137
_cell_length_b       10.302809429070853
_cell_length_c       9.27565708386181
_cell_angle_alpha    85.85419947876746
_cell_angle_beta     88.90332225934053
_cell_angle_gamma    88.39000425637651

_space_group_name_H-M_alt    "P 1"
_space_group_IT_number       1

loop_
  _space_group_symop_operation_xyz
  'x, y, z'

loop_
  _atom_site_type_symbol
  _atom_site_label
  _atom_site_symmetry_multiplicity
  _atom_site_fract_x
  _atom_site_fract_y
  _atom_site_fract_z
  _atom_site_occupancy
  N   N1        1.0  0.7146525027784371  0.3795938131804611  0.39829292443100867  1.0000
  C   C1        1.0  0.6541203090822696  0.3443556733042304  0.3860554315124036  1.0000
  C   C2        1.0  0.5788249132485117  0.3005233078336951  0.3708333190545282  1.0000
  C   C3        1.0  0.5612605126111004  0.2285667957017763  0.25427128488628603  1.0000
  C   C4        1.0  0.4881529823095245  0.18589704012025687  0.23939987022733208  1.0000
  C   C5        1.0  0.4315612971046358  0.21480620790987984  0.341054465503567  1.0000
  C   C6        1.0  0.3538664261685975  0.16957456910500746  0.3253411125019472  1.0000
  C   C7        1.0  0.2915598697695475  0.25144496947328016  0.35413552685260113  1.0000
  C   C8        1.0  0.21830996599218844  0.2085723110041098  0.3392792992984501  1.0000
  C   C9        1.0  0.1549514928391851  0.29313519576149943  0.36847767773034135  1.0000
  N   N2        1.0  0.1040242723646084  0.3611179105722518  0.3919523675246654  1.0000
  C   C10       1.0  0.2067832010503343  0.0835712147978043  0.2956005169177265  1.0000
  C   C11       1.0  0.2682324297374084  0.0016869213512116226  0.2667967892892993  1.0000
  C   C12       1.0  0.3413639181321722  0.04416407257332479  0.2814281819909479  1.0000
  C   C13       1.0  0.4498160018171766  0.2872581117611022  0.4578598632653159  1.0000
  C   C14       1.0  0.5229771846967198  0.32973669606908806  0.4725584923730947  1.0000
  H   H1        1.0  0.604015357155202  0.2057037755179003  0.17466407124348193  1.0000
  H   H2        1.0  0.47565661184034574  0.1317863580212022  0.14735115141440347  1.0000
  H   H3        1.0  0.2999123800841137  0.3490350469458867  0.3861915011809637  1.0000
  H   H4        1.0  0.15037135920635  0.04948870858856558  0.2838392944002388  1.0000
  H   H5        1.0  0.2591875992775515  0.9049102548401747  0.2334082574915792  1.0000
  H   H6        1.0  0.38810036983966406  0.978336901798633  0.26028283382217143  1.0000
  H   H7        1.0  0.4077715407904015  0.3095891901795021  0.5389040790731283  1.0000
  H   H8        1.0  0.5360071322019209  0.38506200495178067  0.5634509180268041  1.0000
  C   C15       1.0  0.9093419642942293  0.9891023176207421  0.3951288744269475  1.0000
  C   C16       1.0  0.9532575005130595  0.9940961288350356  0.26757135326188564  1.0000
  C   C17       1.0  0.9749029867742645  0.8796108530272595  0.2039428398940526  1.0000
  C   C18       1.0  0.9532574061285286  0.758944975034852  0.26757127732715813  1.0000
  C   C19       1.0  0.9093419343820328  0.7515991803741839  0.39512886734639796  1.0000
  C   C20       1.0  0.8875794477160847  0.867298754348215  0.4582572684730943  1.0000
  S   S1        1.0  0.031149419083190678  0.8874760347566197  0.041135441204561904  1.0000
  C   C21       1.0  0.9502692677173891  0.8990617757276176  0.9234868403936574  1.0000
  H   H9        1.0  0.8927677541213549  0.31453673238411306  0.44316853696029646  1.0000
  H   H10       1.0  0.9707002943381564  0.0866465038654656  0.2169035516161912  1.0000
  H   H11       1.0  0.9707001290484991  0.6712961177011726  0.21690344197400813  1.0000
  H   H12       1.0  0.8536932488287723  0.8625412871544433  0.5566334505027144  1.0000
  H   H13       1.0  0.8927665340453043  0.42152101497014804  0.44316697165707825  1.0000
  H   H14       1.0  0.9157040413722148  0.8113356173545607  0.9432720766437933  1.0000
  H   H15       1.0  0.9157047473561221  0.9875705430982916  0.9432715411288503  1.0000
  H   H16       1.0  0.9701842032392222  0.9055314533113735  0.8092210453893625  1.0000
  C   C22       1.0  0.91125575169935  0.3683027859882423  0.9717778012575943  1.0000
  C   C23       1.0  0.9501751264257805  0.46542419951275665  0.036084410951261914  1.0000
  C   C24       1.0  0.9824603430375931  0.5684171093732842  0.9518200841447814  1.0000
  C   C25       1.0  0.9769412683429682  0.5733499543412164  0.8012710695513751  1.0000
  C   C26       1.0  0.9396446515340448  0.4767328187945059  0.73548543104955  1.0000
  C   C27       1.0  0.9074281388765816  0.3723986843979355  0.8184799160686937  1.0000
  C   C28       1.0  0.024853321272417794  0.670516887080432  0.022329647403872773  1.0000
  C   C29       1.0  0.10737964797495975  0.6295540323635849  0.038830409525721234  1.0000
  H   H17       1.0  0.877530884771472  0.1627861871990708  0.27015404792293785  1.0000
  H   H18       1.0  0.9540597952343033  0.46283287923576816  0.15274617931827159  1.0000
  H   H19       1.0  0.0022705735046051347  0.6514990099234433  0.7344723693009158  1.0000
  H   H20       1.0  0.9377112199175028  0.48188407599136673  0.6185425941737313  1.0000
  H   H21       1.0  0.8187185560764549  0.22697901663815115  0.5520900784819992  1.0000
  H   H22       1.0  0.02073866225971411  0.7649641020554172  0.9565563326667688  1.0000
  H   H23       1.0  0.9998639960831113  0.6864064445115722  0.1306130657715685  1.0000
  H   H24       1.0  0.11272825685640007  0.536941586166273  0.1074915071158555  1.0000
  H   H25       1.0  0.13381971679989335  0.6163506553151327  0.9312250487520858  1.0000
  H   H26       1.0  0.13759396328062445  0.7060552547544555  0.09090500180269398  1.0000
  Zn  Zn1       1.0  0.8270167457040283  0.3742586428856469  0.39647151427250127  1.0000
  Zn  Zn2       1.0  0.9916599576644005  0.3664425552326787  0.39378562960646585  1.0000
  C   C30       1.0  0.9081499655492837  0.36645245106838487  0.6584350911664723  1.0000
  C   C31       1.0  0.9105285350781678  0.3742503005063183  0.1318221648808955  1.0000
  C   C32       1.0  0.9093640394241157  0.60744342418495  0.3893840206037774  1.0000
  C   C33       1.0  0.9093144046747288  0.1332577705986191  0.40087331322082354  1.0000
  O   O1        1.0  0.9727657154307995  0.3732745121538762  0.18451523610347764  1.0000
  O   O2        1.0  0.9708731753660691  0.36149502831083763  0.6037030806295616  1.0000
  O   O3        1.0  0.9718527063204939  0.5560983340861687  0.3864424513096889  1.0000
  O   O4        1.0  0.9717861287834489  0.1786712178101506  0.40177575824592376  1.0000
  O   O5        1.0  0.8468905184003661  0.5620299829767986  0.38848138654202113  1.0000
  O   O6        1.0  0.8459109877899341  0.3674282366612245  0.6057419389936383  1.0000
  O   O7        1.0  0.8478035357401357  0.3792076668748887  0.18655236118281726  1.0000
  O   O8        1.0  0.8468239486010972  0.18460436376818068  0.4038129914116677  1.0000
