data_image0
_chemical_formula_structural       NC9NC5H8C6NCOCH9C9H10Zn2C4O8
_chemical_formula_sum              "N3 C35 H27 O9 Zn2"
_cell_length_a       17.807436237873137
_cell_length_b       10.300268703208214
_cell_length_c       9.272679976505533
_cell_angle_alpha    86.02026342835288
_cell_angle_beta     89.80029134641114
_cell_angle_gamma    88.37019024828581

_space_group_name_H-M_alt    "P 1"
_space_group_IT_number       1

loop_
  _space_group_symop_operation_xyz
  'x, y, z'

loop_
  _atom_site_type_symbol
  _atom_site_label
  _atom_site_symmetry_multiplicity
  _atom_site_fract_x
  _atom_site_fract_y
  _atom_site_fract_z
  _atom_site_occupancy
  N   N1        1.0  0.7013740272048353  0.3763699382211665  0.3983391198174828  1.0000
  C   C1        1.0  0.6407495452219554  0.3410954195902385  0.3861021014484516  1.0000
  C   C2        1.0  0.5653393527691902  0.29721780291278765  0.3708805792785759  1.0000
  C   C3        1.0  0.5468431276142632  0.224982449088297  0.25432236474933934  1.0000
  C   C4        1.0  0.473623414881367  0.1822685240318329  0.23945152637310632  1.0000
  C   C5        1.0  0.4178511549029539  0.2114121866734238  0.3411028804174705  1.0000
  C   C6        1.0  0.3400377796326725  0.16613384025365852  0.3253901367127905  1.0000
  C   C7        1.0  0.2779485834271904  0.2480895707766331  0.3541834372366792  1.0000
  C   C8        1.0  0.2045866611172296  0.20517272468976966  0.3393277860314634  1.0000
  C   C9        1.0  0.14144828853232846  0.2898225329076498  0.368525030909292  1.0000
  N   N2        1.0  0.0906980235376215  0.357875130879363  0.39199880936677944  1.0000
  C   C10       1.0  0.1927303406589599  0.08004198163474885  0.2956506953878715  1.0000
  C   C11       1.0  0.253962136329966  0.9980723336642652  0.2668480819130301  1.0000
  C   C12       1.0  0.3272038972573429  0.040593068774526404  0.2814789063153047  1.0000
  C   C13       1.0  0.4370395605528322  0.28414360296808905  0.4579044496485374  1.0000
  C   C14       1.0  0.5103115614898304  0.32666592172486664  0.4726025083601111  1.0000
  H   H1        1.0  0.588956312971983  0.20193573508900853  0.17471768995759662  1.0000
  H   H2        1.0  0.4603906420783401  0.12793833765254226  0.14740581671149044  1.0000
  H   H3        1.0  0.2865417841913218  0.34577629797819154  0.3862381544512241  1.0000
  H   H4        1.0  0.1362298454855531  0.04592445711705517  0.28388992952421876  1.0000
  H   H5        1.0  0.24466563517420098  0.9011962494860175  0.23346084655004476  1.0000
  H   H6        1.0  0.3737818711624664  0.9747017712725145  0.2603343912466587  1.0000
  H   H7        1.0  0.3956485304813191  0.30666144867802236  0.5389460832853987  1.0000
  H   H8        1.0  0.5240682816539612  0.3822084636469534  0.5634919576306676  1.0000
  C   C15       1.0  0.8961159639884799  0.9857711691569416  0.39517620558826994  1.0000
  C   C16       1.0  0.9082418427129748  0.9934958951450206  0.24511665635379035  1.0000
  C   C17       1.0  0.9153779584455426  0.8800415027816033  0.16979280758426607  1.0000
  C   C18       1.0  0.9080720265329792  0.758344703849442  0.24515538761604125  1.0000
  C   C19       1.0  0.8959632955736819  0.7484637087984499  0.3951741057343483  1.0000
  C   C20       1.0  0.8903323106595875  0.8627580964899263  0.46947548539575124  1.0000
  N   N3        1.0  0.9266217471281509  0.8864130118241157  0.015815045630714016  1.0000
  C   C21       1.0  0.9704449613604759  0.9828778519935414  0.9376362590544458  1.0000
  O   O1        1.0  0.01310228691596915  0.05432898352432858  0.003515136169387035  1.0000
  C   C22       1.0  0.9698952654276304  0.9926203509162419  0.7761467190839872  1.0000
  H   H9        1.0  0.890412127003864  0.31033242312138687  0.45190816600074074  1.0000
  H   H10       1.0  0.9106471856693232  0.08780612403549815  0.18642805716202515  1.0000
  H   H11       1.0  0.9125231451640544  0.6713436387162288  0.18606973474862332  1.0000
  H   H12       1.0  0.8810004790019549  0.8559900032786102  0.5852178652095401  1.0000
  H   H13       1.0  0.8902630323956009  0.41738600929107755  0.45169725833470437  1.0000
  H   H14       1.0  0.9057212728050921  0.8115623457135253  0.958229229860625  1.0000
  H   H15       1.0  0.9122525861010068  0.9780275901624484  0.7362123918535732  1.0000
  H   H16       1.0  0.9883685711938632  0.09009827395111736  0.7338083003043163  1.0000
  H   H17       1.0  0.008527481409175579  0.9167722125766848  0.7358318524986789  1.0000
  C   C23       1.0  0.8945171717291825  0.36412326278465196  0.9718373037657182  1.0000
  C   C24       1.0  0.9455845714800858  0.2813687956177131  0.05127235401334462  1.0000
  C   C25       1.0  0.0003492292849329743  0.20896200952301625  0.9817798985404478  1.0000
  C   C26       1.0  0.005898363568254347  0.21692606146623672  0.830827229185918  1.0000
  C   C27       1.0  0.953929617269305  0.2979608860490448  0.7500225915079555  1.0000
  C   C28       1.0  0.8975620899755274  0.37011161192102593  0.8185130744960651  1.0000
  C   C29       1.0  0.06766998011457903  0.13576433852891312  0.7636734816740374  1.0000
  C   C30       1.0  0.04979451428265702  0.07718348074932568  0.6218650748058034  1.0000
  C   C31       1.0  0.10260911471264665  0.19095245642900013  0.6231858083087158  1.0000
  H   H18       1.0  0.7813898846006473  0.4572991399390953  0.24662998593466412  1.0000
  H   H19       1.0  0.9443966533305104  0.27487469323264846  0.16836634065736167  1.0000
  H   H20       1.0  0.03925025111767888  0.14710030562520848  0.04677914289976259  1.0000
  H   H21       1.0  0.9556088762457411  0.303495031272941  0.633216307172412  1.0000
  H   H22       1.0  0.7269900467973309  0.5003826406324594  0.7065874463791038  1.0000
  H   H23       1.0  0.10694377320890909  0.07548045958234195  0.8352205162546946  1.0000
  H   H24       1.0  0.9939909916944796  0.10199512474320628  0.5730921188716014  1.0000
  H   H25       1.0  0.07899172033720081  0.9823077195564648  0.6070961476067982  1.0000
  H   H26       1.0  0.07892369047685488  0.2848113208632536  0.5750978414928904  1.0000
  H   H27       1.0  0.1626829187274923  0.1625607531972899  0.6091848200833256  1.0000
  Zn  Zn1       1.0  0.8137245521697605  0.37102933017453843  0.3965177805303006  1.0000
  Zn  Zn2       1.0  0.978347525116421  0.3632052370654393  0.3938320002362723  1.0000
  C   C32       1.0  0.89698590237651  0.3638063102298833  0.6584732234103332  1.0000
  C   C33       1.0  0.8950879727683162  0.3704298111156732  0.13187666951702193  1.0000
  C   C34       1.0  0.8959676369991525  0.6042581179208617  0.3894298880712761  1.0000
  C   C35       1.0  0.8961061825600529  0.12997644640780548  0.40092008263502654  1.0000
  O   O2        1.0  0.9577531002387702  0.36957147830832104  0.18456810303178406  1.0000
  O   O3        1.0  0.9592658009599214  0.3587253547923979  0.6037429298127066  1.0000
  O   O4        1.0  0.9584427020073673  0.5528932810592535  0.3864885467365302  1.0000
  O   O5        1.0  0.9585761426260655  0.17540356323659223  0.40182237893384026  1.0000
  O   O6        1.0  0.8334958784823472  0.5588310066747246  0.3885274027416752  1.0000
  O   O7        1.0  0.8343189768427532  0.36466464009609734  0.6057817089478468  1.0000
  O   O8        1.0  0.832806269947349  0.37551070609706727  0.18660514893628521  1.0000
  O   O9        1.0  0.8336293127221339  0.181342782501551  0.4038595329214043  1.0000
