data_image0
_chemical_formula_structural       NC10NC3NH7C13OH12C15H12Zn2C4O8
_chemical_formula_sum              "N3 C45 H31 O9 Zn2"
_cell_length_a       19.210446455230148
_cell_length_b       10.299150109392551
_cell_length_c       10.299157797200023
_cell_angle_alpha    85.5240492146119
_cell_angle_beta     90.0131967510761
_cell_angle_gamma    89.9285097185194

_space_group_name_H-M_alt    "P 1"
_space_group_IT_number       1

loop_
  _space_group_symop_operation_xyz
  'x, y, z'

loop_
  _atom_site_type_symbol
  _atom_site_label
  _atom_site_symmetry_multiplicity
  _atom_site_fract_x
  _atom_site_fract_y
  _atom_site_fract_z
  _atom_site_occupancy
  N   N1        1.0  0.6549172270474071  0.4207125886375691  0.5667897647406155  1.0000
  C   C1        1.0  0.5946881675474252  0.42292017684952676  0.5670202289861315  1.0000
  C   C2        1.0  0.5198830954282507  0.425657182046135  0.5673057447731831  1.0000
  C   C3        1.0  0.48424596635685874  0.5418906233272415  0.5823816810404174  1.0000
  C   C4        1.0  0.41158043562324154  0.5420421863148974  0.582329032884268  1.0000
  C   C5        1.0  0.37471617923229295  0.4263661685158164  0.5673920089465667  1.0000
  C   C6        1.0  0.2973943643014146  0.4250096506312111  0.5672418367685836  1.0000
  C   C7        1.0  0.2595987793519523  0.5286062022738227  0.503843822779046  1.0000
  C   C8        1.0  0.18682075973179624  0.5272039136504793  0.503735185113109  1.0000
  C   C9        1.0  0.1508368358694834  0.42246261535916857  0.5669734804786357  1.0000
  C   C10       1.0  0.07590761938456461  0.4211604908468602  0.5668370551849676  1.0000
  N   N2        1.0  0.015670011156214497  0.4201135385167191  0.5667274041406529  1.0000
  C   C11       1.0  0.18790872514323653  0.31899177198653206  0.6303464449275582  1.0000
  C   C12       1.0  0.2606886760144242  0.32011975952415095  0.6305054178385109  1.0000
  C   C13       1.0  0.4129627684556209  0.31195301330628156  0.552603678636282  1.0000
  N   N3        1.0  0.4837321240256659  0.3143980959350392  0.5527684786865137  1.0000
  H   H1        1.0  0.5123266754098194  0.6313263434929703  0.5944025413072893  1.0000
  H   H2        1.0  0.38429150319391453  0.6320593828630632  0.5957445103633046  1.0000
  H   H3        1.0  0.2862930035444533  0.6098804049359831  0.4528247038576054  1.0000
  H   H4        1.0  0.1586418186576912  0.6076499509189963  0.4540467949372569  1.0000
  H   H5        1.0  0.1605745600427386  0.2375823059342657  0.6799356491106414  1.0000
  H   H6        1.0  0.2882230523270682  0.23979247608770213  0.6816315765676726  1.0000
  H   H7        1.0  0.3867177191333939  0.22107285424908762  0.5391422240271263  1.0000
  C   C14       1.0  0.8353625820778149  0.03901327933918153  0.5669027082810567  1.0000
  C   C15       1.0  0.8341093264913796  0.027171434840650426  0.7037214493499849  1.0000
  C   C16       1.0  0.8334132754754672  0.9040329456149185  0.7728277562111914  1.0000
  C   C17       1.0  0.8339750409153196  0.791916418634476  0.7033580568703798  1.0000
  C   C18       1.0  0.8352313099756967  0.8018028268424437  0.5666257191746147  1.0000
  C   C19       1.0  0.83591965351928  0.9258114491700037  0.49919709774219073  1.0000
  C   C20       1.0  0.8320813848352053  0.8924874035041633  0.9174763446906748  1.0000
  C   C21       1.0  0.7892926518801578  0.7996584506700634  0.985509027844643  1.0000
  C   C22       1.0  0.7880162822033835  0.788875554677537  0.12162320902749135  1.0000
  C   C23       1.0  0.8299621344984642  0.8697615388414676  0.19216527009225387  1.0000
  C   C24       1.0  0.8720850331891341  0.9635450451826717  0.12477531025046462  1.0000
  C   C25       1.0  0.8733775611022008  0.9745037114605015  0.988660837544729  1.0000
  C   C26       1.0  0.8271269079598409  0.8605313529094651  0.33826035509932684  1.0000
  O   O1        1.0  0.7751080690615288  0.9437814468279803  0.37851229675439557  1.0000
  H   H8        1.0  0.8372759216997546  0.26865890264082215  0.3086510011965398  1.0000
  H   H9        1.0  0.8327066052535582  0.11393041358502098  0.7567332896558358  1.0000
  H   H10       1.0  0.8343833774392193  0.6967764665540553  0.7561945114812019  1.0000
  H   H11       1.0  0.8368866817314338  0.9341533434841011  0.39373135466224085  1.0000
  H   H12       1.0  0.8356676629837088  0.4781300959728269  0.5140336747282853  1.0000
  H   H13       1.0  0.7559919436860258  0.7367217223094971  0.9334031214677139  1.0000
  H   H14       1.0  0.754165331173279  0.7175860780676891  0.1720074925400431  1.0000
  H   H15       1.0  0.9041036973565673  0.028036634571906745  0.17762768651541594  1.0000
  H   H16       1.0  0.9072520056953315  0.04623832486098477  0.9390832391961046  1.0000
  H   H17       1.0  0.8783381310175981  0.888262691962589  0.3784237973944354  1.0000
  H   H18       1.0  0.8158226345900244  0.7585167670659815  0.3760770456966235  1.0000
  H   H19       1.0  0.775386338269216  0.9340729251984216  0.4751444351484707  1.0000
  C   C27       1.0  0.8352162201606128  0.4205144699788392  0.1853721506733168  1.0000
  C   C28       1.0  0.762715472066348  0.4026540449034026  0.18556637414632718  1.0000
  C   C29       1.0  0.7261045178966774  0.393489041933211  0.06852254308660943  1.0000
  C   C30       1.0  0.7629223320909478  0.40244495288913495  0.950299119574217  1.0000
  C   C31       1.0  0.8353776464047907  0.42030165838296196  0.9481562221058849  1.0000
  C   C32       1.0  0.8711014988829312  0.42922638283285264  0.066223138455767  1.0000
  C   C33       1.0  0.6494549900998919  0.3746119293621967  0.06977417728789814  1.0000
  C   C34       1.0  0.6181483825713677  0.2876779192954937  0.9887041384062633  1.0000
  C   C35       1.0  0.5460179495568105  0.27000682181993685  0.9899142039517312  1.0000
  C   C36       1.0  0.5039095232446802  0.33826270758510946  0.07272680218107586  1.0000
  C   C37       1.0  0.5348434548486544  0.4260429513126979  0.15281988305319263  1.0000
  C   C38       1.0  0.6069731852917398  0.4437182486475517  0.1517577668315675  1.0000
  C   C39       1.0  0.42620424630376624  0.3215752288435716  0.07168338338323665  1.0000
  C   C40       1.0  0.3948822698245031  0.41540218480437646  0.9742438347614734  1.0000
  C   C41       1.0  0.3691402669582416  0.492556003902235  0.89412157901829  1.0000
  H   H20       1.0  0.9721130984590456  0.45343022458082194  0.3923605041107648  1.0000
  H   H21       1.0  0.7347181972085371  0.3940749835209856  0.27711207993250514  1.0000
  H   H22       1.0  0.7348243023962897  0.39725315692703006  0.8596735744395665  1.0000
  H   H23       1.0  0.9269884763150658  0.44299601866474436  0.06528599196806817  1.0000
  H   H24       1.0  0.8632492542571076  0.42712850091320176  0.6198596421008582  1.0000
  H   H25       1.0  0.6495297140101446  0.23225577725165403  0.925346730192441  1.0000
  H   H26       1.0  0.5229831781616733  0.20288399150324718  0.9263834458450777  1.0000
  H   H27       1.0  0.5030556690435162  0.4811565649121645  0.21583247454873924  1.0000
  H   H28       1.0  0.6294398360950386  0.5129494188704669  0.21364661687987763  1.0000
  H   H29       1.0  0.4123288627931004  0.22135004281672122  0.04827693609069074  1.0000
  H   H30       1.0  0.40404342222928713  0.3370581979671541  0.16890292176745295  1.0000
  H   H31       1.0  0.3465604997900824  0.5602943977531267  0.8237815466378198  1.0000
  Zn  Zn1       1.0  0.7590226891961303  0.4205362492869056  0.5667792695987937  1.0000
  Zn  Zn2       1.0  0.9115645371401648  0.4202792914959881  0.5667485395483814  1.0000
  C   C42       1.0  0.8353464899925495  0.4151678103650256  0.8039756044613524  1.0000
  C   C43       1.0  0.835242401840941  0.42564936632857897  0.32955233122931293  1.0000
  C   C44       1.0  0.8352514442093244  0.65762085392104  0.5615025726544123  1.0000
  C   C45       1.0  0.8353373958554942  0.18319476241203245  0.5720254328562486  1.0000
  O   O2        1.0  0.8931400259433993  0.4272695041088001  0.37792885708985424  1.0000
  O   O3        1.0  0.8932245989910003  0.41335166786957234  0.7555753816906983  1.0000
  O   O4        1.0  0.8931470682356646  0.6091355677160971  0.5597766926364468  1.0000
  O   O5        1.0  0.8932175046243251  0.23148561366809667  0.5737274487706425  1.0000
  O   O6        1.0  0.7773696696569221  0.6093299272038997  0.5598003603801871  1.0000
  O   O7        1.0  0.777447200125882  0.4135475878070098  0.7555989796180973  1.0000
  O   O8        1.0  0.7773626268018601  0.4274653792221239  0.37795089353826716  1.0000
  O   O9        1.0  0.777440105502148  0.2316814794647019  0.5737495825961735  1.0000
