data_image0
_chemical_formula_structural       NC12NC2H8C6NCSNH8C7F3H5Zn2C4O8
_chemical_formula_sum              "N4 C32 H21 S1 F3 Zn2 O8"
_cell_length_a       17.80743265337812
_cell_length_b       9.275078345756787
_cell_length_c       10.299327507215196
_cell_angle_alpha    85.37438127374396
_cell_angle_beta     91.5153373633688
_cell_angle_gamma    90.00966593732542

_space_group_name_H-M_alt    "P 1"
_space_group_IT_number       1

loop_
  _space_group_symop_operation_xyz
  'x, y, z'

loop_
  _atom_site_type_symbol
  _atom_site_label
  _atom_site_symmetry_multiplicity
  _atom_site_fract_x
  _atom_site_fract_y
  _atom_site_fract_z
  _atom_site_occupancy
  N   N1        1.0  0.7157708753508747  0.5625231776521556  0.5973353678386222  1.0000
  C   C1        1.0  0.6651336506926103  0.5953613062447247  0.5285523087275865  1.0000
  C   C2        1.0  0.6021359145137203  0.6362095541369872  0.44299483734770834  1.0000
  C   C3        1.0  0.614196481447972  0.6962235572392239  0.31622097295618  1.0000
  C   C4        1.0  0.5530970112872101  0.7354015331286465  0.23306376327977074  1.0000
  C   C5        1.0  0.4797843072229931  0.714858205458444  0.27601976385315985  1.0000
  C   C6        1.0  0.4667461982117346  0.6547121963891589  0.40326211142642127  1.0000
  C   C7        1.0  0.5287030061943551  0.6155378364546376  0.486402800050553  1.0000
  C   C8        1.0  0.3888583564431918  0.63293110583444  0.44908158606617676  1.0000
  C   C9        1.0  0.37020600068163334  0.6631111934710613  0.5760501717011057  1.0000
  C   C10       1.0  0.2968635824814446  0.6426140351591983  0.6190466178904455  1.0000
  C   C11       1.0  0.2412289378421234  0.5916542797715696  0.5359131744145453  1.0000
  C   C12       1.0  0.16574648371179432  0.5705429522081391  0.5803121257985926  1.0000
  N   N2        1.0  0.10506393554452362  0.5535708646922193  0.6160058284428576  1.0000
  C   C13       1.0  0.25918873173768153  0.5612865230731086  0.4094880414697116  1.0000
  C   C14       1.0  0.3324784256384206  0.5818001330076612  0.36623566402760394  1.0000
  H   H1        1.0  0.6707535673406247  0.7126918477694615  0.28174169760666534  1.0000
  H   H2        1.0  0.5625546727370336  0.7821687708795775  0.13516462481857405  1.0000
  H   H3        1.0  0.4333271194827178  0.7477810582260953  0.21034446276421195  1.0000
  H   H4        1.0  0.5199357863681423  0.5672319962811897  0.584181413710229  1.0000
  H   H5        1.0  0.4120844345474003  0.7043973495321251  0.6415186355022542  1.0000
  H   H6        1.0  0.2835283021142523  0.6668657534085967  0.7169945725610845  1.0000
  H   H7        1.0  0.2166006303025061  0.521407847602656  0.3444289482181795  1.0000
  H   H8        1.0  0.34527643017906384  0.5558428972761811  0.26859539498094054  1.0000
  C   C15       1.0  0.908226473372872  0.1344732610220478  0.6077653928005626  1.0000
  C   C16       1.0  0.8835824615857882  0.21781250271505437  0.49468677591556487  1.0000
  C   C17       1.0  0.8664223459395304  0.15312473164901363  0.379958014687047  1.0000
  C   C18       1.0  0.8743367224762041  0.0033698262230566025  0.3750797184330279  1.0000
  C   C19       1.0  0.8962662959278238  0.9186044728270053  0.48838809731906396  1.0000
  C   C20       1.0  0.9126154585430188  0.9816095627066125  0.6055873373246519  1.0000
  N   N3        1.0  0.8559416118468335  0.934378537372134  0.25831869814113584  1.0000
  C   C21       1.0  0.8656656918446889  0.0007009453577342362  0.12905189274435602  1.0000
  S   S1        1.0  0.8166125922142442  0.9419280179396246  0.007489920873188007  1.0000
  N   N4        1.0  0.9234155056431795  0.1053627067218963  0.10271400634873883  1.0000
  H   H9        1.0  0.9129649513141632  0.396464310002084  0.8225971730205484  1.0000
  H   H10       1.0  0.8788971968151804  0.3343096322889894  0.4941761781227463  1.0000
  H   H11       1.0  0.8467486133585603  0.22027683346796678  0.2950539032548445  1.0000
  H   H12       1.0  0.8993819613844423  0.8022497007299637  0.4852284114092525  1.0000
  H   H13       1.0  0.9783811961196468  0.6841056404776863  0.7909808113836714  1.0000
  H   H14       1.0  0.8347524200182013  0.829039509252813  0.2680197453936992  1.0000
  H   H15       1.0  0.9620761372111123  0.13051351467742456  0.1753578398911506  1.0000
  H   H16       1.0  0.9300171842653497  0.15349453041780903  0.008515598492523589  1.0000
  C   C22       1.0  0.9104932084247693  0.5580983347269493  0.2252980978871333  1.0000
  C   C23       1.0  0.9837901678756755  0.6142549707923004  0.2233798658613575  1.0000
  C   C24       1.0  0.020229766002735294  0.6450446309899038  0.10508334410769928  1.0000
  C   C25       1.0  0.9836004885586104  0.6141063585111126  0.9881337424834246  1.0000
  C   C26       1.0  0.9103487569599439  0.5579844920622707  0.9880546766285034  1.0000
  C   C27       1.0  0.8741111380374534  0.5308432492943075  0.10712315329607458  1.0000
  C   C28       1.0  0.09991993719473191  0.7004170488301011  0.10448166288364868  1.0000
  F   F1        1.0  0.11347753138536153  0.7843466350155881  0.20778555326478745  1.0000
  F   F2        1.0  0.1489418465638095  0.5842729660837024  0.11502595570336949  1.0000
  F   F3        1.0  0.11327106916853592  0.7843318104591707  0.990132302888413  1.0000
  H   H17       1.0  0.7726703355094114  0.4497009052937971  0.43635475980177146  1.0000
  H   H18       1.0  0.012702279364586792  0.6338798057857988  0.314105815025322  1.0000
  H   H19       1.0  0.012382476287774445  0.6336253760109167  0.8970771947820291  1.0000
  H   H20       1.0  0.817617086462078  0.4875637671525273  0.10779665282304829  1.0000
  H   H21       1.0  0.8826650107798617  0.5340295391192089  0.6607647685441447  1.0000
  Zn  Zn1       1.0  0.828112425298443  0.5599358814029219  0.602730756482212  1.0000
  Zn  Zn2       1.0  0.9927223201381763  0.5561463935596482  0.610621063360903  1.0000
  C   C29       1.0  0.9103445937959052  0.5522597985461872  0.843892032083753  1.0000
  C   C30       1.0  0.9104919585806754  0.5638242549761698  0.3694599967116512  1.0000
  C   C31       1.0  0.9117829682831161  0.8214836140074645  0.6008235762253262  1.0000
  C   C32       1.0  0.9090535189319882  0.294598707821812  0.6125285235735574  1.0000
  O   O1        1.0  0.9729601037389858  0.5643015424820088  0.4208363934110937  1.0000
  O   O2        1.0  0.9728115444404132  0.5489052893609143  0.7985038246784162  1.0000
  O   O3        1.0  0.9739722076672084  0.7663069443303056  0.6022242826014546  1.0000
  O   O4        1.0  0.9717993844138876  0.34689989913858904  0.6171158353920396  1.0000
  O   O5        1.0  0.8490353048494627  0.7691823771187187  0.596235981751666  1.0000
  O   O6        1.0  0.8478746506108751  0.5517824551371464  0.7925154501257385  1.0000
  O   O7        1.0  0.848023209994745  0.5671786582259004  0.4148464575510044  1.0000
  O   O8        1.0  0.8468624905946811  0.34977700455124716  0.6111259969285567  1.0000
