data_image0
_chemical_formula_structural       NC9NC5H8C6SCOC6H10C6NCOC6H11Zn2C4O8
_chemical_formula_sum              "N3 C44 H29 S1 O10 Zn2"
_cell_length_a       17.807436237873137
_cell_length_b       10.30203810924657
_cell_length_c       10.299662537453276
_cell_angle_alpha    85.5465134691658
_cell_angle_beta     89.37814808442572
_cell_angle_gamma    88.40854036149848

_space_group_name_H-M_alt    "P 1"
_space_group_IT_number       1

loop_
  _space_group_symop_operation_xyz
  'x, y, z'

loop_
  _atom_site_type_symbol
  _atom_site_label
  _atom_site_symmetry_multiplicity
  _atom_site_fract_x
  _atom_site_fract_y
  _atom_site_fract_z
  _atom_site_occupancy
  N   N1        1.0  0.7078665261733996  0.3879430377457451  0.5572615024499283  1.0000
  C   C1        1.0  0.6472739407886061  0.35276609094677636  0.5462332000250165  1.0000
  C   C2        1.0  0.5719034242616149  0.30900984302316825  0.5325151892551754  1.0000
  C   C3        1.0  0.553813012243607  0.23765115534402032  0.4275016415813353  1.0000
  C   C4        1.0  0.4806321204479156  0.19505577232718438  0.4140996939856563  1.0000
  C   C5        1.0  0.42449285623364796  0.22344165282859096  0.5056787972470764  1.0000
  C   C6        1.0  0.3467204431952252  0.17828858886476273  0.49151808735693653  1.0000
  C   C7        1.0  0.2845557916057365  0.2600149447341973  0.5174671941071812  1.0000
  C   C8        1.0  0.2112325552460589  0.2172165688938832  0.5040789040200369  1.0000
  C   C9        1.0  0.1480182659019146  0.3016334759126371  0.5303922385624356  1.0000
  N   N2        1.0  0.09720696457231522  0.36949882845437604  0.5515474323431564  1.0000
  C   C10       1.0  0.1994903810003409  0.09243393048772885  0.464716126496257  1.0000
  C   C11       1.0  0.2607976613295794  0.010693728843946367  0.43875862823342093  1.0000
  C   C12       1.0  0.3340014197737162  0.05309773600723089  0.45194432904299464  1.0000
  C   C13       1.0  0.4432747349838219  0.29529450364482157  0.6109116375712722  1.0000
  C   C14       1.0  0.5165084838515362  0.33769959677761063  0.6241579085762072  1.0000
  H   H1        1.0  0.596213517455282  0.21519791645836703  0.3557846681400183  1.0000
  H   H2        1.0  0.4677208666682923  0.14141734449746735  0.3311711018097648  1.0000
  H   H3        1.0  0.2930674835947321  0.35744502744149104  0.5463563279458226  1.0000
  H   H4        1.0  0.14302045756871964  0.05841022354155489  0.45411700871189575  1.0000
  H   H5        1.0  0.2515879411187063  0.9140839843551496  0.4086691532958284  1.0000
  H   H6        1.0  0.3806325979366645  0.9873760214661933  0.4328877795499187  1.0000
  H   H7        1.0  0.4015908331986723  0.31720835014270227  0.683923074330647  1.0000
  H   H8        1.0  0.5299484566007016  0.3925586912119988  0.7060449947478491  1.0000
  C   C15       1.0  0.902469185705735  0.9974457254429634  0.5543653209750901  1.0000
  C   C16       1.0  0.8382566976395626  0.005286867822917425  0.4757870411596099  1.0000
  C   C17       1.0  0.8066606721164269  0.8922132210681563  0.4362006386866317  1.0000
  C   C18       1.0  0.8384983404813937  0.7701428422973121  0.475729487866095  1.0000
  C   C19       1.0  0.9026115024741443  0.7599858468784562  0.5544548079634848  1.0000
  C   C20       1.0  0.9343049633794888  0.8743044835727736  0.5932788794961823  1.0000
  S   S1        1.0  0.7251543632657813  0.9036476065598134  0.33478633201184027  1.0000
  C   C21       1.0  0.7804064661662884  0.9095792151729477  0.187551438639336  1.0000
  O   O1        1.0  0.7985269895039967  0.8034703350472836  0.14093480907438738  1.0000
  C   C22       1.0  0.8051917498849459  0.034595657037825626  0.12168922323300402  1.0000
  C   C23       1.0  0.8583205240618065  0.03445589220037125  0.019401555202508643  1.0000
  C   C24       1.0  0.8824735137750971  0.15167087751911043  0.957323130577791  1.0000
  C   C25       1.0  0.8539042971756268  0.2702468442243997  0.9962442197889358  1.0000
  C   C26       1.0  0.8010016385791336  0.2718489848509488  0.09717550647822848  1.0000
  C   C27       1.0  0.7765981998093734  0.15494938235218236  0.15957778376175358  1.0000
  H   H9        1.0  0.023415176788337263  0.18997417771770522  0.7026462091929281  1.0000
  H   H10       1.0  0.8127017475470537  0.09903121298022374  0.4448858578007889  1.0000
  H   H11       1.0  0.8131854826468394  0.6836023675014622  0.44433621368656695  1.0000
  H   H12       1.0  0.9838085917036258  0.8673391866623882  0.6538541661559365  1.0000
  H   H13       1.0  0.9271183723832521  0.4288035460009616  0.5840621345057069  1.0000
  H   H14       1.0  0.8815640707434927  0.9438019664192733  0.9877624195041803  1.0000
  H   H15       1.0  0.9234643944303872  0.15051152691093359  0.879022859967117  1.0000
  H   H16       1.0  0.8726888432453965  0.36087928566851407  0.9480935836023301  1.0000
  H   H17       1.0  0.7787429157018722  0.3638398024712107  0.12703951030552288  1.0000
  H   H18       1.0  0.7351673958328225  0.1595177050761274  0.23675215708335842  1.0000
  C   C28       1.0  0.9025920723258891  0.37885382346491187  0.17303332624061074  1.0000
  C   C29       1.0  0.9792873062340942  0.4075873728718171  0.16809763413746714  1.0000
  C   C30       1.0  0.018143476213085652  0.4201682691873036  0.04892444077261194  1.0000
  C   C31       1.0  0.9791557916740751  0.4072836040053351  0.9329562304807949  1.0000
  C   C32       1.0  0.902488612410843  0.3785777229275249  0.9357867672272109  1.0000
  C   C33       1.0  0.8647036632259993  0.36407743631643286  0.0563863782314693  1.0000
  N   N3        1.0  0.09638045545085028  0.45153914223037467  0.04729685603769208  1.0000
  C   C34       1.0  0.14954281078556098  0.40918018328936356  0.95229884956639  1.0000
  O   O2        1.0  0.13582225310555596  0.3112955332820004  0.8909368681211196  1.0000
  C   C35       1.0  0.2216848627238501  0.4760744904178613  0.9288980851352707  1.0000
  C   C36       1.0  0.23077209016482958  0.6036836163980186  0.9651339039887383  1.0000
  C   C37       1.0  0.29893804920303957  0.6659942541030265  0.941950764813277  1.0000
  C   C38       1.0  0.3585632520029056  0.6021572172173097  0.882093535972535  1.0000
  C   C39       1.0  0.35008589960299097  0.47596523694021076  0.8448429721701203  1.0000
  C   C40       1.0  0.2820479465667125  0.4131916124092838  0.8676950983820375  1.0000
  H   H19       1.0  0.757746293838179  0.3258667842594043  0.38951678650657207  1.0000
  H   H20       1.0  0.009389257356259286  0.41937736619973304  0.25707781475556013  1.0000
  H   H21       1.0  0.008256566366932285  0.4218651201444669  0.8404178577546176  1.0000
  H   H22       1.0  0.8055826539198868  0.3419100481754169  0.059327091522962457  1.0000
  H   H23       1.0  0.8728368447274956  0.3692579402995315  0.6092970806444185  1.0000
  H   H24       1.0  0.11689217727089818  0.4977599770930478  0.1259240792132861  1.0000
  H   H25       1.0  0.18513400432870175  0.656368764161306  0.009583614516915471  1.0000
  H   H26       1.0  0.30541909228856645  0.7641432273937702  0.9699833228037533  1.0000
  H   H27       1.0  0.41124947601070483  0.6506272620284692  0.8642089070164395  1.0000
  H   H28       1.0  0.3962799258230558  0.4266702460278158  0.7981885320294126  1.0000
  H   H29       1.0  0.276854261065427  0.3152042211135342  0.8382686362364571  1.0000
  Zn  Zn1       1.0  0.8202217636205451  0.38261697020930246  0.5556200557875416  1.0000
  Zn  Zn2       1.0  0.9848517055045584  0.37481430855786557  0.5531995545944897  1.0000
  C   C41       1.0  0.9025055081170966  0.37345759891997504  0.7916094587798407  1.0000
  C   C42       1.0  0.9025697590502525  0.3839752328124908  0.31721025283164717  1.0000
  C   C43       1.0  0.9025814158261999  0.6158515803928041  0.5492626502213857  1.0000
  C   C44       1.0  0.9024937948639805  0.14157969405857115  0.5595571312730907  1.0000
  O   O3        1.0  0.9650384744229705  0.3827272907945136  0.36467877821534117  1.0000
  O   O4        1.0  0.964987109224739  0.36878252193977556  0.742303455028604  1.0000
  O   O5        1.0  0.9650475632674882  0.564518766897214  0.546606705015066  1.0000
  O   O6        1.0  0.9649779642181184  0.1869910578227762  0.5603754316792596  1.0000
  O   O7        1.0  0.8400954487268666  0.5704402236084731  0.5484441795219392  1.0000
  O   O8        1.0  0.8400349949811684  0.37470553859620603  0.7441408604716557  1.0000
  O   O9        1.0  0.8400863604327614  0.3886502627689232  0.366514622219688  1.0000
  O   O10       1.0  0.8400258502098942  0.19291402047556572  0.5622113730523939  1.0000
