data_image0
_chemical_formula_structural       NC12NC2H8C7OC3OC4H12C7OC4NC3H9Zn2C4O8
_chemical_formula_sum              "N3 C46 H29 O11 Zn2"
_cell_length_a       19.240039667572717
_cell_length_b       10.299371110280156
_cell_length_c       10.299375074045738
_cell_angle_alpha    85.55741756906849
_cell_angle_beta     89.99323599274587
_cell_angle_gamma    90.01145957794125

_space_group_name_H-M_alt    "P 1"
_space_group_IT_number       1

loop_
  _space_group_symop_operation_xyz
  'x, y, z'

loop_
  _atom_site_type_symbol
  _atom_site_label
  _atom_site_symmetry_multiplicity
  _atom_site_fract_x
  _atom_site_fract_y
  _atom_site_fract_z
  _atom_site_occupancy
  N   N1        1.0  0.6547198522616857  0.42182997257775473  0.5678879825900043  1.0000
  C   C1        1.0  0.5945714834585759  0.421830056590825  0.5678879006790367  1.0000
  C   C2        1.0  0.51975344633865  0.42183017392971184  0.567887763409574  1.0000
  C   C3        1.0  0.4832662926601054  0.3573249281532063  0.6712816642042598  1.0000
  C   C4        1.0  0.4105955272180383  0.3572140131331156  0.6713681710704882  1.0000
  C   C5        1.0  0.37342121142562457  0.4218302665825622  0.5678875357502309  1.0000
  C   C6        1.0  0.4106225740281392  0.4864467069449159  0.4644070950460215  1.0000
  C   C7        1.0  0.48329324511683935  0.4863355563771343  0.4644937243347973  1.0000
  C   C8        1.0  0.29621612098361055  0.4218301879574922  0.5678874403023024  1.0000
  C   C9        1.0  0.259013540328621  0.3085527305346367  0.6097196789388024  1.0000
  C   C10       1.0  0.1863428691625002  0.30865966634364717  0.6096283874456101  1.0000
  C   C11       1.0  0.14988383404273456  0.4218300587605559  0.5678875011692921  1.0000
  C   C12       1.0  0.07506579685988259  0.42182994492176906  0.5678877498009436  1.0000
  N   N2        1.0  0.014917479990234203  0.4218299040181151  0.5678879582153147  1.0000
  C   C13       1.0  0.18637230979104316  0.5350005270257734  0.5261465620268466  1.0000
  C   C14       1.0  0.2590430232564998  0.5351076430190513  0.5260551079958831  1.0000
  H   H1        1.0  0.5109707103987059  0.3073833041745313  0.7520088353994137  1.0000
  H   H2        1.0  0.3834917871229511  0.30807005092897133  0.7532111853196937  1.0000
  H   H3        1.0  0.3835397833412091  0.5355906962211345  0.38256402995570227  1.0000
  H   H4        1.0  0.5110185988131485  0.5362770799870061  0.3837668289119722  1.0000
  H   H5        1.0  0.2860953005804799  0.21938489614394974  0.6408568981099725  1.0000
  H   H6        1.0  0.15861654318944057  0.22039062090899006  0.641798941909673  1.0000
  H   H7        1.0  0.1586688123127663  0.623269547917858  0.49397602210512837  1.0000
  H   H8        1.0  0.2861477418331574  0.6242755566039637  0.49491784407938555  1.0000
  C   C15       1.0  0.8347751526285504  0.04045859407218999  0.567773146088633  1.0000
  C   C16       1.0  0.8267756768970339  0.04979946713122497  0.43178365507625815  1.0000
  C   C17       1.0  0.8219558697671854  0.9373237601379326  0.36336251343331916  1.0000
  C   C18       1.0  0.8268101559194333  0.8145314640291405  0.43209475107951456  1.0000
  C   C19       1.0  0.8348688584321844  0.8031913203619303  0.5680140060975787  1.0000
  C   C20       1.0  0.8386227549483598  0.9167523119890004  0.635104401991643  1.0000
  C   C21       1.0  0.8142338137103196  0.9470591004071641  0.21961085660728094  1.0000
  O   O1        1.0  0.8427284089859924  0.8620455431242315  0.15558584465098213  1.0000
  C   C22       1.0  0.7741783419344622  0.05315621862544173  0.1484977327841357  1.0000
  C   C23       1.0  0.7936133696179816  0.09836632750167175  0.02135107358508703  1.0000
  C   C24       1.0  0.7560244066388713  0.19740694045349327  0.9519680439110858  1.0000
  O   O2        1.0  0.7782223418446627  0.23926399459802442  0.8258661285037848  1.0000
  C   C25       1.0  0.7450976787805677  0.33878117769077054  0.7444285198998881  1.0000
  C   C26       1.0  0.6977179723606273  0.2512427082332154  0.010458029164854827  1.0000
  C   C27       1.0  0.677569484832108  0.2057433588261044  0.1360875806114612  1.0000
  C   C28       1.0  0.7152818348335601  0.10698434289901536  0.20471840840430944  1.0000
  H   H9        1.0  0.8509316235295024  0.23017092976197048  0.8241743747046827  1.0000
  H   H10       1.0  0.8250580450279594  0.14475480730776713  0.37875222866962877  1.0000
  H   H11       1.0  0.8236179097883363  0.7276919002357707  0.37937060313564297  1.0000
  H   H12       1.0  0.8447902119386016  0.9087473820599483  0.7399423353008832  1.0000
  H   H13       1.0  0.8385427726487432  0.47138769888607746  0.6201025507458595  1.0000
  H   H14       1.0  0.8385539645816624  0.057488176785833046  0.9759767607816966  1.0000
  H   H15       1.0  0.7734556439250895  0.35190934995563417  0.6505546025392195  1.0000
  H   H16       1.0  0.746118682587189  0.43221933521869066  0.7914490953411923  1.0000
  H   H17       1.0  0.6906309440228862  0.31055564815602854  0.7246636726471651  1.0000
  H   H18       1.0  0.6675317833603062  0.3277620070559605  0.9595679245699661  1.0000
  H   H19       1.0  0.632366287610161  0.2467833959766639  0.18024012187310556  1.0000
  H   H20       1.0  0.6979377689062511  0.07179809124633028  0.30110019611516625  1.0000
  C   C29       1.0  0.8348456452047703  0.4219673076555044  0.18650685111235732  1.0000
  C   C30       1.0  0.888355823181108  0.5150786191185273  0.17809273940469073  1.0000
  C   C31       1.0  0.9148050557979461  0.5631216185907253  0.05659180429262812  1.0000
  C   C32       1.0  0.888243263982597  0.5148408824882502  0.9428673481463425  1.0000
  C   C33       1.0  0.8347983360403692  0.42168262213406305  0.9492803172951926  1.0000
  C   C34       1.0  0.8082841923943109  0.37603619067705707  0.07157828321330961  1.0000
  C   C35       1.0  0.9718070464825529  0.6604408750953221  0.04764497595265759  1.0000
  O   O3        1.0  0.01622160934343175  0.6557558312792777  0.9580085532698942  1.0000
  C   C36       1.0  0.9784131672082924  0.7630867979172993  0.14030388580567532  1.0000
  C   C37       1.0  0.04451189683574919  0.8096480019997564  0.17207513453819612  1.0000
  C   C38       1.0  0.05125890212154238  0.9076602214296059  0.2583228152423551  1.0000
  C   C39       1.0  0.11913723849649281  0.9540120961676  0.29112510656254065  1.0000
  N   N3        1.0  0.1737037731508586  0.9912681643763802  0.31749069016383746  1.0000
  C   C40       1.0  0.9919137624335701  0.9605115225548388  0.3125329439035036  1.0000
  C   C41       1.0  0.9260468154274306  0.9159619770443348  0.28026137707704235  1.0000
  C   C42       1.0  0.9191616158262718  0.8182197432933696  0.19428934042717572  1.0000
  H   H21       1.0  0.7345964018947355  0.244791712110221  0.40981969087386116  1.0000
  H   H22       1.0  0.9100586095961047  0.5492800695350597  0.266286785372978  1.0000
  H   H23       1.0  0.9089355431118251  0.5510768889731454  0.8491336260425015  1.0000
  H   H24       1.0  0.7670319859452192  0.3042535037060481  0.07726112951746411  1.0000
  H   H25       1.0  0.8146678997191549  0.3850957246824429  0.6243486543069809  1.0000
  H   H26       1.0  0.09071222716902082  0.7689277063379829  0.13068160600556955  1.0000
  H   H27       1.0  0.9965594979590435  0.036389832048094206  0.37923609548609893  1.0000
  H   H28       1.0  0.8801928727465039  0.9576609746578493  0.3215063959137361  1.0000
  H   H29       1.0  0.8675337253651887  0.7868260778123883  0.16897612083129854  1.0000
  Zn  Zn1       1.0  0.7586651152084503  0.4218264827733764  0.5678954632365611  1.0000
  Zn  Zn2       1.0  0.910972233856084  0.4218227963183672  0.5678910736182681  1.0000
  C   C43       1.0  0.8348051096986502  0.41656270077539315  0.8050981375236159  1.0000
  C   C44       1.0  0.8348339027482805  0.427088216858557  0.33068852727309705  1.0000
  C   C45       1.0  0.8348478835665879  0.6590205220966561  0.5627930505443599  1.0000
  C   C46       1.0  0.8347910767125979  0.1846288352001677  0.5729936830030253  1.0000
  O   O4        1.0  0.8926297189481529  0.4287997759991387  0.3790755472822158  1.0000
  O   O5        1.0  0.8926068723083193  0.41484736411154954  0.7567074117229353  1.0000
  O   O6        1.0  0.8926406334955291  0.6106351206409171  0.5610443400873457  1.0000
  O   O7        1.0  0.8925959057960191  0.23301202879765892  0.5747385215430239  1.0000
  O   O8        1.0  0.777041391293571  0.6106372502967592  0.5610480153064727  1.0000
  O   O9        1.0  0.7770076302991621  0.41485105410719186  0.7567110181860568  1.0000
  O   O10       1.0  0.7770304770764618  0.42880342132135985  0.3790775922574785  1.0000
  O   O11       1.0  0.7769966639143083  0.23301566479466707  0.5747406638877348  1.0000
