data_image0
_chemical_formula_structural       NC9NC5H8C12OCH12C12IH9Zn2C4O8
_chemical_formula_sum              "N2 C43 H29 O9 I1 Zn2"
_cell_length_a       17.807436237873137
_cell_length_b       10.299790755002421
_cell_length_c       10.299773350644648
_cell_angle_alpha    85.5398229900983
_cell_angle_beta     89.4010069247268
_cell_angle_gamma    88.37243818242351

_space_group_name_H-M_alt    "P 1"
_space_group_IT_number       1

loop_
  _space_group_symop_operation_xyz
  'x, y, z'

loop_
  _atom_site_type_symbol
  _atom_site_label
  _atom_site_symmetry_multiplicity
  _atom_site_fract_x
  _atom_site_fract_y
  _atom_site_fract_z
  _atom_site_occupancy
  N   N1        1.0  0.7070306062048854  0.388177551423267  0.557011468307264  1.0000
  C   C1        1.0  0.6464482840696227  0.35299087940568774  0.5459905104063061  1.0000
  C   C2        1.0  0.5710905338908833  0.30922253437977143  0.532281635415802  1.0000
  C   C3        1.0  0.5530019751538564  0.23783755221712988  0.4272847359830158  1.0000
  C   C4        1.0  0.4798335000234674  0.19523038923311528  0.41389168280554767  1.0000
  C   C5        1.0  0.42370492900890305  0.22363068672550487  0.5054631092288833  1.0000
  C   C6        1.0  0.3459456887567366  0.1784651391075431  0.4913118268577654  1.0000
  C   C7        1.0  0.28375726770717413  0.26021411550149803  0.5172438632017712  1.0000
  C   C8        1.0  0.2104465249779848  0.21740390971508547  0.5038645082790276  1.0000
  C   C9        1.0  0.1472075711804937  0.301844143022159  0.530160220806166  1.0000
  N   N2        1.0  0.0963764415878415  0.36972824837266466  0.5513012476827177  1.0000
  C   C10       1.0  0.1987407018015183  0.09258675394372616  0.46452778899937547  1.0000
  C   C11       1.0  0.2600717547008372  0.010823927625694294  0.4385873641193578  1.0000
  C   C12       1.0  0.3332631164564477  0.05323964943267613  0.4517642137752462  1.0000
  C   C13       1.0  0.4424848250731988  0.29550997375868127  0.6106791967741283  1.0000
  C   C14       1.0  0.5157061907583069  0.33792678662091125  0.6239166151236687  1.0000
  H   H1        1.0  0.595394187769053  0.2153729668634625  0.35557381963641865  1.0000
  H   H2        1.0  0.46692272297834  0.14157187930223028  0.33097568918913706  1.0000
  H   H3        1.0  0.2922401533517254  0.35767100269809  0.5461126898667864  1.0000
  H   H4        1.0  0.1422807206712472  0.058553645983927094  0.45393577352464853  1.0000
  H   H5        1.0  0.2508902669890756  0.9141874896363781  0.40851805593221346  1.0000
  H   H6        1.0  0.379913824857383  0.9874998880741912  0.4327213534216518  1.0000
  H   H7        1.0  0.4008097091478052  0.31743513388782607  0.683684658075924  1.0000
  H   H8        1.0  0.5291450037764542  0.392806187470391  0.7057908780233813  1.0000
  C   C15       1.0  0.9017746293373403  0.9975817770563745  0.5541942877462143  1.0000
  C   C16       1.0  0.8800401006491553  0.9874068566270079  0.6859513977207339  1.0000
  C   C17       1.0  0.8689674290408462  0.865117696687718  0.7526814504175782  1.0000
  C   C18       1.0  0.8799051240773096  0.7521309787005741  0.6858875920701504  1.0000
  C   C19       1.0  0.9016396193283455  0.7603136862206944  0.5541295500692744  1.0000
  C   C20       1.0  0.9124544198635313  0.883485698472431  0.48902129949785755  1.0000
  C   C21       1.0  0.8459781059951132  0.8554070934347049  0.8920742637076765  1.0000
  C   C22       1.0  0.7911663903350291  0.7671248570824801  0.9379437891727576  1.0000
  C   C23       1.0  0.7695970898704141  0.7582560034698715  0.06899945232029614  1.0000
  C   C24       1.0  0.8023536526531281  0.8370233696471935  0.15586739834374785  1.0000
  C   C25       1.0  0.8573655470050758  0.925904653669892  0.11186664677261093  1.0000
  C   C26       1.0  0.8787018978380586  0.9344235133350853  0.9802876992697532  1.0000
  O   O1        1.0  0.8920996540549544  0.006933960993246396  0.19522584110638963  1.0000
  C   C27       1.0  0.8760059269771585  0.00863367281132854  0.3307982631811146  1.0000
  H   H9        1.0  0.910089295830568  0.3289087715358532  0.5040099828934781  1.0000
  H   H10       1.0  0.8706761431411885  0.07486180519913363  0.7365175986979415  1.0000
  H   H11       1.0  0.8724205868671012  0.6575701243247043  0.7373653444582545  1.0000
  H   H12       1.0  0.9292222686492482  0.890566795824873  0.3873762473868482  1.0000
  H   H13       1.0  0.9098840712112588  0.4359819834138764  0.5039086398132548  1.0000
  H   H14       1.0  0.7642892204913819  0.7061892758303184  0.8721283037670494  1.0000
  H   H15       1.0  0.727170690878563  0.6902862482898118  0.10330055122105516  1.0000
  H   H16       1.0  0.7845592841269347  0.8280868752268536  0.2567951738702977  1.0000
  H   H17       1.0  0.9217346034436741  0.0019378746769080932  0.9474905690265848  1.0000
  H   H18       1.0  0.8889882267097451  0.9114742718194698  0.38123055078003637  1.0000
  H   H19       1.0  0.911461447236783  0.08157995296931463  0.37249267271471653  1.0000
  H   H20       1.0  0.8160339331009601  0.03638179562074573  0.3461133340851782  1.0000
  C   C28       1.0  0.9016712775875872  0.37905552212225974  0.17279326302318188  1.0000
  C   C29       1.0  0.9697608478849064  0.4448323895266633  0.1654514096031545  1.0000
  C   C30       1.0  0.00429850868551207  0.47805250327950305  0.0446006781967001  1.0000
  C   C31       1.0  0.9698331512252468  0.44461480750512544  0.9301807545476244  1.0000
  C   C32       1.0  0.9017429513998266  0.3788399748716535  0.9355306588232737  1.0000
  C   C33       1.0  0.868043582760024  0.346427573333121  0.057299460536458735  1.0000
  C   C34       1.0  0.07633129911427416  0.547636634603502  0.03788763212113409  1.0000
  C   C35       1.0  0.08813102050437505  0.6500963143114614  0.11751619305689642  1.0000
  C   C36       1.0  0.1559676208436817  0.7154739003419759  0.11099547326340531  1.0000
  C   C37       1.0  0.2127584443455632  0.6794233342047964  0.025176141798642686  1.0000
  C   C38       1.0  0.2016832491240419  0.5778155175652775  0.9456796180313568  1.0000
  C   C39       1.0  0.13392290191031608  0.5122083469735346  0.9517932975972644  1.0000
  I   I1        1.0  0.3150314942903034  0.7782156085752243  0.015648895015406557  1.0000
  H   H21       1.0  0.8757042121445037  0.35405758882576793  0.503039646315621  1.0000
  H   H22       1.0  0.9966209376399909  0.46880653074768514  0.25403213705228644  1.0000
  H   H23       1.0  0.9957011163489198  0.47157667765168604  0.8366861077721666  1.0000
  H   H24       1.0  0.8155151572074201  0.2956848706814075  0.0621950128417894  1.0000
  H   H25       1.0  0.8758091752854587  0.35374047445657  0.6101182945485015  1.0000
  H   H26       1.0  0.044563087235495576  0.6807386271230738  0.18354336641907487  1.0000
  H   H27       1.0  0.16426801527254464  0.7943573083940192  0.17245267425873267  1.0000
  H   H28       1.0  0.24561975649959408  0.5493919619126263  0.8793557029602804  1.0000
  H   H29       1.0  0.12692814689094667  0.4327221856479568  0.8904779052328866  1.0000
  Zn  Zn1       1.0  0.8193874040897596  0.38285001366250215  0.5553711330641973  1.0000
  Zn  Zn2       1.0  0.9840196283831791  0.3750451968853648  0.55295226042901  1.0000
  C   C40       1.0  0.9017286396763492  0.37370708864658747  0.7913573920994641  1.0000
  C   C41       1.0  0.9016801902972371  0.3841896752652778  0.3169661023071231  1.0000
  C   C42       1.0  0.9016607672090065  0.6161427902934107  0.5489667133551768  1.0000
  C   C43       1.0  0.9017480068698498  0.1417524159511736  0.559356851247726  1.0000
  O   O2        1.0  0.964160253618379  0.3829451908975412  0.36443387512750935  1.0000
  O   O3        1.0  0.9642006254018687  0.36902691804953286  0.7420533771551641  1.0000
  O   O4        1.0  0.9641449754322102  0.5647968526932935  0.5463212013749335  1.0000
  O   O5        1.0  0.9642158473994167  0.187175268234826  0.5601659543577413  1.0000
  O   O6        1.0  0.8391911288926232  0.5707199449778576  0.5481574399540774  1.0000
  O   O7        1.0  0.8392467785761123  0.3749515706661953  0.743889546356603  1.0000
  O   O8        1.0  0.8392064067038845  0.38886979869687877  0.3662684829323301  1.0000
  O   O9        1.0  0.8392620004926435  0.19309986671793505  0.562000659531172  1.0000
