data_image0
_chemical_formula_structural       NC8NC6H8C12NCOCH13C12SCH12Zn2C4O8
_chemical_formula_sum              "N3 C45 H33 O9 S1 Zn2"
_cell_length_a       17.457602349358154
_cell_length_b       10.299155265289647
_cell_length_c       10.299780138516093
_cell_angle_alpha    85.56043235920357
_cell_angle_beta     92.86764560524759
_cell_angle_gamma    91.66712233072684

_space_group_name_H-M_alt    "P 1"
_space_group_IT_number       1

loop_
  _space_group_symop_operation_xyz
  'x, y, z'

loop_
  _atom_site_type_symbol
  _atom_site_label
  _atom_site_symmetry_multiplicity
  _atom_site_fract_x
  _atom_site_fract_y
  _atom_site_fract_z
  _atom_site_occupancy
  N   N1        1.0  0.722209684337746  0.4525250691511811  0.6261166690891175  1.0000
  C   C1        1.0  0.6611429283947826  0.4065941043829239  0.6155159331347555  1.0000
  C   C2        1.0  0.585173298912802  0.3494617016594659  0.6023381572938808  1.0000
  C   C3        1.0  0.5266295876494139  0.38964736181035314  0.6772194673366275  1.0000
  C   C4        1.0  0.4520975152891575  0.33463352265914126  0.6646554320274618  1.0000
  C   C5        1.0  0.38996204599604134  0.37706372950036915  0.7439576196318793  1.0000
  C   C6        1.0  0.3154157441412446  0.3955172623179158  0.688191066324042  1.0000
  C   C7        1.0  0.2568720626249971  0.43551901703831103  0.7631803825963779  1.0000
  C   C8        1.0  0.18088764855938672  0.4545778046261431  0.7051982876722489  1.0000
  N   N2        1.0  0.11980909757907351  0.46989468981643445  0.6585808364023331  1.0000
  C   C9        1.0  0.2723824244937689  0.457310540298836  0.894444667941637  1.0000
  C   C10       1.0  0.3461439035861738  0.43924612804505353  0.9505986776187187  1.0000
  C   C11       1.0  0.4046759026997779  0.3994245692605123  0.8760670032123629  1.0000
  C   C12       1.0  0.43739806814834786  0.23875615386714674  0.575777451505225  1.0000
  C   C13       1.0  0.49592996629272723  0.19884930462878336  0.5012960371494359  1.0000
  C   C14       1.0  0.5696772032556131  0.2539756834010187  0.5144099595384775  1.0000
  H   H1        1.0  0.5389513430873346  0.4648652029334998  0.7438231902083247  1.0000
  H   H2        1.0  0.3030823602598285  0.38051690651469916  0.5861763710053984  1.0000
  H   H3        1.0  0.22750975425572253  0.4882119703966159  0.953267855457464  1.0000
  H   H4        1.0  0.35796325667301804  0.4558041294280126  0.05223964049670715  1.0000
  H   H5        1.0  0.4611611553060811  0.38444506793651056  0.9221758845261254  1.0000
  H   H6        1.0  0.38092446066861513  0.19341488172273544  0.5651404147864162  1.0000
  H   H7        1.0  0.48412186675378244  0.12474764807457062  0.433493701070758  1.0000
  H   H8        1.0  0.6145500714518451  0.22220465026760586  0.45609814541729543  1.0000
  C   C15       1.0  0.9210987358236294  0.07981631373614116  0.642474748106201  1.0000
  C   C16       1.0  0.9080043704466851  0.0889176848668165  0.506487029764068  1.0000
  C   C17       1.0  0.9012909586245452  0.9763913197163557  0.43741460773331764  1.0000
  C   C18       1.0  0.9078209560137803  0.8536498417675211  0.5061642842017775  1.0000
  C   C19       1.0  0.9209274051322595  0.8425937808488214  0.6422345757439898  1.0000
  C   C20       1.0  0.9274890200296197  0.9561907139768004  0.7095523808405382  1.0000
  C   C21       1.0  0.8874396482470719  0.9869931820902516  0.2935560994841462  1.0000
  C   C22       1.0  0.9263540260263545  0.08278800900219485  0.21531987878304773  1.0000
  C   C23       1.0  0.9133253430766929  0.09263445846818551  0.07993995279167933  1.0000
  C   C24       1.0  0.8615988214622734  0.006021375507113012  0.019968637524837126  1.0000
  C   C25       1.0  0.8217473263716194  0.9120018816327746  0.09806018608078104  1.0000
  C   C26       1.0  0.8348039547457586  0.9019006261902635  0.2334050601970845  1.0000
  N   N3        1.0  0.8461014968071776  0.015558145661779264  0.8811489767989737  1.0000
  C   C27       1.0  0.9021275929667817  0.05492279535739563  0.787510629820198  1.0000
  O   O1        1.0  0.9725067831621279  0.060537216123075485  0.82111416885915  1.0000
  C   C28       1.0  0.8776638179541405  0.08027340483616262  0.6469800698909203  1.0000
  H   H9        1.0  0.9261592029104689  0.4037927631970764  0.6947776917971489  1.0000
  H   H10       1.0  0.9019386821725036  0.1836875413311578  0.4541846715209466  1.0000
  H   H11       1.0  0.9036982487295036  0.7666602390268251  0.4532018003608578  1.0000
  H   H12       1.0  0.9375915604246945  0.9484558838655724  0.8144423152634741  1.0000
  H   H13       1.0  0.9461245451007609  0.6144627707293848  0.8989668318211429  1.0000
  H   H14       1.0  0.9673176319346204  0.14963385128653028  0.2587549247832688  1.0000
  H   H15       1.0  0.9427621238299375  0.16936428130807868  0.02276597228945865  1.0000
  H   H16       1.0  0.780710164721298  0.8458567046816636  0.05375214089256386  1.0000
  H   H17       1.0  0.8029019029898463  0.8286796181596284  0.2912106567348822  1.0000
  H   H18       1.0  0.7920681894233775  0.9843229102986474  0.8456652171543939  1.0000
  H   H19       1.0  0.8222841479490751  0.13129886763345566  0.6380048744932947  1.0000
  H   H20       1.0  0.870568242576906  0.9863448424750589  0.6011788667881408  1.0000
  H   H21       1.0  0.9213429825185643  0.14226188709747453  0.5951539258249543  1.0000
  C   C29       1.0  0.9210439191206463  0.4610950654501065  0.261005102681464  1.0000
  C   C30       1.0  0.8481110388885639  0.39989303631623146  0.2585617204139039  1.0000
  C   C31       1.0  0.8111249915223191  0.3689944289059499  0.14017420836773664  1.0000
  C   C32       1.0  0.8480481788538156  0.4001157459854281  0.023252624523648405  1.0000
  C   C33       1.0  0.9209822036231323  0.4613150014264027  0.023704262783331497  1.0000
  C   C34       1.0  0.9570716295125079  0.49146274085254005  0.14307024765502363  1.0000
  C   C35       1.0  0.7339670650109261  0.3042627947926959  0.13865203344928578  1.0000
  C   C36       1.0  0.6771388101504308  0.3434442738187691  0.04304315334403408  1.0000
  C   C37       1.0  0.6045345936114347  0.28248949373848675  0.041848373188225325  1.0000
  C   C38       1.0  0.5876995871355284  0.181936787286596  0.13606611249578515  1.0000
  C   C39       1.0  0.6438452306397255  0.1419264951447743  0.23121384352756305  1.0000
  C   C40       1.0  0.7164969495675142  0.20270990763875107  0.23277496161982447  1.0000
  S   S1        1.0  0.49456989518433103  0.1035915890190344  0.13408543923739535  1.0000
  C   C41       1.0  0.455201181010434  0.21609548971044143  0.23956605786751162  1.0000
  H   H22       1.0  0.948845883563364  0.4843688039926586  0.5893940810588949  1.0000
  H   H23       1.0  0.8194441758047064  0.37771681387692607  0.3487766089762683  1.0000
  H   H24       1.0  0.8202330212194553  0.3748974171315278  0.9319164124006827  1.0000
  H   H25       1.0  0.013336420610336797  0.5386767252992504  0.14418685581058543  1.0000
  H   H26       1.0  0.9487563981377152  0.4846923829898919  0.6964171086905204  1.0000
  H   H27       1.0  0.6885293466548694  0.4223155396252843  0.9702717027770619  1.0000
  H   H28       1.0  0.5613001042756849  0.31393650676442997  0.9679770702371173  1.0000
  H   H29       1.0  0.6312819550881459  0.06370002352941695  0.3040141976302808  1.0000
  H   H30       1.0  0.759319128194961  0.16919374104798846  0.30651239226167554  1.0000
  H   H31       1.0  0.4876439947291059  0.21148223679661537  0.3352309261904436  1.0000
  H   H32       1.0  0.39432407559114385  0.1883053776845316  0.25537521393967166  1.0000
  H   H33       1.0  0.4581440831794062  0.31695357281695125  0.1931851878086368  1.0000
  Zn  Zn1       1.0  0.8369482865870645  0.4575340857039323  0.6354926256957822  1.0000
  Zn  Zn2       1.0  0.005070482611582605  0.4648750278173573  0.6492155151363472  1.0000
  C   C42       1.0  0.9209933123791738  0.4560993328137366  0.8795392563720217  1.0000
  C   C43       1.0  0.9210272923301734  0.4663114996332767  0.40516916125766894  1.0000
  C   C44       1.0  0.9209562388937591  0.698410909348065  0.6371047529036928  1.0000
  C   C45       1.0  0.9210643087921732  0.22399836020994712  0.6476037297697417  1.0000
  O   O2        1.0  0.9848232107154029  0.47084236576251937  0.4587597030799988  1.0000
  O   O3        1.0  0.9847982509441001  0.4571390919967562  0.8363636965904488  1.0000
  O   O4        1.0  0.984767453451792  0.652808717331151  0.6405960491460752  1.0000
  O   O5        1.0  0.9848539508447869  0.27517274718590734  0.6545272484690274  1.0000
  O   O6        1.0  0.8571647609820066  0.6472363638316911  0.6301808876733226  1.0000
  O   O7        1.0  0.8571955581258753  0.4515682988826058  0.8259484653841729  1.0000
  O   O8        1.0  0.8572205180847251  0.4652715269414742  0.4483429105706687  1.0000
  O   O9        1.0  0.857251258205179  0.26960189910338817  0.6441105533252631  1.0000
