data_image0
_chemical_formula_structural       NC8NC6H8C6FH5C7NH5Zn2C4O8
_chemical_formula_sum              "N3 C31 H18 F1 Zn2 O8"
_cell_length_a       17.457602349358154
_cell_length_b       9.275642734913903
_cell_length_c       10.302823150593484
_cell_angle_alpha    85.47815829151409
_cell_angle_beta     92.87590926728866
_cell_angle_gamma    92.2944494432906

_space_group_name_H-M_alt    "P 1"
_space_group_IT_number       1

loop_
  _space_group_symop_operation_xyz
  'x, y, z'

loop_
  _atom_site_type_symbol
  _atom_site_label
  _atom_site_symmetry_multiplicity
  _atom_site_fract_x
  _atom_site_fract_y
  _atom_site_fract_z
  _atom_site_occupancy
  N   N1        1.0  0.7314654880143144  0.6139311139065149  0.6255719044643525  1.0000
  C   C1        1.0  0.6701017782073334  0.5629135681380542  0.6150027680149843  1.0000
  C   C2        1.0  0.5937627757328213  0.49945408919029854  0.6018642958387019  1.0000
  C   C3        1.0  0.5354840593527562  0.5440690541940731  0.6767005109509561  1.0000
  C   C4        1.0  0.4605963208459149  0.4829627171505937  0.6641742885949129  1.0000
  C   C5        1.0  0.398740666416977  0.530069548710319  0.743428799108435  1.0000
  C   C6        1.0  0.3243089261881523  0.5505859303785634  0.6876655139748977  1.0000
  C   C7        1.0  0.26602906245785346  0.5949965753210833  0.7626098218272102  1.0000
  C   C8        1.0  0.1901629369616826  0.6161859946504242  0.7046312050494593  1.0000
  N   N2        1.0  0.12917944887137586  0.6332152006897377  0.658016554166241  1.0000
  C   C9        1.0  0.2816902892316011  0.6191609392427266  0.8938255429128766  1.0000
  C   C10       1.0  0.35533974597547785  0.5990766755696686  0.9499759375495592  1.0000
  C   C11       1.0  0.4136091251955326  0.5548660489028838  0.8754890369429924  1.0000
  C   C12       1.0  0.445271729226322  0.37648888444274  0.5753800217171472  1.0000
  C   C13       1.0  0.5035404615840633  0.3321834995042887  0.5009434212372919  1.0000
  C   C14       1.0  0.5776441336983651  0.39341467142017156  0.5140193139136546  1.0000
  H   H1        1.0  0.5482960071255053  0.6276010477825988  0.7432393892310712  1.0000
  H   H2        1.0  0.3118707718661275  0.5339559469667022  0.5856873486563674  1.0000
  H   H3        1.0  0.23702148937301304  0.6534679589168678  0.9526137236339546  1.0000
  H   H4        1.0  0.36727388207042266  0.6174370394391085  0.05157949380437821  1.0000
  H   H5        1.0  0.47000144982000414  0.5382117778573747  0.9215950417202818  1.0000
  H   H6        1.0  0.3885049667491586  0.32612639147724587  0.5647742246574528  1.0000
  H   H7        1.0  0.4912492709876056  0.24989176780226544  0.43320554912267645  1.0000
  H   H8        1.0  0.6223075656228219  0.35814151722758714  0.45574291547875573  1.0000
  C   C15       1.0  0.9279529870124732  0.1999142838382595  0.6421591715158059  1.0000
  C   C16       1.0  0.9130987483845356  0.28250690115362787  0.5236619803751127  1.0000
  C   C17       1.0  0.9054835387774386  0.21686064144755832  0.40615582723275806  1.0000
  C   C18       1.0  0.9126651670686194  0.06791809666646946  0.40507643513127406  1.0000
  C   C19       1.0  0.9261323822497374  0.9836687382497356  0.5216443300487885  1.0000
  C   C20       1.0  0.9326992386940424  0.04722124877905578  0.6414411062887615  1.0000
  F   F1        1.0  0.8920130929354372  0.2983069638006186  0.29275789529477403  1.0000
  H   H9        1.0  0.007254830017207283  0.2829052134394012  0.938619574022588  1.0000
  H   H10       1.0  0.909180369582154  0.39894228881526694  0.5216807701580726  1.0000
  H   H11       1.0  0.9070618692171453  0.01718506821537071  0.3138206529488618  1.0000
  H   H12       1.0  0.9295980464478453  0.8676768538068707  0.5183589328372726  1.0000
  H   H13       1.0  0.9830249323026103  0.7522371525094084  0.8424379269182853  1.0000
  C   C21       1.0  0.9303261141680453  0.6235677878161887  0.2605520695473129  1.0000
  C   C22       1.0  0.849965970090851  0.630125187288191  0.2521533654786019  1.0000
  C   C23       1.0  0.8099860402597739  0.6333874369077797  0.13087242338812  1.0000
  C   C24       1.0  0.8499659546407069  0.6301250923598445  0.016852370492547394  1.0000
  C   C25       1.0  0.930326113667841  0.6235677802989237  0.02304823613121098  1.0000
  C   C26       1.0  0.9700863119575176  0.6203233089933071  0.1454106421375787  1.0000
  C   C27       1.0  0.7276051371518633  0.6401095001839188  0.12339161842627976  1.0000
  N   N3        1.0  0.6613978091562933  0.6455120191672854  0.11737946068164361  1.0000
  H   H14       1.0  0.9607648680008156  0.6210843413840643  0.5910555501458822  1.0000
  H   H15       1.0  0.818272952248812  0.6327113408004859  0.3396996619440329  1.0000
  H   H16       1.0  0.8182729820899897  0.6327112360525453  0.9235501280192326  1.0000
  H   H17       1.0  0.03205716060220554  0.6152665033086457  0.1510380771830715  1.0000
  H   H18       1.0  0.9607648409915219  0.6210841085451653  0.698072847937011  1.0000
  Zn  Zn1       1.0  0.8462371243834907  0.6194922158921449  0.6349422288966241  1.0000
  Zn  Zn2       1.0  0.01440773199369971  0.6276422701436868  0.6486568689165919  1.0000
  C   C28       1.0  0.9302921903317359  0.6178202833092168  0.8789248543777519  1.0000
  C   C29       1.0  0.9303545126599115  0.6293161120515525  0.4046745190823355  1.0000
  C   C30       1.0  0.9317981319053892  0.8870620078698186  0.6364029944845853  1.0000
  C   C31       1.0  0.9288485039920719  0.36007265138489775  0.6471964449812508  1.0000
  O   O1        1.0  0.9941838773565269  0.6343319112734288  0.4582479694681143  1.0000
  O   O2        1.0  0.9941004195117681  0.6189890983206339  0.8357601256267124  1.0000
  O   O3        1.0  0.9953156260553255  0.8364051542357778  0.6399219364473521  1.0000
  O   O4        1.0  0.9929686134855455  0.41691586289764637  0.6540860566150366  1.0000
  O   O5        1.0  0.867676185503279  0.8302186203585425  0.6295130365112158  1.0000
  O   O6        1.0  0.8664609886655419  0.6128042977698072  0.8253511549978645  1.0000
  O   O7        1.0  0.8665444462797672  0.6281470604507435  0.44783743798008047  1.0000
  O   O8        1.0  0.8653291823478433  0.4107310017559566  0.6436756224724776  1.0000
