data_image0
_chemical_formula_structural       NC9NC5H8C8NH7C6SCNH5Zn2C4O8
_chemical_formula_sum              "N4 C33 H20 S1 Zn2 O8"
_cell_length_a       17.807436237873137
_cell_length_b       9.27426342843186
_cell_length_c       10.302218930750287
_cell_angle_alpha    85.51116070618167
_cell_angle_beta     89.41007646359061
_cell_angle_gamma    89.00683889979415

_space_group_name_H-M_alt    "P 1"
_space_group_IT_number       1

loop_
  _space_group_symop_operation_xyz
  'x, y, z'

loop_
  _atom_site_type_symbol
  _atom_site_label
  _atom_site_symmetry_multiplicity
  _atom_site_fract_x
  _atom_site_fract_y
  _atom_site_fract_z
  _atom_site_occupancy
  N   N1        1.0  0.7157965867793615  0.5411911647797119  0.5563765061660566  1.0000
  C   C1        1.0  0.6549877639579573  0.5021199518688005  0.5453834451378836  1.0000
  C   C2        1.0  0.5793482718677071  0.4535196657579783  0.5317092707891844  1.0000
  C   C3        1.0  0.5607927236314574  0.3742434221555053  0.42678945828370374  1.0000
  C   C4        1.0  0.48734997692165144  0.32693250426862996  0.4134301970055015  1.0000
  C   C5        1.0  0.4314117014404686  0.3584786415317427  0.5049586064280083  1.0000
  C   C6        1.0  0.3533617248889645  0.3083269037431971  0.4908431336220693  1.0000
  C   C7        1.0  0.29169956106893685  0.3991008514002341  0.5167102762231872  1.0000
  C   C8        1.0  0.21811324674291013  0.3515644849941686  0.5033648550111018  1.0000
  C   C9        1.0  0.1554178307497235  0.44532673827336255  0.5295936589387573  1.0000
  N   N2        1.0  0.10502366804449573  0.520705102850894  0.5506808956594704  1.0000
  C   C10       1.0  0.205603939152683  0.21296772459816668  0.46412715395771803  1.0000
  C   C11       1.0  0.2664086453024562  0.12217839749757765  0.4382516348055361  1.0000
  C   C12       1.0  0.33987303217360504  0.16927671962390267  0.4513948830834833  1.0000
  C   C13       1.0  0.4506617747246884  0.4383037684871143  0.610097199188631  1.0000
  C   C14       1.0  0.5241561779971888  0.485403309769157  0.6233010003612061  1.0000
  H   H1        1.0  0.6030344781251658  0.3492905747763422  0.35511238930001254  1.0000
  H   H2        1.0  0.4740878130523645  0.2673418008174526  0.33057313782711084  1.0000
  H   H3        1.0  0.3008096381744172  0.5073165810906012  0.545502247266616  1.0000
  H   H4        1.0  0.1489248890801602  0.175177435588026  0.4535621040116782  1.0000
  H   H5        1.0  0.2566051156033157  0.014873507901208335  0.408258893161737  1.0000
  H   H6        1.0  0.38610070613288366  0.09627961168804555  0.43240375907123557  1.0000
  H   H7        1.0  0.4091337769778602  0.4626578250296114  0.6830688779045426  1.0000
  H   H8        1.0  0.5379541080177656  0.5463495072533503  0.7051157140006616  1.0000
  C   C15       1.0  0.9080371126199366  0.10748955028631646  0.5538393625404665  1.0000
  C   C16       1.0  0.898309236597925  0.1913833702509602  0.43532246471136665  1.0000
  C   C17       1.0  0.8959479162191255  0.1266182182619917  0.31777190137952993  1.0000
  C   C18       1.0  0.9038665815530701  0.9764199499666909  0.31582171470853093  1.0000
  C   C19       1.0  0.9115787199245665  0.8911277687333671  0.4335722181990944  1.0000
  C   C20       1.0  0.9127902602291734  0.9543953197772027  0.5532292315104415  1.0000
  C   C21       1.0  0.9002002252766255  0.9066486855941359  0.18919423596329366  1.0000
  C   C22       1.0  0.8222701987392285  0.8718193706114659  0.1614784211148772  1.0000
  N   N3        1.0  0.7607616920100889  0.8443279873099576  0.13961150529728927  1.0000
  H   H9        1.0  0.9729014671684741  0.18228657894148603  0.8522300429171198  1.0000
  H   H10       1.0  0.8941570978878072  0.30822120371309714  0.4332567283868822  1.0000
  H   H11       1.0  0.8886437518110956  0.19394728955026674  0.2279007083532829  1.0000
  H   H12       1.0  0.9148213211512942  0.7744678572549643  0.4318145364565258  1.0000
  H   H13       1.0  0.9535386886912468  0.6547178502642865  0.7559288970252194  1.0000
  H   H14       1.0  0.9349003618689238  0.8057061100039918  0.19371102648502192  1.0000
  H   H15       1.0  0.922366080442607  0.9803100702502081  0.10807074348659486  1.0000
  C   C23       1.0  0.9103440376797032  0.5310136402556901  0.17226009617531135  1.0000
  C   C24       1.0  0.9807027956219829  0.4601011212509774  0.17505211437875157  1.0000
  C   C25       1.0  0.01567730111895792  0.4243635088936336  0.05946499012993578  1.0000
  C   C26       1.0  0.9808849195413448  0.45991288867854224  0.9398953165161488  1.0000
  C   C27       1.0  0.9104833165913195  0.5308711730336677  0.9348084751773711  1.0000
  C   C28       1.0  0.8755864152973523  0.5659798634797752  0.0515543358020314  1.0000
  S   S1        1.0  0.10562284958203103  0.334397064764437  0.06446523521282721  1.0000
  C   C29       1.0  0.06535800269812375  0.1612504072149048  0.0774290828142492  1.0000
  N   N4        1.0  0.038938314944133134  0.04774601596226402  0.08592830090851233  1.0000
  H   H16       1.0  0.8835780237957694  0.5580680841839853  0.4985274349083166  1.0000
  H   H17       1.0  0.00858291516707821  0.4320897414666742  0.26673292455447717  1.0000
  H   H18       1.0  0.008889871449027073  0.43177241940941086  0.8513071576717438  1.0000
  H   H19       1.0  0.8213211042602104  0.6206506777305609  0.04855432709338636  1.0000
  H   H20       1.0  0.7778203695746411  0.6647572144803261  0.7179923034942703  1.0000
  Zn  Zn1       1.0  0.8281190932485959  0.5352754806978246  0.5547403877047377  1.0000
  Zn  Zn2       1.0  0.9927010793572828  0.5266090304296576  0.5523276965494026  1.0000
  C   C30       1.0  0.9104230830133415  0.5251535332323765  0.7906746697240785  1.0000
  C   C31       1.0  0.9103988970574819  0.5367327026985185  0.3163935143075154  1.0000
  C   C32       1.0  0.9118869990789671  0.7943132360594618  0.5481707144428898  1.0000
  C   C33       1.0  0.9089349151207298  0.26757127031156824  0.5588975408815942  1.0000
  O   O1        1.0  0.9728752790602463  0.5353569085507687  0.3638504069204638  1.0000
  O   O2        1.0  0.9728606141254629  0.5199506043755877  0.7413862273806595  1.0000
  O   O3        1.0  0.9740419031450136  0.7373005124808638  0.5455625789981111  1.0000
  O   O4        1.0  0.9716939339201238  0.31800701373648177  0.5596739587683859  1.0000
  O   O5        1.0  0.8491261825220078  0.743877500350006  0.5473941263022564  1.0000
  O   O6        1.0  0.8479449032098362  0.5265293247635991  0.7432177042084165  1.0000
  O   O7        1.0  0.847959567627401  0.5419355789771625  0.36568032277082163  1.0000
  O   O8        1.0  0.8467782224441031  0.3245856738308915  0.5615039719698727  1.0000
