data_image0
_chemical_formula_structural       NC12NC2H8C13OH12C12OCH12Zn2C4O8
_chemical_formula_sum              "N2 C44 H32 O10 Zn2"
_cell_length_a       19.240039667572717
_cell_length_b       10.299150109392551
_cell_length_c       10.299794127170987
_cell_angle_alpha    85.55695120171342
_cell_angle_beta     89.99328814946612
_cell_angle_gamma    89.97992514300192

_space_group_name_H-M_alt    "P 1"
_space_group_IT_number       1

loop_
  _space_group_symop_operation_xyz
  'x, y, z'

loop_
  _atom_site_type_symbol
  _atom_site_label
  _atom_site_symmetry_multiplicity
  _atom_site_fract_x
  _atom_site_fract_y
  _atom_site_fract_z
  _atom_site_occupancy
  N   N1        1.0  0.6543004721540195  0.4209742713264668  0.5670557004496801  1.0000
  C   C1        1.0  0.5941521033261303  0.42097435529079347  0.5670556184892825  1.0000
  C   C2        1.0  0.5193340661715874  0.42097447254626086  0.5670554811529069  1.0000
  C   C3        1.0  0.48286595284498257  0.35653382342764695  0.670483572254027  1.0000
  C   C4        1.0  0.4101952201089911  0.35642295824743053  0.6705701463868614  1.0000
  C   C5        1.0  0.3730018312311843  0.42097456505323105  0.567055253451805  1.0000
  C   C6        1.0  0.41018412069331406  0.48552635891630264  0.46354055498782504  1.0000
  C   C7        1.0  0.48285482455752476  0.485415258253122  0.4636272516917519  1.0000
  C   C8        1.0  0.2957967408122978  0.420974486358322  0.5670551580661203  1.0000
  C   C9        1.0  0.2586275458898596  0.3077167244613741  0.6089604163541338  1.0000
  C   C10       1.0  0.1859568431881562  0.30782360692682453  0.6088690607402227  1.0000
  C   C11       1.0  0.14946445390950427  0.4209743571926745  0.5670552190151699  1.0000
  C   C12       1.0  0.0746464167602789  0.42097424351227264  0.5670554677010156  1.0000
  N   N2        1.0  0.014498099902756299  0.4209742027454113  0.5670556761237997  1.0000
  C   C13       1.0  0.18591957547656296  0.5341251832769707  0.5252413243774054  1.0000
  C   C14       1.0  0.2585902573532972  0.5342322458309603  0.5251498061184912  1.0000
  H   H1        1.0  0.5105851123617582  0.3066426659751818  0.75123715159394  1.0000
  H   H2        1.0  0.3831059872154197  0.30733027005065006  0.7524389236085438  1.0000
  H   H3        1.0  0.3830868227968747  0.5346190741530501  0.3816717269113721  1.0000
  H   H4        1.0  0.5105654365053272  0.535306315514372  0.38287394816669607  1.0000
  H   H5        1.0  0.2857355855049291  0.21856319178886355  0.6401552802936077  1.0000
  H   H6        1.0  0.1582565321804359  0.21956962281141057  0.6410965538073128  1.0000
  H   H7        1.0  0.1581900630401822  0.6223791428577553  0.4930138458679716  1.0000
  H   H8        1.0  0.28566869654339794  0.6233858576735292  0.4939548973840795  1.0000
  C   C15       1.0  0.8344681209026991  0.039574644886525075  0.5671997902303596  1.0000
  C   C16       1.0  0.8331794626219006  0.027809549534658192  0.7040037235165064  1.0000
  C   C17       1.0  0.8324656269292617  0.9047097211594515  0.7731025401721889  1.0000
  C   C18       1.0  0.8330454828413743  0.7925541009821805  0.7036403466041277  1.0000
  C   C19       1.0  0.834337126383558  0.8023638148297143  0.5669228079967898  1.0000
  C   C20       1.0  0.8350428087048137  0.9263347301317115  0.4995014965180375  1.0000
  C   C21       1.0  0.8310963182125773  0.893245308906772  0.9177354722569252  1.0000
  C   C22       1.0  0.7883548671751999  0.8003845061767323  0.9857535113779363  1.0000
  C   C23       1.0  0.7870433226132824  0.7896779150090583  0.12185295592634747  1.0000
  C   C24       1.0  0.82890537966869  0.8706741913630947  0.19239473682915187  1.0000
  C   C25       1.0  0.8709818456819127  0.9644888123400476  0.12501923750297805  1.0000
  C   C26       1.0  0.8723095236948204  0.9753712004547607  0.9889195042528828  1.0000
  C   C27       1.0  0.8260346537589274  0.8615234725175055  0.338473751588671  1.0000
  O   O1        1.0  0.7740848804067736  0.944710384273118  0.37871241815501844  1.0000
  H   H9        1.0  0.836448980668766  0.2690746497088097  0.30897595543133494  1.0000
  H   H10       1.0  0.8317644355605803  0.11459674268994144  0.7570096680277474  1.0000
  H   H11       1.0  0.8334387744786522  0.6974452694053758  0.7564712368480191  1.0000
  H   H12       1.0  0.836037125344229  0.9346174645203593  0.3940471680776616  1.0000
  H   H13       1.0  0.8347871577533734  0.47866150682900077  0.5143364477078771  1.0000
  H   H14       1.0  0.7551196204392925  0.7373624625830848  0.9336474117877103  1.0000
  H   H15       1.0  0.7532307151357892  0.7183612607286104  0.17222602088950478  1.0000
  H   H16       1.0  0.902936817568492  0.02906401830100091  0.1778715059959476  1.0000
  H   H17       1.0  0.906145368477103  0.047133495318700355  0.9393530424794267  1.0000
  H   H18       1.0  0.8771561125709362  0.8893629852262155  0.37864175341771245  1.0000
  H   H19       1.0  0.8147374574363696  0.7595119052959168  0.37628445717206405  1.0000
  H   H20       1.0  0.7743363551464614  0.9350580006953632  0.4753342990223688  1.0000
  C   C28       1.0  0.8344260855311708  0.42085576815390296  0.18570989663258253  1.0000
  C   C29       1.0  0.7663290098761482  0.3717292583641054  0.18853439519958237  1.0000
  C   C30       1.0  0.7318045528430122  0.3469390644002508  0.07281868585476836  1.0000
  C   C31       1.0  0.7662817197150952  0.3719557428763285  0.9532294213224035  1.0000
  C   C32       1.0  0.8343791844400285  0.4210827601338716  0.9484126607361145  1.0000
  C   C33       1.0  0.8680707562098031  0.4452548015461593  0.06517268747532912  1.0000
  C   C34       1.0  0.6597636953623545  0.29495890428459104  0.0768615448004426  1.0000
  C   C35       1.0  0.609999640398866  0.34362980742389926  0.9856955589726497  1.0000
  C   C36       1.0  0.5422924377636573  0.2946959572029689  0.9897646060132086  1.0000
  C   C37       1.0  0.5233650422406865  0.196754387517853  0.08448687816278833  1.0000
  C   C38       1.0  0.5724436631533286  0.1466787777223746  0.1765159565590968  1.0000
  C   C39       1.0  0.6402452333541421  0.1962522240374576  0.17199530150501818  1.0000
  O   O2        1.0  0.5561011591489197  0.04809818972660574  0.2733734164441084  1.0000
  C   C40       1.0  0.4894903088695071  0.9888200025704423  0.28943216310881614  1.0000
  H   H21       1.0  0.8603832463885088  0.43951675976259974  0.5120912210785817  1.0000
  H   H22       1.0  0.7396304776765973  0.3542990656913103  0.28081775401712883  1.0000
  H   H23       1.0  0.7402315524729021  0.35135968821887786  0.863905377885053  1.0000
  H   H24       1.0  0.9206050803396931  0.4831529984184081  0.0622253145081022  1.0000
  H   H25       1.0  0.8603132344224214  0.43986355597690224  0.6191198722587985  1.0000
  H   H26       1.0  0.6232042770513272  0.42070194009138306  0.9123488617292924  1.0000
  H   H27       1.0  0.5042857480624282  0.3330943582078385  0.9194127926144255  1.0000
  H   H28       1.0  0.4705699814238526  0.16071736923078997  0.08532842941220542  1.0000
  H   H29       1.0  0.6779458529701535  0.1561036665079998  0.2421739842817534  1.0000
  H   H30       1.0  0.475173383117311  0.9403604705119591  0.20058923238706952  1.0000
  H   H31       1.0  0.49128902754115183  0.9143383491647361  0.3731311019077266  1.0000
  H   H32       1.0  0.449892175924393  0.06308415601709738  0.3096822622314579  1.0000
  Zn  Zn1       1.0  0.758245736131576  0.42097078628267504  0.5670631827707213  1.0000
  Zn  Zn2       1.0  0.910552855863604  0.4209670966105952  0.5670587960628748  1.0000
  C   C41       1.0  0.8343873678018706  0.4158657421697974  0.8042474003985489  1.0000
  C   C42       1.0  0.8344128870930532  0.42607377947254355  0.3298747052526305  1.0000
  C   C43       1.0  0.8343586274939528  0.6581789235649469  0.561800211324059  1.0000
  C   C44       1.0  0.8344415756929121  0.1837590376711311  0.5723219641307309  1.0000
  O   O3        1.0  0.8922082167327969  0.427817925329578  0.3782560693122068  1.0000
  O   O4        1.0  0.8921896180831399  0.41411781602444697  0.755862333456174  1.0000
  O   O5        1.0  0.8921656306695614  0.6097887748901766  0.5600845124564613  1.0000
  O   O6        1.0  0.8922321521786674  0.2321469757271011  0.5740337929398489  1.0000
  O   O7        1.0  0.7765663878415675  0.6097909071688405  0.560088185888413  1.0000
  O   O8        1.0  0.7765903749882598  0.41412150871204473  0.7558659370791807  1.0000
  O   O9        1.0  0.7766089737879741  0.4278215722929348  0.3782581116227073  1.0000
  O   O10       1.0  0.7766329092266078  0.23215061342987614  0.5740359326170861  1.0000
