data_image0
_chemical_formula_structural       NC8NH4C6NCH9C7F3H5Zn2C4O8
_chemical_formula_sum              "N3 C26 H18 F3 Zn2 O8"
_cell_length_a       13.859017124695912
_cell_length_b       9.273386996610926
_cell_length_c       10.299327507215196
_cell_angle_alpha    85.45811780594276
_cell_angle_beta     89.98117985165102
_cell_angle_gamma    89.39861590222965

_space_group_name_H-M_alt    "P 1"
_space_group_IT_number       1

loop_
  _space_group_symop_operation_xyz
  'x, y, z'

loop_
  _atom_site_type_symbol
  _atom_site_label
  _atom_site_symmetry_multiplicity
  _atom_site_fract_x
  _atom_site_fract_y
  _atom_site_fract_z
  _atom_site_occupancy
  N   N1        1.0  0.8978495700000434  0.5790954152091873  0.5651004329366345  1.0000
  C   C1        1.0  0.8256679526811913  0.5562355320625905  0.5145290405998573  1.0000
  C   C2        1.0  0.7358782915716865  0.5278011827984012  0.4516247273993603  1.0000
  C   C3        1.0  0.6480534466902081  0.5555217972845721  0.5129485174171486  1.0000
  C   C4        1.0  0.5606479632267016  0.5278024091608822  0.4516242036084673  1.0000
  C   C5        1.0  0.5612497908521552  0.4723549068494079  0.32895727449692735  1.0000
  C   C6        1.0  0.6488912696036706  0.44474083502065476  0.26786953640017686  1.0000
  C   C7        1.0  0.7361151659750337  0.4723525563492725  0.32895833972398236  1.0000
  C   C8        1.0  0.4704281075625152  0.5562364590316957  0.5145285904918984  1.0000
  N   N2        1.0  0.3979006933691207  0.5790957379698338  0.5651002378248235  1.0000
  H   H1        1.0  0.6477288148510112  0.5984403306135246  0.6078956581543592  1.0000
  H   H2        1.0  0.49411937492529645  0.4505377633925151  0.28068873569801034  1.0000
  H   H3        1.0  0.6492153047625148  0.4019099701562849  0.173114678544853  1.0000
  H   H4        1.0  0.8035756223338049  0.45053331123995854  0.28069070438687715  1.0000
  C   C9        1.0  0.15084672750066974  0.15544150617533448  0.5657385403166761  1.0000
  C   C10       1.0  0.16781718253250122  0.2389351649711666  0.4483101698571315  1.0000
  C   C11       1.0  0.1757026576680587  0.17445032994194087  0.33087454367970204  1.0000
  C   C12       1.0  0.16673725896102168  0.024150121685758703  0.32786473183636433  1.0000
  C   C13       1.0  0.15146729363962952  0.9396936123895966  0.4448851818691802  1.0000
  C   C14       1.0  0.14491282173318387  0.0027385529442447453  0.5644734218966001  1.0000
  N   N3        1.0  0.1738076425929651  0.9546292340642062  0.20800453134050767  1.0000
  C   C15       1.0  0.18991210968217387  0.03254522045978491  0.08126787656025969  1.0000
  H   H5        1.0  0.17050822049729097  0.41755346963543505  0.7789603384619737  1.0000
  H   H6        1.0  0.1727389788577806  0.35558130664600784  0.44671680771513644  1.0000
  H   H7        1.0  0.18789213336154864  0.24306601517332949  0.24265652986825306  1.0000
  H   H8        1.0  0.1469134501671716  0.8232928545166122  0.4428363698117273  1.0000
  H   H9        1.0  0.18036311643188951  0.8713280112434821  0.8807961311178677  1.0000
  H   H10       1.0  0.16698536036823364  0.8422616928002827  0.21069766038608995  1.0000
  H   H11       1.0  0.13010137207142103  0.11112220837830122  0.05870275511584233  1.0000
  H   H12       1.0  0.259750871272741  0.09009698542724842  0.0814774238253062  1.0000
  H   H13       1.0  0.19236304268003468  0.9551204448195884  0.004381617677647444  1.0000
  C   C16       1.0  0.14797177455052335  0.5791486369085428  0.18372429920094135  1.0000
  C   C17       1.0  0.2413324957520835  0.636994980936245  0.17836742058729826  1.0000
  C   C18       1.0  0.2877075796926656  0.6686248826211283  0.05836518224115084  1.0000
  C   C19       1.0  0.24109093995841116  0.6368419957631339  0.9431301914457848  1.0000
  C   C20       1.0  0.14778782532898926  0.5790314639937447  0.9464876505202847  1.0000
  C   C21       1.0  0.10162229219160301  0.5510548827391324  0.06725700051551976  1.0000
  C   C22       1.0  0.38928915294372235  0.7258339891328136  0.05401738943765455  1.0000
  F   F1        1.0  0.405553456814717  0.8100813123066122  0.15678275233387895  1.0000
  F   F2        1.0  0.4538292253246585  0.6108091463532113  0.06205807427536336  1.0000
  F   F3        1.0  0.4052885211996464  0.8100617383227222  0.9391393779878349  1.0000
  H   H14       1.0  0.9724605973927748  0.4675737915721925  0.40124305220944106  1.0000
  H   H15       1.0  0.2781932960742035  0.6572861456822698  0.26773364007115874  1.0000
  H   H16       1.0  0.27778608104193925  0.6570243428520612  0.8507200105594698  1.0000
  H   H17       1.0  0.029663932540209492  0.5064730487533069  0.07058086133715102  1.0000
  H   H18       1.0  0.11256362854163449  0.5544381263290403  0.6204928554082346  1.0000
  Zn  Zn1       1.0  0.04215355067971904  0.5790916554177745  0.565107886290177  1.0000
  Zn  Zn2       1.0  0.2535967849034293  0.5790877275688431  0.5651034540772994  1.0000
  C   C23       1.0  0.14786066707813195  0.5733062703375997  0.8023176149627707  1.0000
  C   C24       1.0  0.14789196467964683  0.5848749328918675  0.32789385010902516  1.0000
  C   C25       1.0  0.14603075421045375  0.8425821846354101  0.5595371905203096  1.0000
  C   C26       1.0  0.14972181751870117  0.31559728528001485  0.5706743463820338  1.0000
  O   O1        1.0  0.22810682927858195  0.5867889455924051  0.3762767957950226  1.0000
  O   O2        1.0  0.2281263325038292  0.5713881881965449  0.7539309330962917  1.0000
  O   O3        1.0  0.22664757269982427  0.7888318942633596  0.5578840204300486  1.0000
  O   O4        1.0  0.22958551688254536  0.36934524986219003  0.5723236110694443  1.0000
  O   O5        1.0  0.06616474654539539  0.7888341331273405  0.5578877292927107  1.0000
  O   O6        1.0  0.06764349422281613  0.5713921603774798  0.7539345701230857  1.0000
  O   O7        1.0  0.06762399179045109  0.586792867739427  0.376278871443978  1.0000
  O   O8        1.0  0.06910267943924797  0.3693491616755249  0.5723257841049  1.0000
