data_image0
_chemical_formula_structural       NC12NC2H8C12ClH9C12BrH9Zn2C4O8
_chemical_formula_sum              "N2 C42 H26 Cl1 Br1 Zn2 O8"
_cell_length_a       17.80743265337812
_cell_length_b       10.299768534541528
_cell_length_c       10.299148005577397
_cell_angle_alpha    85.55407396339785
_cell_angle_beta     91.5074316760828
_cell_angle_gamma    89.45366305101135

_space_group_name_H-M_alt    "P 1"
_space_group_IT_number       1

loop_
  _space_group_symop_operation_xyz
  'x, y, z'

loop_
  _atom_site_type_symbol
  _atom_site_label
  _atom_site_symmetry_multiplicity
  _atom_site_fract_x
  _atom_site_fract_y
  _atom_site_fract_z
  _atom_site_occupancy
  N   N1        1.0  0.7080485342755275  0.40681045101685265  0.6013748432393082  1.0000
  C   C1        1.0  0.657252154867082  0.436375968757483  0.5326761469195518  1.0000
  C   C2        1.0  0.5940564414414358  0.4731533263572072  0.4472236167766819  1.0000
  C   C3        1.0  0.6058262270924257  0.5271863978580087  0.3206039169212269  1.0000
  C   C4        1.0  0.5445369626056688  0.5624599370198355  0.23754734262639676  1.0000
  C   C5        1.0  0.4713238306860975  0.5439639339501392  0.28045056536222446  1.0000
  C   C6        1.0  0.4585771274133865  0.48981201272254554  0.40753841186407863  1.0000
  C   C7        1.0  0.5207237129112195  0.4545417291221998  0.4905784742752841  1.0000
  C   C8        1.0  0.380794835158434  0.47020160177268155  0.45330193245202666  1.0000
  C   C9        1.0  0.3619810200495521  0.49737464409490445  0.5803506225219781  1.0000
  C   C10       1.0  0.2887379392751969  0.47892020967923443  0.623294411338718  1.0000
  C   C11       1.0  0.23336544091183242  0.4330383789418206  0.5400274836117911  1.0000
  C   C12       1.0  0.1579852915996204  0.4140309830971256  0.5843722013603019  1.0000
  N   N2        1.0  0.09738498963103911  0.39875031518262943  0.6200223038081634  1.0000
  C   C13       1.0  0.2514875917130636  0.40569637097301503  0.4135217661328115  1.0000
  C   C14       1.0  0.32467788613843607  0.42416561668311936  0.3703220853352185  1.0000
  H   H1        1.0  0.6623034958010194  0.5420134771853092  0.2861669496396435  1.0000
  H   H2        1.0  0.5537679550701038  0.6045664048237479  0.13976835234352425  1.0000
  H   H3        1.0  0.42470681522575726  0.5736057438921176  0.2148598891240281  1.0000
  H   H4        1.0  0.5121908861094638  0.41104998253153946  0.5882329418265284  1.0000
  H   H5        1.0  0.40364722083824495  0.5345468022517496  0.645927206036788  1.0000
  H   H6        1.0  0.2752732413197593  0.5007555516346411  0.7213066801414241  1.0000
  H   H7        1.0  0.20910463368317883  0.36979143727474245  0.34835821443105885  1.0000
  H   H8        1.0  0.3376138350087247  0.4007947157240503  0.2726130764753645  1.0000
  C   C15       1.0  0.9026495032948176  0.021416392834592297  0.610693210301966  1.0000
  C   C16       1.0  0.9076340781331292  0.03089872002373161  0.4744564451769964  1.0000
  C   C17       1.0  0.9102320225092333  0.9185626272105782  0.40543504105136075  1.0000
  C   C18       1.0  0.9077775562279494  0.7956080300125691  0.4744788078163733  1.0000
  C   C19       1.0  0.9027912141020473  0.7841342103816282  0.6107154262437458  1.0000
  C   C20       1.0  0.9002556646744958  0.8975950274782115  0.6780597280090261  1.0000
  C   C21       1.0  0.9155062860249427  0.9296477860209855  0.2613079486422769  1.0000
  C   C22       1.0  0.8727876690984425  0.024083048045716364  0.18479453255553335  1.0000
  C   C23       1.0  0.8778188897226982  0.034319533685541304  0.04914920824061909  1.0000
  C   C24       1.0  0.9254966343335967  0.9506446302874914  0.988321907734247  1.0000
  C   C25       1.0  0.9682033464690534  0.856522078635229  0.06332346028755942  1.0000
  C   C26       1.0  0.9633055325893392  0.8458905778168094  0.19898981813757932  1.0000
  Cl  Cl1       1.0  0.9317253429889577  0.9637355998923911  0.8181270201723078  1.0000
  H   H9        1.0  0.9007115894221064  0.34525770814542306  0.6626010248187915  1.0000
  H   H10       1.0  0.9105446336100497  0.12585849245304942  0.4218607164149173  1.0000
  H   H11       1.0  0.9087276391508637  0.7087622640292197  0.4215756159151596  1.0000
  H   H12       1.0  0.896409533808021  0.889511675584564  0.7831600844993882  1.0000
  H   H13       1.0  0.9009210947627131  0.45230778221883006  0.6626342891630417  1.0000
  H   H14       1.0  0.8347909975227649  0.08883879333935973  0.2297203871032798  1.0000
  H   H15       1.0  0.8444789639658604  0.10713181108744796  0.9914379164227053  1.0000
  H   H16       1.0  0.0053626553417334116  0.7917372988670969  0.016667940549329078  1.0000
  H   H17       1.0  0.9975991590813049  0.7733520828219365  0.25525241063876725  1.0000
  C   C27       1.0  0.9028227622053131  0.40282524330399605  0.22932105240936657  1.0000
  C   C28       1.0  0.8321703614261364  0.46506720702253806  0.22050132561554106  1.0000
  C   C29       1.0  0.7962422944303429  0.49657413834239206  0.09888620181835339  1.0000
  C   C30       1.0  0.8319196177685498  0.46499959357030773  0.9852122797601335  1.0000
  C   C31       1.0  0.9026179344718936  0.4027254127466324  0.9920875934146812  1.0000
  C   C32       1.0  0.9376340276783864  0.372019728829879  0.11454488046546474  1.0000
  C   C33       1.0  0.7215011186391155  0.5624205450076931  0.09060093730886432  1.0000
  C   C34       1.0  0.7057396871338867  0.6640637501248438  0.169926102839141  1.0000
  C   C35       1.0  0.6353593332814151  0.7259292279038037  0.16193156015988386  1.0000
  C   C36       1.0  0.5799404883958875  0.6871331475111282  0.0749117955827623  1.0000
  C   C37       1.0  0.5949475276108357  0.5862924188808436  0.9956980487391869  1.0000
  C   C38       1.0  0.6652639704341377  0.5242063006369493  0.0032969874128565544  1.0000
  Br  Br1       1.0  0.48384517201953653  0.7717924916581973  0.06426070958712216  1.0000
  H   H18       1.0  0.9300140705209488  0.37893666875432874  0.5601857239256591  1.0000
  H   H19       1.0  0.8044529730309613  0.48758707056734174  0.30851374597222647  1.0000
  H   H20       1.0  0.8049444827192469  0.4906527852026474  0.8911043287737521  1.0000
  H   H21       1.0  0.9921310759868842  0.3240148646358516  0.12063176623752848  1.0000
  H   H22       1.0  0.03626720233766312  0.28591704895684744  0.7977255587232248  1.0000
  H   H23       1.0  0.7481350184841891  0.6968029004816366  0.23686490529030094  1.0000
  H   H24       1.0  0.6240291370330565  0.8042294618991072  0.22319498144965033  1.0000
  H   H25       1.0  0.5521081879335726  0.5557144285105646  0.9284310229333058  1.0000
  H   H26       1.0  0.6753369633385503  0.4452428080552275  0.942174431935595  1.0000
  Zn  Zn1       1.0  0.8204026258448789  0.4044810017089024  0.6067635846655282  1.0000
  Zn  Zn2       1.0  0.9850308907551596  0.40106916978349916  0.6146441555230513  1.0000
  C   C39       1.0  0.9026540235645193  0.39757069939488504  0.8479081819579335  1.0000
  C   C40       1.0  0.9027812910412554  0.40798107342186357  0.373499771805315  1.0000
  C   C41       1.0  0.9027619442557042  0.6399651003541084  0.6055357117187579  1.0000
  C   C42       1.0  0.9026733138654778  0.16558511333564427  0.6158723085511026  1.0000
  O   O1        1.0  0.9652429404531845  0.408410979006488  0.4248781025285895  1.0000
  O   O2        1.0  0.9651414178991113  0.3945503126625555  0.8025106482828022  1.0000
  O   O3        1.0  0.9652277226589276  0.5902868742101142  0.6067931234628592  1.0000
  O   O4        1.0  0.9651565795447673  0.21267442792600313  0.6205955272813606  1.0000
  O   O5        1.0  0.840276880875726  0.5928757447321036  0.6008122102111351  1.0000
  O   O6        1.0  0.8401905764209577  0.3971407434772465  0.7965296658283829  1.0000
  O   O7        1.0  0.8402920994358644  0.4110013647691514  0.4188955586157062  1.0000
  O   O8        1.0  0.8402057384965034  0.21526480438729864  0.6146130807395658  1.0000
