data_image0
_chemical_formula_structural       NC10NC3NH7C7OC3NC3H11C6SCOC6H10Zn2C4O8
_chemical_formula_sum              "N4 C43 H28 O10 S1 Zn2"
_cell_length_a       19.210446455230148
_cell_length_b       10.298746005989749
_cell_length_c       10.302041481415108
_cell_angle_alpha    85.5447523670973
_cell_angle_beta     89.98692140310254
_cell_angle_gamma    89.95621662588982

_space_group_name_H-M_alt    "P 1"
_space_group_IT_number       1

loop_
  _space_group_symop_operation_xyz
  'x, y, z'

loop_
  _atom_site_type_symbol
  _atom_site_label
  _atom_site_symmetry_multiplicity
  _atom_site_fract_x
  _atom_site_fract_y
  _atom_site_fract_z
  _atom_site_occupancy
  N   N1        1.0  0.6556378379867891  0.42080676963471525  0.5677849017210037  1.0000
  C   C1        1.0  0.5954092940769895  0.4230143568593461  0.568016235824927  1.0000
  C   C2        1.0  0.5206048612487564  0.4257513608449004  0.568302830137061  1.0000
  C   C3        1.0  0.48499415576540433  0.5419845737864002  0.5834237562928628  1.0000
  C   C4        1.0  0.4123286772625396  0.5421361408112595  0.5833711867045459  1.0000
  C   C5        1.0  0.375438107627995  0.4264603462631635  0.5683893703016222  1.0000
  C   C6        1.0  0.2981159779810085  0.42510382949823944  0.5682386659687022  1.0000
  C   C7        1.0  0.2603628327299438  0.5287047840641865  0.5049019001821677  1.0000
  C   C8        1.0  0.1875844763183435  0.5273024938044302  0.504792699578112  1.0000
  C   C9        1.0  0.15155785528334037  0.4225567955125215  0.5679693067434124  1.0000
  C   C10       1.0  0.0766283348025651  0.42125467161184704  0.5678323685065725  1.0000
  N   N2        1.0  0.016390482141505496  0.4202077197711102  0.5677223050276479  1.0000
  C   C11       1.0  0.18858734360266893  0.3190815514488925  0.6312810830298272  1.0000
  C   C12       1.0  0.261367547787208  0.3202095360110842  0.631440489058064  1.0000
  C   C13       1.0  0.4136586744101677  0.3120474127292894  0.5535567404936415  1.0000
  N   N3        1.0  0.48442862327595904  0.3144924996876639  0.5537225288819132  1.0000
  H   H1        1.0  0.5130950930028504  0.6314200930347802  0.5954791181898083  1.0000
  H   H2        1.0  0.3850597808980373  0.6321530562106938  0.5968210277598367  1.0000
  H   H3        1.0  0.2870906670696511  0.6099825177769935  0.4539311848837635  1.0000
  H   H4        1.0  0.1594386035732488  0.6077519775302416  0.45515199660699923  1.0000
  H   H5        1.0  0.16121988481856883  0.23766863928673418  0.6808222200039697  1.0000
  H   H6        1.0  0.2888685330969005  0.2398787206097841  0.6825186150268443  1.0000
  H   H7        1.0  0.3873933766304827  0.22116753256209631  0.5400605701315884  1.0000
  C   C14       1.0  0.835984221871367  0.03910523529131172  0.5677364441859465  1.0000
  C   C15       1.0  0.8685514529436129  0.04760074360599887  0.4452538271237876  1.0000
  C   C16       1.0  0.8842870626571354  0.9347745719968313  0.38263197167546115  1.0000
  C   C17       1.0  0.8685519765358078  0.8123641596852489  0.44520470088370034  1.0000
  C   C18       1.0  0.8360507362056223  0.8018993010055858  0.5677819771025385  1.0000
  C   C19       1.0  0.8198055385875312  0.9158358335177809  0.6281156490447195  1.0000
  C   C20       1.0  0.9192693968157527  0.943553071500903  0.2538390792736245  1.0000
  O   O1        1.0  0.9617718655474051  0.8555134552752032  0.22862506792551818  1.0000
  C   C21       1.0  0.9060368371756727  0.05214818526801279  0.1536580084819854  1.0000
  C   C22       1.0  0.8401242178175126  0.11165400818569293  0.14156469513971026  1.0000
  C   C23       1.0  0.8279297222035765  0.21337924723755533  0.04568138466175564  1.0000
  N   N4        1.0  0.7609027738893046  0.27372879526293414  0.03449143952480482  1.0000
  C   C24       1.0  0.8816909477106566  0.2552066326404574  0.9605568697173674  1.0000
  C   C25       1.0  0.9469682359721889  0.19553775750747857  0.9707946357143366  1.0000
  C   C26       1.0  0.9591085973140066  0.09423719012277389  0.06637381550722732  1.0000
  H   H8        1.0  0.7754134776070044  0.23034617479262606  0.8000307297252339  1.0000
  H   H9        1.0  0.8823957962411815  0.14211091423848599  0.3990399383710375  1.0000
  H   H10       1.0  0.881107804347057  0.725168615320092  0.39751528283497845  1.0000
  H   H11       1.0  0.7947055146505352  0.9085352474413679  0.7225294602393211  1.0000
  H   H12       1.0  0.7749015356357236  0.57480739727342  0.7995879462752014  1.0000
  H   H13       1.0  0.7979674953027797  0.07829727249622963  0.2055203552152716  1.0000
  H   H14       1.0  0.7204559024479785  0.24331962401249174  0.09743556701218094  1.0000
  H   H15       1.0  0.7512484481669347  0.3493853996609629  0.9632706225594744  1.0000
  H   H16       1.0  0.8729210572152858  0.3335991108119858  0.8860878812901207  1.0000
  H   H17       1.0  0.9882721508957777  0.22786112785655077  0.9045073343513774  1.0000
  H   H18       1.0  0.010160943591356332  0.04950817747627955  0.0728910539232297  1.0000
  C   C27       1.0  0.836030546406713  0.42063151673329124  0.18647219309571297  1.0000
  C   C28       1.0  0.8679534324511675  0.5436874379471104  0.17556103386951794  1.0000
  C   C29       1.0  0.8841468568001755  0.6043918414767839  0.05317654019532436  1.0000
  C   C30       1.0  0.8680194620561381  0.5432834312743973  0.9404555863581692  1.0000
  C   C31       1.0  0.8360044426625972  0.42037297915747823  0.9490462730895644  1.0000
  C   C32       1.0  0.820227066831155  0.35962932605406883  0.07262411880527742  1.0000
  S   S1        1.0  0.9255489549481507  0.7608693637480823  0.04065617321949122  1.0000
  C   C33       1.0  0.011291620034879381  0.6909203252245568  0.043205538756901474  1.0000
  O   O2        1.0  0.03853153953981337  0.6677003592693971  0.9361391626965418  1.0000
  C   C34       1.0  0.0496569619273759  0.6595112593693166  0.16672151848989825  1.0000
  C   C35       1.0  0.11140177011371133  0.5856790674745227  0.16689867415055315  1.0000
  C   C36       1.0  0.1476798615157242  0.554719441657096  0.2828426082469333  1.0000
  C   C37       1.0  0.1229520025719939  0.5971116426195204  0.3997870000173618  1.0000
  C   C38       1.0  0.06195533196660839  0.6707837678760962  0.40098997185671276  1.0000
  C   C39       1.0  0.025469501234577804  0.7021179052662581  0.28534550213745424  1.0000
  H   H19       1.0  0.7757571817459415  0.18880592030570242  0.41434620803632694  1.0000
  H   H20       1.0  0.880462466615716  0.5925986239656116  0.261876120023826  1.0000
  H   H21       1.0  0.8808235126619416  0.5918625688238703  0.8464849013747147  1.0000
  H   H22       1.0  0.7956184130032015  0.2647617596801124  0.08011528983072602  1.0000
  H   H23       1.0  0.8240223919033006  0.3734722309027008  0.62498628461096  1.0000
  H   H24       1.0  0.13150609466544896  0.5511848399953543  0.0775744753955081  1.0000
  H   H25       1.0  0.19499242632690186  0.49765153445402466  0.28198397868810354  1.0000
  H   H26       1.0  0.15109827881687532  0.573011676007875  0.4894427486965365  1.0000
  H   H27       1.0  0.042931779383628355  0.7038890444031385  0.4916679382931293  1.0000
  H   H28       1.0  0.9786852721944179  0.7601270725727247  0.28943135480975424  1.0000
  Zn  Zn1       1.0  0.7597432570052529  0.42063042988845134  0.5677743349175686  1.0000
  Zn  Zn2       1.0  0.9122850458957618  0.42037347244654594  0.5677435046925732  1.0000
  C   C40       1.0  0.8360073545070066  0.4152477392733924  0.8049031093998658  1.0000
  C   C41       1.0  0.836022614284152  0.4257577989742365  0.3306148574105434  1.0000
  C   C42       1.0  0.8360347658543811  0.657716728708055  0.562599322057681  1.0000
  C   C43       1.0  0.8359951507464676  0.18328724916578823  0.5729187138938359  1.0000
  O   O3        1.0  0.8939087656029343  0.42737504588025055  0.3789787520660517  1.0000
  O   O4        1.0  0.893896891306742  0.4134344879337379  0.7565154414926837  1.0000
  O   O5        1.0  0.8939182459012569  0.6092312641979665  0.5608534191127343  1.0000
  O   O6        1.0  0.8938873589603852  0.2315782790277361  0.5746406771033173  1.0000
  O   O7        1.0  0.7781408918856039  0.6094256233963646  0.5608771625105161  1.0000
  O   O8        1.0  0.7781195374263726  0.41363040759502523  0.7565391157530488  1.0000
  O   O9        1.0  0.778131411818395  0.4275709208107787  0.37900086525829413  1.0000
  O   O10       1.0  0.7781100051688539  0.23177414463565338  0.5746628876419348  1.0000
