data_image0
_chemical_formula_structural       NC9NC5H8C9H8C6NCH7Zn2C4O8
_chemical_formula_sum              "N3 C34 H23 Zn2 O8"
_cell_length_a       17.807436237873137
_cell_length_b       9.275152443626249
_cell_length_c       9.273390368590327
_cell_angle_alpha    85.97038560770253
_cell_angle_beta     89.39974432744097
_cell_angle_gamma    88.96355956710403

_space_group_name_H-M_alt    "P 1"
_space_group_IT_number       1

loop_
  _space_group_symop_operation_xyz
  'x, y, z'

loop_
  _atom_site_type_symbol
  _atom_site_label
  _atom_site_symmetry_multiplicity
  _atom_site_fract_x
  _atom_site_fract_y
  _atom_site_fract_z
  _atom_site_occupancy
  N   N1        1.0  0.7155170443739471  0.5240502353686265  0.39328803043080574  1.0000
  C   C1        1.0  0.6547254133160073  0.48484310242329476  0.38119250910019153  1.0000
  C   C2        1.0  0.5791073058898698  0.43607374655358844  0.3661469936684427  1.0000
  C   C3        1.0  0.5606041817205146  0.3555314267655423  0.24989921958200267  1.0000
  C   C4        1.0  0.48718226250142627  0.3080553508156789  0.23519973199795483  1.0000
  C   C5        1.0  0.4312125566734176  0.3407019764228054  0.3367134902491731  1.0000
  C   C6        1.0  0.3531846484573298  0.290375714392318  0.32118237324150156  1.0000
  C   C7        1.0  0.2914824736652568  0.38146936431943157  0.3496468420354857  1.0000
  C   C8        1.0  0.21791706962250787  0.3337679818171184  0.3349633362571003  1.0000
  C   C9        1.0  0.1551804295034227  0.4278545897778015  0.3638210625697802  1.0000
  N   N2        1.0  0.1047531252210303  0.5034937261804454  0.3870218912821022  1.0000
  C   C10       1.0  0.2054687975518676  0.19468617133024524  0.2917882444726201  1.0000
  C   C11       1.0  0.2663135223006224  0.1035770399183129  0.2633145195686226  1.0000
  C   C12       1.0  0.33975720839100326  0.15083790821883736  0.2777748072264228  1.0000
  C   C13       1.0  0.4504099507132487  0.42179586032175376  0.45320261306821874  1.0000
  C   C14       1.0  0.5238836398841238  0.46905867374737537  0.4677301136096863  1.0000
  H   H1        1.0  0.6028706442803167  0.3297167464811403  0.17040317858990717  1.0000
  H   H2        1.0  0.4739603522814007  0.24746512434958862  0.14338850291612792  1.0000
  H   H3        1.0  0.30054528618663984  0.49004170735745145  0.3813101219384132  1.0000
  H   H4        1.0  0.148806361266334  0.15676522877687193  0.2801643176591131  1.0000
  H   H5        1.0  0.2565571657813975  0.9959012401774182  0.23031583453775495  1.0000
  H   H6        1.0  0.3860166733383197  0.07760540707964346  0.2568942152358695  1.0000
  H   H7        1.0  0.408857197716696  0.4470272045297447  0.534137368086709  1.0000
  H   H8        1.0  0.5376410221243193  0.5309920436730351  0.5583805755866178  1.0000
  C   C15       1.0  0.9079230324972299  0.09027216902878929  0.39166201579377624  1.0000
  C   C16       1.0  0.8808322865046663  0.17314086700399217  0.26965557564402287  1.0000
  C   C17       1.0  0.8607230671335422  0.10743574237156062  0.1452443136783732  1.0000
  C   C18       1.0  0.8673888549214179  0.9576911509794152  0.1403748587963689  1.0000
  C   C19       1.0  0.8930109364302188  0.8732008710458115  0.2613701438955094  1.0000
  C   C20       1.0  0.9123542579691472  0.9372605176353337  0.38866030423109565  1.0000
  C   C21       1.0  0.847043821778016  0.8902431680432693  0.011531456176315569  1.0000
  C   C22       1.0  0.8300096109444153  0.8337378059682472  0.9036452825082879  1.0000
  C   C23       1.0  0.8093419632257721  0.7651665235049215  0.7727443257518054  1.0000
  H   H9        1.0  0.015836644410452513  0.16928383700630387  0.6777622589549077  1.0000
  H   H10       1.0  0.8768759314740355  0.2898624787430002  0.269265913148101  1.0000
  H   H11       1.0  0.8406448022466497  0.1737437483192279  0.05222389693622498  1.0000
  H   H12       1.0  0.8961732701515854  0.7566810963766478  0.25729863844983547  1.0000
  H   H13       1.0  0.9826015072210109  0.6403437169059836  0.5844006082229014  1.0000
  H   H14       1.0  0.8230718337757998  0.6478627004904511  0.7859878155201647  1.0000
  H   H15       1.0  0.748212605668347  0.7807677571916822  0.7539975997615791  1.0000
  H   H16       1.0  0.8410623893290915  0.8148482472094207  0.6789426588177458  1.0000
  C   C24       1.0  0.9101499252534184  0.5092672751724193  0.9669307836733134  1.0000
  C   C25       1.0  0.9791163441119414  0.5027587348742666  0.039432934310269285  1.0000
  C   C26       1.0  0.046949709929558374  0.5097200231809932  0.9628896691227696  1.0000
  C   C27       1.0  0.047540785399138745  0.5234895990345951  0.8112044313643905  1.0000
  C   C28       1.0  0.9790194291917891  0.5275418512258947  0.7378939283808181  1.0000
  C   C29       1.0  0.9101273772416859  0.5182654036354233  0.8133915628357782  1.0000
  N   N3        1.0  0.11665225418829038  0.5320443474523704  0.7292613627890963  1.0000
  C   C30       1.0  0.19080864144272924  0.5282979938656513  0.7950551734043603  1.0000
  H   H17       1.0  0.7912412735738595  0.4462535308996678  0.2549246885849976  1.0000
  H   H18       1.0  0.09869063419983502  0.5056600657708372  0.023182318657203323  1.0000
  H   H19       1.0  0.7345080850739825  0.41546918324144816  0.721115296121416  1.0000
  H   H20       1.0  0.1142653354862928  0.5417308189506893  0.6163908876817388  1.0000
  H   H21       1.0  0.19616700642731658  0.6205529635898865  0.8641173793441461  1.0000
  H   H22       1.0  0.19943070573221644  0.42472669278875874  0.8608269652555176  1.0000
  H   H23       1.0  0.23488038870065142  0.5368759442728934  0.7094174024855162  1.0000
  Zn  Zn1       1.0  0.8278421477968723  0.518114311362622  0.391488106890725  1.0000
  Zn  Zn2       1.0  0.9924279417825576  0.5094180204842519  0.3888337050283541  1.0000
  C   C31       1.0  0.91009989049755  0.5108194040844868  0.6534127460367298  1.0000
  C   C32       1.0  0.9101720058697488  0.5167146539449159  0.1269091719056421  1.0000
  C   C33       1.0  0.9115129443706267  0.7771008149246379  0.3834845517831116  1.0000
  C   C34       1.0  0.908758886768107  0.2504315142158784  0.3968374500442138  1.0000
  O   O1        1.0  0.9726388344815373  0.5159075735762173  0.1795920710410246  1.0000
  O   O2        1.0  0.9725498655840228  0.5050251085297568  0.5987148062803773  1.0000
  O   O3        1.0  0.9736900824338097  0.7200507757900689  0.38074588789907904  1.0000
  O   O4        1.0  0.9714985615266223  0.30088191845115686  0.3975608822283978  1.0000
  O   O5        1.0  0.8487714718877626  0.7266504163648235  0.38276093058891125  1.0000
  O   O6        1.0  0.8476312641014954  0.5116264809625051  0.6007297659834876  1.0000
  O   O7        1.0  0.8477202328322332  0.522508877330804  0.18160529813146642  1.0000
  O   O8        1.0  0.8465799598174011  0.3074832130395986  0.3995742174109962  1.0000
