data_image0
_chemical_formula_structural       NC6NC3H6C6NCH9C6H4Zn2C4O8
_chemical_formula_sum              "N3 C26 H19 Zn2 O8"
_cell_length_a       14.934028789175542
_cell_length_b       9.273386996610926
_cell_length_c       10.681121600428288
_cell_angle_alpha    85.46621756597041
_cell_angle_beta     89.97499362812657
_cell_angle_gamma    89.3610420342759

_space_group_name_H-M_alt    "P 1"
_space_group_IT_number       1

loop_
  _space_group_symop_operation_xyz
  'x, y, z'

loop_
  _atom_site_type_symbol
  _atom_site_label
  _atom_site_symmetry_multiplicity
  _atom_site_fract_x
  _atom_site_fract_y
  _atom_site_fract_z
  _atom_site_occupancy
  N   N1        1.0  0.8329033310514793  0.5780359704943521  0.6159580547958015  1.0000
  C   C1        1.0  0.7554244202113459  0.5769373920566416  0.6153698833482597  1.0000
  C   C2        1.0  0.6590367826316503  0.5755657093949835  0.6146356611475616  1.0000
  C   C3        1.0  0.6105811206146161  0.6823932716896557  0.6717244160171757  1.0000
  C   C4        1.0  0.5170765411208162  0.6812919064312506  0.6711357326076204  1.0000
  C   C5        1.0  0.4711147208906738  0.5734174959375604  0.6134876025106633  1.0000
  C   C6        1.0  0.37445393655827935  0.575732050340511  0.6147256259806005  1.0000
  N   N2        1.0  0.29696189951202956  0.5775689410688961  0.6157084389397447  1.0000
  C   C7        1.0  0.5195744010581845  0.4651119976866416  0.5556085551256337  1.0000
  C   C8        1.0  0.47201908173876905  0.34783008998706494  0.49293412386577146  1.0000
  C   C9        1.0  0.6137027571913758  0.46733720155124553  0.5567977517865734  1.0000
  H   H1        1.0  0.6450792986150587  0.7665634814796225  0.7167055713520654  1.0000
  H   H2        1.0  0.4804989796718722  0.7648138835206508  0.7157703464651419  1.0000
  H   H3        1.0  0.428949562253419  0.39691937054112153  0.4158869165327026  1.0000
  H   H4        1.0  0.42968407978481465  0.2849598793773347  0.5626225819527397  1.0000
  H   H5        1.0  0.5199707831411303  0.2718649090980303  0.45233264601422035  1.0000
  H   H6        1.0  0.6517661697891505  0.3849263157301303  0.5127571592134211  1.0000
  C   C10       1.0  0.06769048409730605  0.15414568118841365  0.6164471336949993  1.0000
  C   C11       1.0  0.08341316609969618  0.23760545548684875  0.5032090056858485  1.0000
  C   C12       1.0  0.09070478231520074  0.17309522664062427  0.3899684136126298  1.0000
  C   C13       1.0  0.08238401860379385  0.022802936479902055  0.38707069162224506  1.0000
  C   C14       1.0  0.06823933772767421  0.9383786596167579  0.49991463627495936  1.0000
  C   C15       1.0  0.06218340395340415  0.001448080258720666  0.6152302104457099  1.0000
  N   N3        1.0  0.08891866911525145  0.9532570448061395  0.2714926236890971  1.0000
  C   C16       1.0  0.1038356118863137  0.03113852757811708  0.14927946560750938  1.0000
  H   H7        1.0  0.08598450513675893  0.4162719907224742  0.8220352742206483  1.0000
  H   H8        1.0  0.087980346390913  0.35424675218618823  0.5016701596466393  1.0000
  H   H9        1.0  0.10199714570171814  0.2416859791929984  0.3048985968291631  1.0000
  H   H10       1.0  0.06401281082134602  0.8219818438154505  0.497941352264053  1.0000
  H   H11       1.0  0.09515285825824193  0.8700529499445152  0.9202249622716308  1.0000
  H   H12       1.0  0.08258804159684206  0.840896293699744  0.27409286202639566  1.0000
  H   H13       1.0  0.04832486231081411  0.10976795787053284  0.12755100882569348  1.0000
  H   H14       1.0  0.16864758866562002  0.08862504592879406  0.14944667995921934  1.0000
  H   H15       1.0  0.10609292615855809  0.9536996610620105  0.07514108960895927  1.0000
  C   C17       1.0  0.06493697315553534  0.5777968702539291  0.2480934317928396  1.0000
  C   C18       1.0  0.0013668146067347124  0.4976244490665811  0.1868206576570901  1.0000
  C   C19       1.0  0.001366758098931162  0.49762454162917336  0.05593851760140624  1.0000
  C   C20       1.0  0.0649369023027706  0.5777969410451069  0.9835838674054768  1.0000
  C   C21       1.0  0.12845459361638986  0.6579029230901983  0.0448561851477578  1.0000
  C   C22       1.0  0.12845458230539258  0.6579029007308608  0.17574848384909658  1.0000
  H   H16       1.0  0.951537523305423  0.4347815162182443  0.2399748452601329  1.0000
  H   H17       1.0  0.9515375041629156  0.43478158414677104  0.01147081594712396  1.0000
  H   H18       1.0  0.17829039150823597  0.7207541370791684  0.9917463174804182  1.0000
  H   H19       1.0  0.17829034672134636  0.7207540865503304  0.2201706850617291  1.0000
  Zn  Zn1       1.0  0.9668206483323947  0.5778973299114918  0.6158932527532193  1.0000
  Zn  Zn2       1.0  0.16304468910560693  0.5776957639193092  0.6157834963725015  1.0000
  C   C23       1.0  0.06497229705564028  0.5720495449638967  0.8445686981206086  1.0000
  C   C24       1.0  0.06489517131158704  0.5835453669826411  0.3871081701050763  1.0000
  C   C25       1.0  0.06321976557763942  0.8412899094319318  0.6104699187202989  1.0000
  C   C26       1.0  0.06664764709776039  0.31430326926769725  0.6212070187975434  1.0000
  O   O1        1.0  0.13934718398203505  0.5853918277710155  0.4337211432633057  1.0000
  O   O2        1.0  0.13944979809065106  0.5700490118929769  0.7978720634810834  1.0000
  O   O3        1.0  0.13803360292099875  0.7874640122412897  0.6088356412346067  1.0000
  O   O4        1.0  0.1407633121266415  0.36797683781184093  0.6227574716362709  1.0000
  O   O5        1.0  0.9891019583497151  0.7876162560893144  0.6089192775203148  1.0000
  O   O6        1.0  0.9905181422495501  0.5702029890582659  0.7979556305054993  1.0000
  O   O7        1.0  0.9904155285273288  0.5855457546620215  0.43380320473731104  1.0000
  O   O8        1.0  0.9918316567353349  0.3681307543840641  0.6228396270146532  1.0000
