data_image0
_chemical_formula_structural       NC9NC5H8C7OCH10C7NC2NH8Zn2C4O8
_chemical_formula_sum              "N4 C35 H26 O9 Zn2"
_cell_length_a       17.807436237873137
_cell_length_b       10.30083208314754
_cell_length_c       9.27399911348925
_cell_angle_alpha    85.04366218099177
_cell_angle_beta     89.04204372891122
_cell_angle_gamma    88.38439813745397

_space_group_name_H-M_alt    "P 1"
_space_group_IT_number       1

loop_
  _space_group_symop_operation_xyz
  'x, y, z'

loop_
  _atom_site_type_symbol
  _atom_site_label
  _atom_site_symmetry_multiplicity
  _atom_site_fract_x
  _atom_site_fract_y
  _atom_site_fract_z
  _atom_site_occupancy
  N   N1        1.0  0.7122456914111724  0.3999950622517725  0.3957880936451612  1.0000
  C   C1        1.0  0.6516975720400644  0.3649025359420448  0.38354885599158967  1.0000
  C   C2        1.0  0.5763823663929432  0.32125129794987983  0.3683245732521827  1.0000
  C   C3        1.0  0.5586520866066494  0.25074083884725495  0.25164573689797853  1.0000
  C   C4        1.0  0.485525194664741  0.20824807203233697  0.23677214391582993  1.0000
  C   C5        1.0  0.4290799948214163  0.23588854284698857  0.33854146196614376  1.0000
  C   C6        1.0  0.35136467395822524  0.19084388019766085  0.3228258628456942  1.0000
  C   C7        1.0  0.28909564630171547  0.2723714228003341  0.3516247790648278  1.0000
  C   C8        1.0  0.21582641391802754  0.22967551712290854  0.336766469057698  1.0000
  C   C9        1.0  0.1525059129405953  0.31389108002288907  0.3659688259335947  1.0000
  N   N2        1.0  0.1016092212351686  0.38159455686713706  0.3894467156201624  1.0000
  C   C10       1.0  0.2042427645292656  0.10519432665445638  0.29308116559421293  1.0000
  C   C11       1.0  0.2656544516582582  0.02365300468795061  0.26427292985893835  1.0000
  C   C12       1.0  0.3388049625093356  0.06595613486758456  0.2789062772489779  1.0000
  C   C13       1.0  0.4475009064423611  0.3068914518729118  0.4554637746415822  1.0000
  C   C14       1.0  0.5206812096182744  0.3491951720331741  0.47016444103800503  1.0000
  H   H1        1.0  0.6012922283449627  0.2288713038333965  0.17194876719642815  1.0000
  H   H2        1.0  0.47289768390850717  0.1552799419939097  0.14463015590695052  1.0000
  H   H3        1.0  0.2974895894359761  0.3695812512174532  0.38368331606897665  1.0000
  H   H4        1.0  0.1478156284315569  0.07125171852999679  0.28131834823404134  1.0000
  H   H5        1.0  0.2565662039955539  0.927273485351391  0.2308798784981978  1.0000
  H   H6        1.0  0.38551416171960423  0.0003794653494004762  0.2577597906930067  1.0000
  H   H7        1.0  0.4055732695645804  0.32821089989746777  0.5365997256121374  1.0000
  H   H8        1.0  0.5338405481364059  0.4033927057822848  0.5611482445336624  1.0000
  C   C15       1.0  0.9069515548177702  0.009455758836715676  0.3927684921447523  1.0000
  C   C16       1.0  0.8864865484777193  0.02098504854139737  0.24654286312409338  1.0000
  C   C17       1.0  0.8753036048989031  0.9096813293015167  0.17336256055833954  1.0000
  C   C18       1.0  0.8864334808367152  0.7857316066799485  0.24616237163518084  1.0000
  C   C19       1.0  0.9069105197651043  0.7721234591998801  0.3924787606634501  1.0000
  C   C20       1.0  0.9168729760708049  0.8845431772802115  0.46500889678293245  1.0000
  C   C21       1.0  0.8555638410580458  0.9231209096189339  0.01580692785227211  1.0000
  O   O1        1.0  0.9225461621350148  0.9265168787503486  0.9322043496007661  1.0000
  C   C22       1.0  0.9047726935786203  0.939147250312484  0.7839981721203921  1.0000
  H   H9        1.0  0.9156445364403674  0.3324317019975879  0.44832883182938194  1.0000
  H   H10       1.0  0.8791756924033104  0.11646733940477394  0.18896105196592444  1.0000
  H   H11       1.0  0.8790855110605353  0.7000702867110177  0.18831936421621204  1.0000
  H   H12       1.0  0.9326628707286245  0.8748881654812966  0.5777800899408505  1.0000
  H   H13       1.0  0.9463642751894454  0.5391975980425102  0.6680399482269324  1.0000
  H   H14       1.0  0.8210471869194915  0.01421213094413342  0.9922398440031462  1.0000
  H   H15       1.0  0.8210783631791582  0.8391237815399754  0.9919083784459809  1.0000
  H   H16       1.0  0.957894123336984  0.9416710746461375  0.7197361400923219  1.0000
  H   H17       1.0  0.8728634905520204  0.03179889935511279  0.7544186320802587  1.0000
  H   H18       1.0  0.8728776412868868  0.8543190149939859  0.7540607320508741  1.0000
  C   C23       1.0  0.9082284088880794  0.3940517924658864  0.968749830501007  1.0000
  C   C24       1.0  0.9672082756115427  0.3290832065979392  0.04629746750229068  1.0000
  C   C25       1.0  0.0212153998184903  0.2551047259078138  0.9767929192989446  1.0000
  C   C26       1.0  0.017694230110006925  0.24356012362456633  0.8275583314876431  1.0000
  C   C27       1.0  0.9598449701249517  0.3106682615405327  0.7484328018748692  1.0000
  C   C28       1.0  0.9056336408128663  0.38752743303423937  0.8164973523723997  1.0000
  C   C29       1.0  0.07535702977668102  0.16317040331723298  0.7559532362180374  1.0000
  N   N3        1.0  0.13827419498483473  0.11482427933858162  0.8229846388618512  1.0000
  C   C30       1.0  0.17464787886567512  0.048129684605580744  0.7230939874504476  1.0000
  C   C31       1.0  0.1336087440235667  0.05654088805601938  0.598217824982227  1.0000
  N   N4        1.0  0.0711619206539231  0.12883221206803339  0.619041515546075  1.0000
  H   H19       1.0  0.8282448969200547  0.5617396481899647  0.2365672371493981  1.0000
  H   H20       1.0  0.9706114045978269  0.3327867433308711  0.1623917231869656  1.0000
  H   H21       1.0  0.06527754649072136  0.20518400453180158  0.040821248665068095  1.0000
  H   H22       1.0  0.9579867232856095  0.30724242244879574  0.6323594079335786  1.0000
  H   H23       1.0  0.788406699409875  0.46635890112294476  0.5326165037733657  1.0000
  H   H24       1.0  0.22779794511193185  0.9961936478360959  0.7406156291261543  1.0000
  H   H25       1.0  0.1480321281461956  0.012498127737837537  0.49930675574263006  1.0000
  H   H26       1.0  0.028657379395370164  0.15052401090968348  0.5440208628961445  1.0000
  Zn  Zn1       1.0  0.8246075688457515  0.3946815446113448  0.39396645814070735  1.0000
  Zn  Zn2       1.0  0.9892472898523808  0.3868973978418786  0.39128022170308313  1.0000
  C   C32       1.0  0.9061227092962811  0.3835874823505616  0.6562569457843521  1.0000
  C   C33       1.0  0.9077339467406447  0.39799301250006386  0.12898984577633477  1.0000
  C   C34       1.0  0.9069319948540285  0.6280074830256168  0.3867816051222226  1.0000
  C   C35       1.0  0.9069246048513188  0.15357145370938907  0.3984652649033556  1.0000
  O   O2        1.0  0.9700479171268962  0.3963560135207704  0.18174844813711166  1.0000
  O   O3        1.0  0.9687664789747659  0.3793155175973083  0.6014591369824408  1.0000
  O   O4        1.0  0.9694191404444282  0.5766877875261418  0.38385590604440173  1.0000
  O   O5        1.0  0.96939519980761  0.19898375637055918  0.3993515717608448  1.0000
  O   O6        1.0  0.8444596027070886  0.5825951887404834  0.3858951089920333  1.0000
  O   O7        1.0  0.8438069413855716  0.38522447958508943  0.6034982623742686  1.0000
  O   O8        1.0  0.8450883849018558  0.40226494360981596  0.1837858381211932  1.0000
  O   O9        1.0  0.8444356672487602  0.20489267633880257  0.40138906996832  1.0000
