data_image0
_chemical_formula_structural       NC9NC5H8C9H8C8H9Zn2C4O8
_chemical_formula_sum              "N2 C35 H25 Zn2 O8"
_cell_length_a       17.807436237873137
_cell_length_b       9.275152443626249
_cell_length_c       9.275657083861812
_cell_angle_alpha    85.66173263315568
_cell_angle_beta     88.90332225934053
_cell_angle_gamma    88.96355956710403

_space_group_name_H-M_alt    "P 1"
_space_group_IT_number       1

loop_
  _space_group_symop_operation_xyz
  'x, y, z'

loop_
  _atom_site_type_symbol
  _atom_site_label
  _atom_site_symmetry_multiplicity
  _atom_site_fract_x
  _atom_site_fract_y
  _atom_site_fract_z
  _atom_site_occupancy
  N   N1        1.0  0.7226942787864262  0.5324936777293166  0.3928606234232501  1.0000
  C   C1        1.0  0.6619566788140671  0.4933501080355891  0.3807618845211762  1.0000
  C   C2        1.0  0.5864057801927157  0.4446598179503795  0.36571236677983543  1.0000
  C   C3        1.0  0.5684219385956879  0.3647283925843876  0.24943366922098797  1.0000
  C   C4        1.0  0.4950656824637815  0.3173295640058629  0.2347302713754127  1.0000
  C   C5        1.0  0.43864251138944366  0.349442724011908  0.3362710336525303  1.0000
  C   C6        1.0  0.3606839811761111  0.2991980796538689  0.32073578515871226  1.0000
  C   C7        1.0  0.2988546546799179  0.3901421457687366  0.3492078258844795  1.0000
  C   C8        1.0  0.2253548423331073  0.3425179266516724  0.33452041409594124  1.0000
  C   C9        1.0  0.1624892938158275  0.43645288419000433  0.36338581695219735  1.0000
  N   N2        1.0  0.11195835068005877  0.5119700977691042  0.38659281739720114  1.0000
  C   C10       1.0  0.2130994347959905  0.2036630058661299  0.2913338371559824  1.0000
  C   C11       1.0  0.2740713525962087  0.11270350690828689  0.26285253785795165  1.0000
  C   C12       1.0  0.3474504441132265  0.1598883848585368  0.2773166721468805  1.0000
  C   C13       1.0  0.4573195447443409  0.4299244451755317  0.4527911441459945  1.0000
  C   C14       1.0  0.5307283390997241  0.4771109150400238  0.4673225091981217  1.0000
  H   H1        1.0  0.6110435125456275  0.33933147245409695  0.169916481212105  1.0000
  H   H2        1.0  0.4822538959780022  0.25722181531768107  0.14289461927102431  1.0000
  H   H3        1.0  0.3077760263043416  0.4985480949017662  0.3808795286459963  1.0000
  H   H4        1.0  0.1564889229680536  0.16580314828499437  0.2797068182215048  1.0000
  H   H5        1.0  0.264462402271906  0.0052011187684217735  0.22984507473275873  1.0000
  H   H6        1.0  0.3938031833413262  0.08676561345203204  0.25643052563783963  1.0000
  H   H7        1.0  0.4154052535754921  0.45473046863411776  0.533747428898566  1.0000
  H   H8        1.0  0.5440807827899304  0.5385679071424214  0.5579970854179424  1.0000
  C   C15       1.0  0.9151075303697624  0.09872415626941122  0.391234176244444  1.0000
  C   C16       1.0  0.8885617910973651  0.1822340110695757  0.26919528073960786  1.0000
  C   C17       1.0  0.8690083208633558  0.11718268085663162  0.1447509237039084  1.0000
  C   C18       1.0  0.8756958606639202  0.9674636789680208  0.13988017348137083  1.0000
  C   C19       1.0  0.9007774523149188  0.8823375559368369  0.2609076449547414  1.0000
  C   C20       1.0  0.9195521645844613  0.9457282791896114  0.3882316661860896  1.0000
  C   C21       1.0  0.8559263751735011  0.9006927818220984  0.011002496782204442  1.0000
  C   C22       1.0  0.8393740953723111  0.844754373069224  0.9030876239400136  1.0000
  C   C23       1.0  0.8192911864676267  0.7768709890620406  0.7721518457673273  1.0000
  H   H9        1.0  0.02174312322946114  0.17623233702689992  0.6774105259206857  1.0000
  H   H10       1.0  0.8846071767017256  0.2989576705264618  0.2688055145882182  1.0000
  H   H11       1.0  0.8493455811911561  0.18397951899202436  0.05170576227900782  1.0000
  H   H12       1.0  0.903957973582995  0.7658391774620147  0.25683505643382376  1.0000
  H   H13       1.0  0.988925035557998  0.6477828423352304  0.5840240397330934  1.0000
  H   H14       1.0  0.8329618979198775  0.6594975700996774  0.7853988584822003  1.0000
  H   H15       1.0  0.7582455711424417  0.7925707387886066  0.7534001328956879  1.0000
  H   H16       1.0  0.8514306276555526  0.8270456505071521  0.6783252263274502  1.0000
  C   C24       1.0  0.9192317112976742  0.5199512702309428  0.966389959900066  1.0000
  C   C25       1.0  0.958717215449796  0.627836613566404  0.0303141434422658  1.0000
  C   C26       1.0  0.9916027869657815  0.7422441889732082  0.9456442708275322  1.0000
  C   C27       1.0  0.98611246626667  0.7477237392976241  0.7950758326194114  1.0000
  C   C28       1.0  0.9482526595135925  0.6403985628789887  0.7296706346195534  1.0000
  C   C29       1.0  0.9154279738339045  0.5245011155241781  0.8130759466647466  1.0000
  C   C30       1.0  0.0345909139573941  0.8556596467252682  0.015751805083571213  1.0000
  C   C31       1.0  0.11687846450775718  0.8101568941936423  0.03241386291059922  1.0000
  H   H17       1.0  0.9625867792201305  0.6249580982356477  0.14698611541530604  1.0000
  H   H18       1.0  0.011897309278813273  0.8345340253804405  0.7279694119447663  1.0000
  H   H19       1.0  0.9463492550370253  0.6461207319776945  0.6127075141070626  1.0000
  H   H20       1.0  0.8258707267545475  0.3629646405630397  0.547258714869824  1.0000
  H   H21       1.0  0.0310267962273134  0.9605744110895915  0.9496065941432602  1.0000
  H   H22       1.0  0.009694210422741763  0.8733102378431005  0.12397265658700453  1.0000
  H   H23       1.0  0.12168722713825363  0.7072802453420268  0.10143963210189799  1.0000
  H   H24       1.0  0.1432415696642848  0.7954901918221794  0.9248604918731904  1.0000
  H   H25       1.0  0.14753871229653925  0.8951367183509418  0.08418722328618333  1.0000
  Zn  Zn1       1.0  0.835027422526108  0.5265672125130343  0.3910602210792835  1.0000
  Zn  Zn2       1.0  0.9996250738108937  0.5178848707988899  0.3884051131102937  1.0000
  C   C32       1.0  0.9161151393794901  0.5178958633863537  0.6530545357043682  1.0000
  C   C33       1.0  0.9185391632717707  0.5265579455509355  0.12641090453670545  1.0000
  C   C34       1.0  0.9187339712397782  0.7855957756087506  0.38305453691829716  1.0000
  C   C35       1.0  0.9159202658082009  0.2588563039988272  0.3964109872300443  1.0000
  O   O1        1.0  0.9807706556666236  0.5254740109416083  0.17910781803228115  1.0000
  O   O2        1.0  0.9788094519346234  0.5123890113251235  0.5983420455598978  1.0000
  O   O3        1.0  0.9809233430032416  0.7285601284442972  0.38031514451281323  1.0000
  O   O4        1.0  0.9786567089717159  0.3093029065210018  0.39713461185692567  1.0000
  O   O5        1.0  0.855995731196228  0.7351491797553082  0.3823307232311206  1.0000
  O   O6        1.0  0.853881849561834  0.5189797949302322  0.6003575412694067  1.0000
  O   O7        1.0  0.8558430608666945  0.5320647349736194  0.18112158066822448  1.0000
  O   O8        1.0  0.8537291136290184  0.3158936208188321  0.3991484826137788  1.0000
