data_image0
_chemical_formula_structural       NC9NC5H8C6NCOCH9C6NO2H3Zn2C4O8
_chemical_formula_sum              "N4 C32 H20 O11 Zn2"
_cell_length_a       17.807436237873137
_cell_length_b       10.300268703208214
_cell_length_c       9.273395971720358
_cell_angle_alpha    84.96326544088495
_cell_angle_beta     89.26497821809997
_cell_angle_gamma    88.37019024828581

_space_group_name_H-M_alt    "P 1"
_space_group_IT_number       1

loop_
  _space_group_symop_operation_xyz
  'x, y, z'

loop_
  _atom_site_type_symbol
  _atom_site_label
  _atom_site_symmetry_multiplicity
  _atom_site_fract_x
  _atom_site_fract_y
  _atom_site_fract_z
  _atom_site_occupancy
  N   N1        1.0  0.7087486510684323  0.4027154221891018  0.39604699045687863  1.0000
  C   C1        1.0  0.6481805127278303  0.3676421884713825  0.38379245974835197  1.0000
  C   C2        1.0  0.5728404056483318  0.32401494837068157  0.368549154129614  1.0000
  C   C3        1.0  0.5548808565157772  0.2536968434533762  0.2518241336871856  1.0000
  C   C4        1.0  0.48172961448158985  0.21122752662757915  0.23693201372401937  1.0000
  C   C5        1.0  0.4254893150382827  0.23869914111501345  0.338728840543572  1.0000
  C   C6        1.0  0.3477482869022298  0.19367925130268948  0.3229936104051985  1.0000
  C   C7        1.0  0.2855265159652409  0.27516136506526157  0.3518281168861883  1.0000
  C   C8        1.0  0.2122329944267809  0.23248887739752574  0.3369512058283286  1.0000
  C   C9        1.0  0.1489601872050029  0.3166584244338074  0.36619023474612544  1.0000
  N   N2        1.0  0.09810184047531478  0.3843249056802694  0.38969760641767737  1.0000
  C   C10       1.0  0.2005777790332214  0.10807657237489643  0.29321160910552324  1.0000
  C   C11       1.0  0.2619421923159165  0.026580694352174253  0.2643677763458603  1.0000
  C   C12       1.0  0.3351165876554114  0.06886076918628281  0.27901953885219766  1.0000
  C   C13       1.0  0.44413992417304654  0.3095093055968381  0.45569756395160077  1.0000
  C   C14       1.0  0.5173442499511745  0.3517898581502097  0.47041665698594143  1.0000
  H   H1        1.0  0.5973605704824158  0.23195953502766928  0.17210553701935227  1.0000
  H   H2        1.0  0.46892065329524885  0.158411386572459  0.14475457787976187  1.0000
  H   H3        1.0  0.2939721252601442  0.37232082894352714  0.3839287074559379  1.0000
  H   H4        1.0  0.1441314346639362  0.07415249896307996  0.2814340124650987  1.0000
  H   H5        1.0  0.2527994180231184  0.9302537918920251  0.23093276066720891  1.0000
  H   H6        1.0  0.3817919185275049  0.0033172746990313127  0.2578447639673791  1.0000
  H   H7        1.0  0.4023757492162723  0.33069410940874344  0.5368551758896047  1.0000
  H   H8        1.0  0.5306824823381278  0.4058373729050354  0.5614361777203263  1.0000
  C   C15       1.0  0.9035051510489701  0.012168679435283764  0.3928795497959725  1.0000
  C   C16       1.0  0.9163219580132916  0.022361712851925345  0.2426052510456025  1.0000
  C   C17       1.0  0.9238048918891426  0.9101463113852167  0.1671736066699956  1.0000
  C   C18       1.0  0.9161519635006078  0.7872098844715171  0.24264403773598084  1.0000
  C   C19       1.0  0.9033524923026556  0.7748612536169798  0.39287744693695936  1.0000
  C   C20       1.0  0.8973793970615068  0.8879334688555447  0.4672851589537086  1.0000
  N   N3        1.0  0.9357576496748964  0.9190505779603373  0.012975487864740119  1.0000
  C   C21       1.0  0.9799408272129659  0.01680136947805513  0.9346848199943065  1.0000
  O   O1        1.0  0.022294822678244668  0.0871688690600747  0.0006579760607714465  1.0000
  C   C22       1.0  0.9801346873161846  0.029200186063828244  0.7729641731019172  1.0000
  H   H9        1.0  0.8975400996748013  0.33579675773688455  0.4496926990504475  1.0000
  H   H10       1.0  0.9189975244292227  0.11763730186840583  0.18383266287526845  1.0000
  H   H11       1.0  0.9208751337694697  0.7011807105417501  0.1834738276683443  1.0000
  H   H12       1.0  0.8875146457785243  0.8792615462821433  0.5831931771434604  1.0000
  H   H13       1.0  0.8973919761614351  0.44285381309571675  0.44948148955544104  1.0000
  H   H14       1.0  0.9151223211991496  0.8451471324536355  0.9553072613042555  1.0000
  H   H15       1.0  0.9226758800227819  0.015264299178177957  0.7329726960434253  1.0000
  H   H16       1.0  0.998802934419465  0.12737452751472955  0.7305651640100477  1.0000
  H   H17       1.0  0.018952527471271186  0.9540151810282271  0.7325916121004474  1.0000
  C   C23       1.0  0.9038555636472034  0.39748421232093406  0.9689348096599799  1.0000
  C   C24       1.0  0.8368887102148183  0.4302878428347568  0.040613384853414036  1.0000
  C   C25       1.0  0.7697140227384938  0.4508221593099484  0.9652793004058146  1.0000
  C   C26       1.0  0.7676004854193211  0.4389915730911969  0.8160192004891886  1.0000
  C   C27       1.0  0.834526745812406  0.4084150133494062  0.7429035959333743  1.0000
  C   C28       1.0  0.9030020725464133  0.3895456943450409  0.816822224938027  1.0000
  N   N4        1.0  0.6979503142623261  0.45921004501721013  0.7390174028227703  1.0000
  O   O2        1.0  0.632655313070654  0.4902026328022986  0.8108566187721737  1.0000
  O   O3        1.0  0.6955598356267049  0.448620936469252  0.6060609075607437  1.0000
  H   H18       1.0  0.06827910656099534  0.2442358230788464  0.08267632086069887  1.0000
  H   H19       1.0  0.7191482959459613  0.47474383761354316  0.024486748097853228  1.0000
  H   H20       1.0  0.015108614566079261  0.29010042913117506  0.5435453545770064  1.0000
  Zn  Zn1       1.0  0.82110756213577  0.39740477308421096  0.3942230446595998  1.0000
  Zn  Zn2       1.0  0.9857429013827462  0.3896248579796775  0.391533420758011  1.0000
  C   C29       1.0  0.9031627750857724  0.38587288663347996  0.6565533707432021  1.0000
  C   C30       1.0  0.9036894857749599  0.40115829669107056  0.1292032069957032  1.0000
  C   C31       1.0  0.9033832821762217  0.6307501485298757  0.3871250087509779  1.0000
  C   C32       1.0  0.9034689227407676  0.15627947649841123  0.3986316468781843  1.0000
  O   O4        1.0  0.9661120028977347  0.3994332502528324  0.18197004697341024  1.0000
  O   O5        1.0  0.9656946716634038  0.3816921817361547  0.601744752879545  1.0000
  O   O6        1.0  0.9658718901798775  0.5794336933587596  0.3841794580764666  1.0000
  O   O7        1.0  0.9659347283094708  0.2016917515882453  0.3995352344489922  1.0000
  O   O8        1.0  0.8409156790270915  0.5853378821320308  0.3862212318788616  1.0000
  O   O9        1.0  0.8407384602724073  0.38759793146207744  0.6037864497019267  1.0000
  O   O10       1.0  0.841155793312903  0.4053389709734576  0.18401000808473467  1.0000
  O   O11       1.0  0.8409785186144758  0.20759746200724072  0.4015753037980567  1.0000
