data_image0
_chemical_formula_structural       NC5NC4H6C6NH7C6OCH6Zn2C4O8
_chemical_formula_sum              "N3 C26 H19 O9 Zn2"
_cell_length_a       13.854160002989762
_cell_length_b       9.274771166103582
_cell_length_c       9.273891588657152
_cell_angle_alpha    85.97469330815719
_cell_angle_beta     89.68013189536481
_cell_angle_gamma    90.59704847255895

_space_group_name_H-M_alt    "P 1"
_space_group_IT_number       1

loop_
  _space_group_symop_operation_xyz
  'x, y, z'

loop_
  _atom_site_type_symbol
  _atom_site_label
  _atom_site_symmetry_multiplicity
  _atom_site_fract_x
  _atom_site_fract_y
  _atom_site_fract_z
  _atom_site_occupancy
  N   N1        1.0  0.9257734306609305  0.5642842824768983  0.4072194899882946  1.0000
  C   C1        1.0  0.853833740786255  0.5889678802342924  0.3481349618672307  1.0000
  C   C2        1.0  0.7643397614320285  0.6196749393916052  0.2746315470711609  1.0000
  C   C3        1.0  0.6762991552470599  0.5908336290737746  0.346399012856762  1.0000
  C   C4        1.0  0.5891973492459812  0.6196749535144834  0.2746315238755124  1.0000
  C   C5        1.0  0.49872559805641525  0.588967733715748  0.34813505374574527  1.0000
  N   N2        1.0  0.4259998596199625  0.5642842189680608  0.40721949001750524  1.0000
  C   C6        1.0  0.5901729490208695  0.677964255523527  0.13111445490968454  1.0000
  C   C7        1.0  0.6781962188651164  0.7089551337559947  0.059239640316837594  1.0000
  C   C8        1.0  0.6791830612198578  0.7673819630451688  0.9042346628685762  1.0000
  C   C9        1.0  0.7652500383789292  0.6779642533834924  0.13111436464589832  1.0000
  H   H1        1.0  0.6755685867917454  0.5456075295443652  0.4574787919493292  1.0000
  H   H2        1.0  0.5226565715753161  0.699252477109888  0.07543253521694648  1.0000
  H   H3        1.0  0.7446007441838115  0.8353399300601798  0.8803268268832122  1.0000
  H   H4        1.0  0.614892266299149  0.8353399325245511  0.880326891955955  1.0000
  H   H5        1.0  0.6788137460563711  0.6761961957646045  0.8328551993424114  1.0000
  H   H6        1.0  0.8334795317567184  0.699252588842462  0.075432449596736  1.0000
  C   C10       1.0  0.17292502551086053  0.14069478660467483  0.4080051503247797  1.0000
  C   C11       1.0  0.15118734082005258  0.22284017191143213  0.2791091406147399  1.0000
  C   C12       1.0  0.13846463399819495  0.15662003775668243  0.1493953422333525  1.0000
  C   C13       1.0  0.14753366506647025  0.0068685654313647175  0.1476380244121016  1.0000
  C   C14       1.0  0.16749298120538886  0.9233877709915296  0.27476337970630227  1.0000
  C   C15       1.0  0.17885739850614657  0.9878627556608034  0.4064463809496157  1.0000
  N   N3        1.0  0.11732518294405819  0.24185213485841972  0.019082690746700992  1.0000
  H   H7        1.0  0.2803947881099957  0.22320220955686512  0.7234533449175251  1.0000
  H   H8        1.0  0.1463225719208172  0.3394278834253679  0.27855546886933724  1.0000
  H   H9        1.0  0.1382016641971848  0.9544805698629703  0.04783634344750709  1.0000
  H   H10       1.0  0.17176190938292102  0.8071864970567129  0.27063536113941633  1.0000
  H   H11       1.0  0.24732255644371665  0.6927334849224791  0.6210628429486174  1.0000
  H   H12       1.0  0.11067504822763798  0.3539256144653802  0.01903587482104219  1.0000
  H   H13       1.0  0.1080753442964734  0.19350274146711366  0.9216514184412752  1.0000
  C   C16       1.0  0.17744570545352878  0.5604584903113015  0.983957447935556  1.0000
  C   C17       1.0  0.25691823218311977  0.6213847476448104  0.05241905027230964  1.0000
  C   C18       1.0  0.3309911430658832  0.6930821738269587  0.9724773870628484  1.0000
  C   C19       1.0  0.3258571393382228  0.7042147882342675  0.821016289625037  1.0000
  C   C20       1.0  0.24840634970298714  0.6424151209062969  0.7512140966691869  1.0000
  C   C21       1.0  0.17433668217291243  0.5680989610147379  0.83049402976406  1.0000
  O   O1        1.0  0.4078152323602371  0.7522324315212947  0.04757516476104917  1.0000
  C   C22       1.0  0.48783107213775806  0.8281463650451668  0.98035911826228  1.0000
  H   H14       1.0  0.9472377086681633  0.4718634055117181  0.09513768217807317  1.0000
  H   H15       1.0  0.38184514696674493  0.7592964235721013  0.7559928079190716  1.0000
  H   H16       1.0  0.020774491606837753  0.502733403077642  0.5551716411007641  1.0000
  H   H17       1.0  0.46260492828613553  0.9257589852059169  0.9157839291288203  1.0000
  H   H18       1.0  0.5275758256752866  0.7565571958730108  0.9100781793054664  1.0000
  H   H19       1.0  0.53748175043617  0.8626249274844885  0.06513922675669881  1.0000
  Zn  Zn1       1.0  0.07012792048060956  0.5642804774561185  0.4072278296667593  1.0000
  Zn  Zn2       1.0  0.28164524484291514  0.5642763269658202  0.40722300962853963  1.0000
  C   C23       1.0  0.1748819772806082  0.5609083449527514  0.6704910811431966  1.0000
  C   C24       1.0  0.17689351003083997  0.5676502807286257  0.1439598962212434  1.0000
  C   C25       1.0  0.17775216833969518  0.827678104489637  0.4009972508427162  1.0000
  C   C26       1.0  0.1740232343777003  0.3008787888461586  0.4134538065577704  1.0000
  O   O2        1.0  0.2569778663992055  0.570056043216669  0.197656361906124  1.0000
  O   O3        1.0  0.2553343698292316  0.5584983404080708  0.6167905442441954  1.0000
  O   O4        1.0  0.2576509978294166  0.7739183085464953  0.3991723668279108  1.0000
  O   O5        1.0  0.25466116669165295  0.3546360844229599  0.4152744312322558  1.0000
  O   O6        1.0  0.09711192645142883  0.7739207200018969  0.3991764080571034  1.0000
  O   O7        1.0  0.09479531086485357  0.5585024842119712  0.6167945054314015  1.0000
  O   O8        1.0  0.0964388135114675  0.570060121113489  0.1976585902406518  1.0000
  O   O9        1.0  0.09412211333083961  0.3546401529779821  0.41527676765099675  1.0000
