data_image0
_chemical_formula_structural       NC9NC4H8C7F3H5C9H10Zn2C4O8
_chemical_formula_sum              "N2 C33 H23 F3 Zn2 O8"
_cell_length_a       16.32274767691083
_cell_length_b       9.272718291674593
_cell_length_c       9.272679976505533
_cell_angle_alpha    86.45423910102922
_cell_angle_beta     89.86705810092191
_cell_angle_gamma    89.10298441660798

_space_group_name_H-M_alt    "P 1"
_space_group_IT_number       1

loop_
  _space_group_symop_operation_xyz
  'x, y, z'

loop_
  _atom_site_type_symbol
  _atom_site_label
  _atom_site_symmetry_multiplicity
  _atom_site_fract_x
  _atom_site_fract_y
  _atom_site_fract_z
  _atom_site_occupancy
  N   N1        1.0  0.7586882316625868  0.5549308300840696  0.40988008547106713  1.0000
  C   C1        1.0  0.7063473830232878  0.5017766062287778  0.3492083584116894  1.0000
  C   C2        1.0  0.6412871606086683  0.4357586462711463  0.2738535883388826  1.0000
  C   C3        1.0  0.6528308861905914  0.3454578197803163  0.17077690789477473  1.0000
  C   C4        1.0  0.5734608830410717  0.30139056909831585  0.12047888812703113  1.0000
  C   C5        1.0  0.5145343194362455  0.36588204113869394  0.19409720163211497  1.0000
  C   C6        1.0  0.4245951406686991  0.3488375560955042  0.17464446000829792  1.0000
  C   C7        1.0  0.3690067211583478  0.4240064661173406  0.26044315132601503  1.0000
  C   C8        1.0  0.2842967582650719  0.4094394277208121  0.24381760755912654  1.0000
  C   C9        1.0  0.2282966406385412  0.48691916146392655  0.332253056350188  1.0000
  N   N2        1.0  0.18329148458417852  0.5492001144201895  0.4033401817332367  1.0000
  C   C10       1.0  0.2541221671432844  0.31958191364949373  0.14125530590129443  1.0000
  C   C11       1.0  0.3083886796769091  0.24451257337341395  0.05557064008611357  1.0000
  C   C12       1.0  0.392939806841868  0.2586872416945273  0.07174819469776872  1.0000
  C   C13       1.0  0.5522977418314831  0.45991767424325386  0.30143421262109116  1.0000
  H   H1        1.0  0.7117349069283316  0.3103440664912276  0.13069274110517126  1.0000
  H   H2        1.0  0.5651582868295569  0.22758781451088453  0.0362342405966396  1.0000
  H   H3        1.0  0.39112606439903624  0.49415540519697176  0.34051043640697287  1.0000
  H   H4        1.0  0.1887292331326101  0.30758169379624234  0.12755955561994958  1.0000
  H   H5        1.0  0.28487335349619297  0.17499941031426203  0.9762293061929492  1.0000
  H   H6        1.0  0.43271514877854433  0.1986366051740558  0.0032064153264763588  1.0000
  H   H7        1.0  0.5361218608939876  0.4222430773457657  0.4138195045860625  1.0000
  H   H8        1.0  0.5349387382716211  0.5752622868391355  0.2777078285581338  1.0000
  C   C14       1.0  0.9727656451135032  0.1286330492129706  0.40339797074908007  1.0000
  C   C15       1.0  0.9224366860088333  0.20981931466785667  0.3045371972689941  1.0000
  C   C16       1.0  0.8663548371930285  0.1423308956113336  0.21714081889712333  1.0000
  C   C17       1.0  0.8627618235003204  0.9911588712332672  0.22562508024997197  1.0000
  C   C18       1.0  0.9131398930834556  0.908987651622967  0.3213653242151977  1.0000
  C   C19       1.0  0.9692220030861491  0.9754867438562164  0.4098346110316726  1.0000
  C   C20       1.0  0.8144999539777403  0.2310609204773291  0.10913140211031915  1.0000
  F   F1        1.0  0.7936514184322135  0.36318521565632467  0.16184988533655864  1.0000
  F   F2        1.0  0.7428650247465101  0.16038376904858592  0.08011307703035175  1.0000
  F   F3        1.0  0.8582059683914872  0.25423202895488134  0.9821680811172468  1.0000
  H   H9        1.0  0.07125613508068573  0.2085127734425185  0.7130267566801265  1.0000
  H   H10       1.0  0.9256808821450941  0.3266901007365166  0.2977769651511184  1.0000
  H   H11       1.0  0.8215404262710213  0.9360620295154994  0.156929966070533  1.0000
  H   H12       1.0  0.909803539820461  0.7922792767418733  0.3233564917617733  1.0000
  H   H13       1.0  0.14577860673163112  0.858593173491396  0.580641006263156  1.0000
  C   C21       1.0  0.9693469841061724  0.5486774183323583  0.9832533015153095  1.0000
  C   C22       1.0  0.025397638030450136  0.458732540129834  0.06198403120053486  1.0000
  C   C23       1.0  0.08543398676069791  0.3804178595117253  0.9918741973196155  1.0000
  C   C24       1.0  0.09144953390794419  0.3894718045772355  0.8409881405636553  1.0000
  C   C25       1.0  0.03442366042886144  0.4774729929748927  0.7608734069140963  1.0000
  C   C26       1.0  0.9726406663425722  0.5554424027428371  0.8299792857463357  1.0000
  C   C27       1.0  0.15916508193461376  0.3017024923695529  0.7731423223995334  1.0000
  C   C28       1.0  0.1399329528935913  0.2359771807940381  0.6308413724234977  1.0000
  C   C29       1.0  0.19701856785176328  0.3643095462727866  0.6331166439340667  1.0000
  H   H14       1.0  0.8455796850154823  0.6478337810656871  0.2588452163462147  1.0000
  H   H15       1.0  0.024131080075290526  0.45147660706144294  0.17902332727136083  1.0000
  H   H16       1.0  0.12812583179645887  0.3132087103728287  0.056346857569585136  1.0000
  H   H17       1.0  0.03623023022699212  0.48368171718989883  0.6441136542781694  1.0000
  H   H18       1.0  0.7860709806705883  0.6936030761178846  0.7191724668276601  1.0000
  H   H19       1.0  0.2022564126023586  0.23625946472267306  0.8441760512398644  1.0000
  H   H20       1.0  0.0789745686858423  0.26140484844638673  0.5822841120869859  1.0000
  H   H21       1.0  0.1721898798129733  0.13174169397323565  0.615268240235451  1.0000
  H   H22       1.0  0.17077622598763487  0.4676255157730811  0.585823681578368  1.0000
  H   H23       1.0  0.26264914669656747  0.3350691297065531  0.618869260048566  1.0000
  Zn  Zn1       1.0  0.8812196133086517  0.5532732658305565  0.4080011069500382  1.0000
  Zn  Zn2       1.0  0.06076020456545517  0.550845940643228  0.4052308810235352  1.0000
  C   C30       1.0  0.9720403073049346  0.5484193680524143  0.6698862695925436  1.0000
  C   C31       1.0  0.9699414640842634  0.5557016323984139  0.14334584346070667  1.0000
  C   C32       1.0  0.9698652733872865  0.8153675308620965  0.4028729457318817  1.0000
  C   C33       1.0  0.9721164442854012  0.2887517386333469  0.4103592319621676  1.0000
  O   O1        1.0  0.03827572201684726  0.5571315748972834  0.19602302888636136  1.0000
  O   O2        1.0  0.0399732067871914  0.5451460508030808  0.6151061235078334  1.0000
  O   O3        1.0  0.038215926734318284  0.7607100926867864  0.39949100089436396  1.0000
  O   O4        1.0  0.04003294034102822  0.34156754329310934  0.41163804442653995  1.0000
  O   O5        1.0  0.9019468162646503  0.7625516640105117  0.4015939444848043  1.0000
  O   O6        1.0  0.9037040887656056  0.546989353912027  0.6172090033952464  1.0000
  O   O7        1.0  0.9020065975174901  0.5589748139094185  0.19812417505828273  1.0000
  O   O8        1.0  0.9037638163019351  0.34341077285554866  0.41373929860952363  1.0000
