data_image0
_chemical_formula_structural       NC9NC5H8C12NCOCH13C12IH9Zn2C4O8
_chemical_formula_sum              "N3 C44 H30 O9 I1 Zn2"
_cell_length_a       17.807436237873137
_cell_length_b       10.299155265289647
_cell_length_c       10.29977335064465
_cell_angle_alpha    85.52787819197465
_cell_angle_beta     89.4010069247268
_cell_angle_gamma    88.36808077728017

_space_group_name_H-M_alt    "P 1"
_space_group_IT_number       1

loop_
  _space_group_symop_operation_xyz
  'x, y, z'

loop_
  _atom_site_type_symbol
  _atom_site_label
  _atom_site_symmetry_multiplicity
  _atom_site_fract_x
  _atom_site_fract_y
  _atom_site_fract_z
  _atom_site_occupancy
  N   N1        1.0  0.7069708985123443  0.38828868168908753  0.5567220376859097  1.0000
  C   C1        1.0  0.6463900898110023  0.35309919280978097  0.5457084160945864  1.0000
  C   C2        1.0  0.571034222177392  0.30932734391808614  0.5320086666653507  1.0000
  C   C3        1.0  0.5529487338203486  0.23793664704551085  0.4270266507751787  1.0000
  C   C4        1.0  0.4797820912908288  0.19532607315390482  0.4136424810562022  1.0000
  C   C5        1.0  0.4236522987349501  0.22372864422621672  0.5052079861074898  1.0000
  C   C6        1.0  0.34589500112378635  0.17855948088971263  0.4910661206099541  1.0000
  C   C7        1.0  0.2837030639226027  0.26031500168100935  0.5169811125513846  1.0000
  C   C8        1.0  0.21039416252747184  0.21750136873245562  0.5036106834209129  1.0000
  C   C9        1.0  0.1471515768231808  0.30194836188488483  0.529888790426936  1.0000
  N   N2        1.0  0.096317527428745  0.3698379016833577  0.5510156636825969  1.0000
  C   C10       1.0  0.1986937079325337  0.0926742207495923  0.4642999881227852  1.0000
  C   C11       1.0  0.26002827757918073  0.010904848925465508  0.4383766105330082  1.0000
  C   C12       1.0  0.3332178149681072  0.053323966314255296  0.45154461664528384  1.0000
  C   C13       1.0  0.44242910315843514  0.29561368554080114  0.6104090870491214  1.0000
  C   C14       1.0  0.5156486444299312  0.338033894072183  0.6236376616275681  1.0000
  H   H1        1.0  0.5953419126725757  0.2154702632941241  0.35532041822345395  1.0000
  H   H2        1.0  0.46687362218232664  0.14166326760214187  0.3307376750691078  1.0000
  H   H3        1.0  0.2921817577936658  0.35777969076848265  0.5458296197641888  1.0000
  H   H4        1.0  0.14223519061958492  0.05863838827639767  0.45371506844324233  1.0000
  H   H5        1.0  0.2508509463521008  0.9142606747261591  0.40832745073701443  1.0000
  H   H6        1.0  0.3798713509392295  0.9875789421728165  0.43251546282365183  1.0000
  H   H7        1.0  0.4007530441975354  0.31754060088409014  0.683409977024495  1.0000
  H   H8        1.0  0.5290850969990213  0.39291768828070944  0.7055004823460762  1.0000
  C   C15       1.0  0.9017317217813378  0.9976616382585299  0.5539862951063041  1.0000
  C   C16       1.0  0.8888857783998827  0.008020721515743281  0.4192499454072831  1.0000
  C   C17       1.0  0.8822998434306982  0.8961388041282811  0.35081912092803735  1.0000
  C   C18       1.0  0.8887061177017206  0.7727695804807451  0.41894479501859005  1.0000
  C   C19       1.0  0.9015639081411485  0.7604546716128546  0.5537625613095587  1.0000
  C   C20       1.0  0.9080008951620675  0.8734218400876658  0.6204532678364711  1.0000
  C   C21       1.0  0.8687113138700672  0.908071088742476  0.2082843186817518  1.0000
  C   C22       1.0  0.9068038606115794  0.00040713958316862883  0.12630877150728814  1.0000
  C   C23       1.0  0.8940223406753299  0.011505035372414867  0.9921739340372278  1.0000
  C   C24       1.0  0.8433598256236774  0.9295843118394994  0.9371661248214931  1.0000
  C   C25       1.0  0.8043496010782404  0.8391080597840883  0.019086962472950168  1.0000
  C   C26       1.0  0.8171584799213654  0.8277528619615014  0.15318406365676118  1.0000
  N   N3        1.0  0.8281603435019719  0.940596804598972  0.7998284108193632  1.0000
  C   C27       1.0  0.8830065184189316  0.9749707719974153  0.700807258847183  1.0000
  O   O1        1.0  0.9519297056919316  0.9742285145179882  0.7276554080065751  1.0000
  C   C28       1.0  0.8590265288820172  0.002605471342954632  0.5626194049012634  1.0000
  H   H9        1.0  0.9066961398587463  0.32115217568536214  0.6058056224422022  1.0000
  H   H10       1.0  0.8829370183695094  0.10336700412920385  0.3675277106732142  1.0000
  H   H11       1.0  0.8846598672619642  0.6861818312335867  0.366375869121083  1.0000
  H   H12       1.0  0.917911768794707  0.8647166779047434  0.7243777475063331  1.0000
  H   H13       1.0  0.9262821595856677  0.5299063391783576  0.8080866321693331  1.0000
  H   H14       1.0  0.9469241485393783  0.06353932440686849  0.1658129131824888  1.0000
  H   H15       1.0  0.9228377951563188  0.08561730600649065  0.9321714252057189  1.0000
  H   H16       1.0  0.7641571339832258  0.7766836684079108  0.9787168463685543  1.0000
  H   H17       1.0  0.7859290692198296  0.7573710245253749  0.21405489578462975  1.0000
  H   H18       1.0  0.7752431981445649  0.9142474809484753  0.7695306607029035  1.0000
  H   H19       1.0  0.804795577816261  0.05862274878393703  0.5589606019648623  1.0000
  H   H20       1.0  0.8520703993948183  0.909342311122814  0.5174974762226294  1.0000
  H   H21       1.0  0.9017894694994552  0.06069086315329919  0.5065976069359146  1.0000
  C   C29       1.0  0.9016119622478257  0.3791659221259175  0.17250573431603522  1.0000
  C   C30       1.0  0.9696987033789687  0.4449480552837914  0.16515016662755322  1.0000
  C   C31       1.0  0.004234935330406977  0.478170828465944  0.04429250893263159  1.0000
  C   C32       1.0  0.9697710160778529  0.44473045584377036  0.9298795569371854  1.0000
  C   C33       1.0  0.9016836453310901  0.37895035761972057  0.9352431750570459  1.0000
  C   C34       1.0  0.8679856707994863  0.34653536131310925  0.057018734653260676  1.0000
  C   C35       1.0  0.07626473283660351  0.5477605303331369  0.03756495478614563  1.0000
  C   C36       1.0  0.0880600472752686  0.6502284124294946  0.11717215320330854  1.0000
  C   C37       1.0  0.1558938356221164  0.7156112322490918  0.11063780239026365  1.0000
  C   C38       1.0  0.2126862097153588  0.6795577800913211  0.024825987354323283  1.0000
  C   C39       1.0  0.201615384805308  0.5779418292591256  0.9453506484948857  1.0000
  C   C40       1.0  0.13385785945883244  0.5123294064989551  0.9514780069480008  1.0000
  I   I1        1.0  0.31495501044951585  0.7783579632567738  0.015278142694880918  1.0000
  H   H22       1.0  0.8756459720050392  0.3541659876250626  0.5027573295983669  1.0000
  H   H23       1.0  0.9965577619686583  0.46892411574971427  0.25372589554419744  1.0000
  H   H24       1.0  0.9956378215292264  0.47169448441725065  0.8363792886972238  1.0000
  H   H25       1.0  0.8154594277700657  0.29578859646486433  0.0619248666513279  1.0000
  H   H26       1.0  0.8757509487855804  0.35384884786933973  0.6098360439485893  1.0000
  H   H27       1.0  0.04449079603248118  0.6808731783051003  0.1831929377403485  1.0000
  H   H28       1.0  0.1641908371519445  0.7945009552959977  0.17207855644493586  1.0000
  H   H29       1.0  0.24555311472254446  0.5495159981646252  0.8790326596451092  1.0000
  H   H30       1.0  0.12686652326386125  0.43283688192522685  0.8901791871964256  1.0000
  Zn  Zn1       1.0  0.8193279255429693  0.38296071743339266  0.5550828132175873  1.0000
  Zn  Zn2       1.0  0.9839604855337929  0.3751552758432677  0.5526655678619701  1.0000
  C   C41       1.0  0.9016695543810955  0.373817060482513  0.7910709785237526  1.0000
  C   C42       1.0  0.9016206541295009  0.38430048628250013  0.3166775031453124  1.0000
  C   C43       1.0  0.901591254374192  0.6162721702691238  0.5486297527037731  1.0000
  C   C44       1.0  0.9016988983086721  0.14184381870390925  0.5591187994863769  1.0000
  O   O2        1.0  0.9641007709778662  0.38305590228782543  0.3641455354367469  1.0000
  O   O3        1.0  0.9641417414080886  0.3691365152153726  0.7417679393801937  1.0000
  O   O4        1.0  0.9640776710666596  0.5649221221806273  0.5459949461888418  1.0000
  O   O5        1.0  0.9641647851301592  0.1872703073045756  0.5599184320756025  1.0000
  O   O6        1.0  0.8391235697655889  0.5708456886371152  0.5478299498220098  1.0000
  O   O7        1.0  0.8391876397537362  0.37506164212887066  0.7436028733103333  1.0000
  O   O8        1.0  0.8391466692367029  0.38898098438041107  0.36597890797961274  1.0000
  O   O9        1.0  0.8392106833971181  0.19319538008018688  0.5617519019890205  1.0000
