data_image0
_chemical_formula_structural       NC9NC4H8C7OCH9C7F3H5Zn2C4O8
_chemical_formula_sum              "N2 C32 H22 O9 F3 Zn2"
_cell_length_a       16.32274767691083
_cell_length_b       10.30083208314754
_cell_length_c       9.272721663655245
_cell_angle_alpha    85.8570081302309
_cell_angle_beta     89.98655041730063
_cell_angle_gamma    89.51862078510035

_space_group_name_H-M_alt    "P 1"
_space_group_IT_number       1

loop_
  _space_group_symop_operation_xyz
  'x, y, z'

loop_
  _atom_site_type_symbol
  _atom_site_label
  _atom_site_symmetry_multiplicity
  _atom_site_fract_x
  _atom_site_fract_y
  _atom_site_fract_z
  _atom_site_occupancy
  N   N1        1.0  0.7631908133603107  0.4040017641163909  0.39725341289309846  1.0000
  C   C1        1.0  0.7105583766298978  0.3562694999410425  0.3369934401656898  1.0000
  C   C2        1.0  0.6451359995203498  0.29698565615722505  0.26215007217747766  1.0000
  C   C3        1.0  0.6561843562016051  0.21589591364430435  0.15977289799872962  1.0000
  C   C4        1.0  0.5765726152552209  0.17632370864889424  0.1098162414297672  1.0000
  C   C5        1.0  0.5179998395764538  0.23423675934325483  0.18293497867230846  1.0000
  C   C6        1.0  0.427967162657063  0.21893087987654192  0.16361427099225523  1.0000
  C   C7        1.0  0.3727910957294929  0.28643224022920455  0.24883067301524078  1.0000
  C   C8        1.0  0.28800122445845466  0.27335109862173157  0.23231797176954447  1.0000
  C   C9        1.0  0.232426134843568  0.342927570739856  0.3201532305289483  1.0000
  N   N2        1.0  0.18776263085030534  0.39885560316381286  0.39075790184389847  1.0000
  C   C10       1.0  0.2573337063315712  0.19265942964938843  0.1304517437444186  1.0000
  C   C11       1.0  0.3111884129394715  0.12524748164654764  0.04534859598064367  1.0000
  C   C12       1.0  0.395817295906038  0.13797627690525283  0.06141634750806491  1.0000
  C   C13       1.0  0.5562791156876536  0.3186803482393228  0.2895435515945377  1.0000
  H   H1        1.0  0.7148957482509145  0.18436392427453585  0.1199607359362429  1.0000
  H   H2        1.0  0.5678651544063869  0.11004916214775949  0.026143299475833274  1.0000
  H   H3        1.0  0.39529525174214747  0.3494256916439973  0.3283545552930176  1.0000
  H   H4        1.0  0.1918749446835588  0.18188328014648225  0.11684895235140715  1.0000
  H   H5        1.0  0.2872917619723259  0.06282495377078459  0.9665457399545677  1.0000
  H   H6        1.0  0.435263220148372  0.08405105995124072  0.993339745193536  1.0000
  H   H7        1.0  0.5400825370784934  0.28449404678471724  0.40224754103927496  1.0000
  H   H8        1.0  0.5393668891399802  0.4226139798865869  0.26489680710129626  1.0000
  C   C14       1.0  0.9755042928463323  0.020092343058682786  0.39415654837172953  1.0000
  C   C15       1.0  0.9519500941654013  0.029062528944450165  0.2480998208330587  1.0000
  C   C16       1.0  0.939135909361833  0.9164458496326164  0.1750044363782295  1.0000
  C   C17       1.0  0.9518890048512313  0.7938024343808279  0.2477197687639652  1.0000
  C   C18       1.0  0.9754570928823589  0.7827549561794847  0.3938671517528407  1.0000
  C   C19       1.0  0.9869347646321585  0.8964375730253058  0.46631358817524204  1.0000
  C   C20       1.0  0.9162768781198884  0.9272071834967387  0.017629835807734914  1.0000
  O   O1        1.0  0.9886187509109413  0.9318347386977173  0.9340912630517079  1.0000
  C   C21       1.0  0.9679831050578213  0.9419730171712158  0.7860550461732867  1.0000
  H   H9        1.0  0.94349049464913  0.12356269453181468  0.19058421140084048  1.0000
  H   H10       1.0  0.9433867230154451  0.7071543988142212  0.18994326500297598  1.0000
  H   H11       1.0  0.005107720683644509  0.8887564167404166  0.5789545193155949  1.0000
  H   H12       1.0  0.02081279290716176  0.5546821066083856  0.6691096783242065  1.0000
  H   H13       1.0  0.878435117737547  0.01681679570015548  0.9941028929119096  1.0000
  H   H14       1.0  0.8784663160407403  0.8417253017823548  0.9937717781224289  1.0000
  H   H15       1.0  0.025372259404609958  0.9454994998381506  0.7218415361547201  1.0000
  H   H16       1.0  0.9329341201586704  0.03315595093058055  0.7565211646369923  1.0000
  H   H17       1.0  0.9329465276453409  0.8556720030415789  0.7561636514237864  1.0000
  C   C22       1.0  0.9733132027203268  0.3993437168375591  0.9706025730302318  1.0000
  C   C23       1.0  0.008187097060261325  0.29270509625414776  0.052831785473818955  1.0000
  C   C24       1.0  0.05024098324984982  0.1937036476337024  0.9863208697153697  1.0000
  C   C25       1.0  0.054911019056594235  0.1996268414883362  0.8350973293011452  1.0000
  C   C26       1.0  0.019551761400978352  0.30356769037152764  0.7519082690026226  1.0000
  C   C27       1.0  0.9776481753967832  0.4035036046865672  0.8174210779465305  1.0000
  C   C28       1.0  0.08530923455750217  0.07847455878888954  0.07617539277782015  1.0000
  F   F1        1.0  0.11289664325379656  0.11588164465297247  0.20797192587403202  1.0000
  F   F2        1.0  0.15061593259959172  0.02397026563617644  0.006076787320444143  1.0000
  F   F3        1.0  0.025168864900009247  0.9857319550550158  0.10016674518416302  1.0000
  H   H18       1.0  0.921363917688768  0.7092006970583034  0.04749909350987247  1.0000
  H   H19       1.0  0.004096722581129918  0.2881412336542095  0.169741752548072  1.0000
  H   H20       1.0  0.08519626744777686  0.1229769862746435  0.7807551574669382  1.0000
  H   H21       1.0  0.023062296526820562  0.30394046127032515  0.6351997860440854  1.0000
  H   H22       1.0  0.8306174213823705  0.6243104641112289  0.6982963211845039  1.0000
  Zn  Zn1       1.0  0.8857131176804  0.4025132488531022  0.3953872767906763  1.0000
  Zn  Zn2       1.0  0.06524039382939573  0.40033352039205217  0.39263585398429446  1.0000
  C   C29       1.0  0.9768272486882146  0.39754406693561317  0.6573562570225688  1.0000
  C   C30       1.0  0.9741282238768383  0.4053043176816021  0.13066698460292692  1.0000
  C   C31       1.0  0.9754323634947106  0.6385673165628742  0.3881762379940712  1.0000
  C   C32       1.0  0.9755230483003536  0.16427950900661048  0.39984708203353914  1.0000
  O   O2        1.0  0.042531418457366854  0.40647188892754094  0.18334191486723084  1.0000
  O   O3        1.0  0.04468110066231046  0.39472115054560186  0.6025926458264788  1.0000
  O   O4        1.0  0.043553802482113824  0.5893504912904182  0.3852278895311234  1.0000
  O   O5        1.0  0.0436586548230693  0.21184255768487792  0.4007065639891332  1.0000
  O   O6        1.0  0.9072947954228383  0.591004212305487  0.38731656771717815  1.0000
  O   O7        1.0  0.9084220931091361  0.396376431353612  0.6046812465417597  1.0000
  O   O8        1.0  0.9062724020873982  0.4081271159671278  0.18542878207655833  1.0000
  O   O9        1.0  0.9073996390037071  0.21349777596752229  0.4027935393032549  1.0000
