data_image0
_chemical_formula_structural       NC11NC3H8C12ClH9C11NCOCH12Zn2C4O8
_chemical_formula_sum              "N3 C43 H29 Cl1 O9 Zn2"
_cell_length_a       17.807433833752565
_cell_length_b       10.299768534541528
_cell_length_c       10.299158637457994
_cell_angle_alpha    85.58253282463849
_cell_angle_beta     88.50589662061446
_cell_angle_gamma    90.7030232555817

_space_group_name_H-M_alt    "P 1"
_space_group_IT_number       1

loop_
  _space_group_symop_operation_xyz
  'x, y, z'

loop_
  _atom_site_type_symbol
  _atom_site_label
  _atom_site_symmetry_multiplicity
  _atom_site_fract_x
  _atom_site_fract_y
  _atom_site_fract_z
  _atom_site_occupancy
  N   N1        1.0  0.7079489241478187  0.43794592581045305  0.5346722204445875  1.0000
  C   C1        1.0  0.6571107959624829  0.40324307918160285  0.6012345426822516  1.0000
  C   C2        1.0  0.5938630409637956  0.3600755974114507  0.6840295772221352  1.0000
  C   C3        1.0  0.6055558594277336  0.2965694049254786  0.8067479580655802  1.0000
  C   C4        1.0  0.5442162284415734  0.25508087525083717  0.88725907689889  1.0000
  C   C5        1.0  0.47102925570779297  0.2767854992329691  0.8456926108122818  1.0000
  C   C6        1.0  0.4583597569844103  0.34044607868703336  0.722514030929104  1.0000
  C   C7        1.0  0.3806053220144522  0.36347982531200596  0.6781669123682081  1.0000
  C   C8        1.0  0.3618423536722132  0.34656171676286435  0.5485844666343016  1.0000
  C   C9        1.0  0.2886254392892933  0.3682275974012357  0.5069739274776253  1.0000
  C   C10       1.0  0.2332286290451759  0.40712982048771434  0.5941255575731628  1.0000
  C   C11       1.0  0.1578753652520232  0.42945367793447475  0.5511537234939439  1.0000
  N   N2        1.0  0.09729671372265372  0.44740040081901067  0.5166074963749625  1.0000
  C   C12       1.0  0.2513001704210225  0.42425831584162005  0.7231768678204864  1.0000
  C   C13       1.0  0.3244642697703528  0.4025575961681558  0.7650428386643728  1.0000
  C   C14       1.0  0.520556695997793  0.38193004929381447  0.642019328017275  1.0000
  H   H1        1.0  0.66201229425006  0.2791669114344544  0.8401134809220311  1.0000
  H   H2        1.0  0.5533877595387888  0.20566262512733413  0.9819951684964403  1.0000
  H   H3        1.0  0.42437193513756405  0.2422522696753412  0.909131613653178  1.0000
  H   H4        1.0  0.40352741276915033  0.31489575670330905  0.4798662728468672  1.0000
  H   H5        1.0  0.27519970881699135  0.3543114714292424  0.40693777614179694  1.0000
  H   H6        1.0  0.20889819466095114  0.45470107717151637  0.7913802554495526  1.0000
  H   H7        1.0  0.3373618888086046  0.4180190528307507  0.8648962726228604  1.0000
  H   H8        1.0  0.5120838528683249  0.4327107231642878  0.5475175900949594  1.0000
  C   C15       1.0  0.9025555520060878  0.06130613328679836  0.525640833749841  1.0000
  C   C16       1.0  0.9075288205141218  0.07094442536393974  0.3889399859089735  1.0000
  C   C17       1.0  0.9101210386029477  0.9586906137955539  0.3196766170652523  1.0000
  C   C18       1.0  0.9076723040810819  0.8356601975686565  0.3889488187144077  1.0000
  C   C19       1.0  0.9026972682288583  0.82403033351595  0.5256496865054472  1.0000
  C   C20       1.0  0.900167305931261  0.9374108358095328  0.5932301425552011  1.0000
  C   C21       1.0  0.9153833409928124  0.9699408153905503  0.1750584696427513  1.0000
  C   C22       1.0  0.872657233451384  0.06241709802195673  0.10257641171645249  1.0000
  C   C23       1.0  0.8776771985405313  0.07281194168646433  0.9664625806367062  1.0000
  C   C24       1.0  0.9253510341688244  0.9912502861852318  0.9011422867221914  1.0000
  C   C25       1.0  0.9680651097645687  0.899085422378432  0.9721136693807613  1.0000
  C   C26       1.0  0.9631785565281803  0.8883015722605968  0.10823595386898144  1.0000
  Cl  Cl1       1.0  0.9315656183413745  0.0045361720899994625  0.7303674808879608  1.0000
  H   H9        1.0  0.9006219450079019  0.3850862826734316  0.5777291213860376  1.0000
  H   H10       1.0  0.9104350357712344  0.16600875128799245  0.33607210144643496  1.0000
  H   H11       1.0  0.9086179718537419  0.7488306849573457  0.3359583417022385  1.0000
  H   H12       1.0  0.8963298973560088  0.929207129957678  0.6986885892400023  1.0000
  H   H13       1.0  0.9008314583901118  0.4921457931180661  0.5777426295697281  1.0000
  H   H14       1.0  0.8346633792325734  0.1254869191483916  0.15108310164933236  1.0000
  H   H15       1.0  0.8443315948455862  0.14409632774797768  0.9118974922603114  1.0000
  H   H16       1.0  0.005221435163527576  0.8359480522276531  0.9219563462150182  1.0000
  H   H17       1.0  0.9974777633029139  0.8173331239901513  0.16126247940285898  1.0000
  C   C27       1.0  0.9026968153750642  0.44253199800337306  0.14426892127136348  1.0000
  C   C28       1.0  0.9044677531828788  0.5792769976203177  0.1328759832897617  1.0000
  C   C29       1.0  0.9053067051199651  0.6487470292048516  0.009944711214623817  1.0000
  C   C30       1.0  0.9043240028261261  0.5796333733807746  0.8975711816666934  1.0000
  C   C31       1.0  0.9025559985535635  0.44280453688549964  0.9070216756856668  1.0000
  C   C32       1.0  0.9017565755206032  0.37509525781689135  0.030757795376617828  1.0000
  C   C33       1.0  0.9071810403264433  0.7934064807640591  0.9988658776290364  1.0000
  C   C34       1.0  0.9550746744797731  0.9984920919660921  0.06873770430251303  1.0000
  C   C35       1.0  0.9112325178889195  0.06841219155718603  0.9766237556750821  1.0000
  C   C36       1.0  0.8642142421275157  0.9997975632602956  0.8980196154527937  1.0000
  C   C37       1.0  0.8624751200667855  0.8636938996071957  0.9083141058920154  1.0000
  N   N3        1.0  0.9109716373406374  0.2084505356789479  0.9654033225104333  1.0000
  C   C38       1.0  0.9753529996194571  0.28900105700326023  0.9856493551162363  1.0000
  O   O1        1.0  0.040117537911154244  0.24116151269373812  0.9911595720227981  1.0000
  C   C39       1.0  0.9665671960098242  0.4326015324583974  0.9906624717210955  1.0000
  H   H18       1.0  0.9020391736297227  0.3899327316968411  0.47612581381025576  1.0000
  H   H19       1.0  0.9041491536531352  0.6320860200359012  0.21984269192637743  1.0000
  H   H20       1.0  0.9059625848147221  0.6326862751077288  0.8025246224259588  1.0000
  H   H21       1.0  0.9003931815953409  0.26962070723133724  0.038830418155771255  1.0000
  H   H22       1.0  0.8996750662230664  0.1845429636096486  0.7175456110142528  1.0000
  H   H23       1.0  0.9897510242944633  0.048673255162790426  0.13416132500060152  1.0000
  H   H24       1.0  0.8290837174964806  0.052046053424539725  0.8280274124966667  1.0000
  H   H25       1.0  0.8253375089705789  0.8134061904477927  0.8466889225575106  1.0000
  H   H26       1.0  0.862280733988062  0.2547227411723969  0.932716688858894  1.0000
  H   H27       1.0  0.913744930340955  0.45303333798112977  0.04453153661498255  1.0000
  H   H28       1.0  0.9645559999763722  0.4792196045162794  0.8900379375939607  1.0000
  H   H29       1.0  0.014504474630091966  0.47453284920830596  0.04109388834669714  1.0000
  Zn  Zn1       1.0  0.8203062836153724  0.4406708111217191  0.529466615922074  1.0000
  Zn  Zn2       1.0  0.9849393355670745  0.44466489974824014  0.5218236869938488  1.0000
  C   C40       1.0  0.9025799764416598  0.437579306366879  0.7628450648786089  1.0000
  C   C41       1.0  0.9026674408095042  0.4477580867757875  0.2884452820648258  1.0000
  C   C42       1.0  0.9026675630334449  0.6798573163887223  0.5204729571161542  1.0000
  C   C43       1.0  0.9025797977372911  0.20547851512057003  0.5308174616570553  1.0000
  O   O2        1.0  0.9651349666076243  0.45102208001246447  0.33393173405152754  1.0000
  O   O3        1.0  0.9650651276123617  0.43734575412936844  0.711557432815956  1.0000
  O   O4        1.0  0.9651350124185646  0.6329882912952617  0.5158402800906974  1.0000
  O   O5        1.0  0.9650650256430161  0.25537955073904683  0.5296487920083393  1.0000
  O   O6        1.0  0.8401805373582515  0.6299561587693371  0.5216415135089092  1.0000
  O   O7        1.0  0.8401106528512969  0.4343151818752422  0.7173585970057179  1.0000
  O   O8        1.0  0.840180492176387  0.4479914619459351  0.33973133680726586  1.0000
  O   O9        1.0  0.8401105511890049  0.2523489234184666  0.5354484921338496  1.0000
