data_image0
_chemical_formula_structural       NC8NH4C7NH5C6NH7Zn2C4O8
_chemical_formula_sum              "N4 C25 H16 Zn2 O8"
_cell_length_a       11.048855714531884
_cell_length_b       9.275154477615127
_cell_length_c       9.274774538082514
_cell_angle_alpha    85.29330631285735
_cell_angle_beta     90.34967076044033
_cell_angle_gamma    89.43371274831733

_space_group_name_H-M_alt    "P 1"
_space_group_IT_number       1

loop_
  _space_group_symop_operation_xyz
  'x, y, z'

loop_
  _atom_site_type_symbol
  _atom_site_label
  _atom_site_symmetry_multiplicity
  _atom_site_fract_x
  _atom_site_fract_y
  _atom_site_fract_z
  _atom_site_occupancy
  N   N1        1.0  0.11835157949958419  0.5916842728987164  0.4143676653822399  1.0000
  C   C1        1.0  0.0638776771116705  0.5344908350454187  0.32904497236023134  1.0000
  C   C2        1.0  0.9959110338334533  0.46312973200926755  0.22258633489912039  1.0000
  C   C3        1.0  0.8681942805527599  0.46312954059516365  0.22258643599089445  1.0000
  C   C4        1.0  0.8054700524852599  0.392585902874391  0.11734761540964112  1.0000
  C   C5        1.0  0.8689414879849621  0.3226002664891783  0.01294115341627533  1.0000
  C   C6        1.0  0.9953477014336486  0.3226001561941858  0.012941175671024258  1.0000
  C   C7        1.0  0.0587275903431832  0.3925860015276914  0.11734758805010802  1.0000
  C   C8        1.0  0.8001342553451104  0.5344909100747182  0.32904495950904633  1.0000
  N   N2        1.0  0.7455854654353391  0.5916843153088722  0.4143676943785528  1.0000
  H   H1        1.0  0.7074083862726047  0.3917025384585868  0.11602912973633363  1.0000
  H   H2        1.0  0.8200791623528955  0.26831776719870604  0.9319616873118837  1.0000
  H   H3        1.0  0.044281202671362825  0.2683178766000418  0.931961687136845  1.0000
  H   H4        1.0  0.15679039987182214  0.39170248702732313  0.11602940500038626  1.0000
  C   C9        1.0  0.43546796922533365  0.1683095115847575  0.4126976566772946  1.0000
  C   C10       1.0  0.40158550524367054  0.2525957344133296  0.28545298684378695  1.0000
  C   C11       1.0  0.3578936088711193  0.18760580059161902  0.16494865639959633  1.0000
  C   C12       1.0  0.34736770564786945  0.03743897708484598  0.17026979599378111  1.0000
  C   C13       1.0  0.382356834650919  0.9519703155867697  0.29461402498820455  1.0000
  C   C14       1.0  0.4284808545906445  0.015047859713783078  0.4160501774536869  1.0000
  C   C15       1.0  0.3223929821618017  0.27548717961390934  0.03617035643149124  1.0000
  N   N3        1.0  0.2938603113328216  0.3461276152987163  0.9326655895220609  1.0000
  H   H5        1.0  0.46077623093127623  0.24189831273311868  0.7669448613163807  1.0000
  H   H6        1.0  0.4065060153747275  0.36959239263009014  0.2811709048221567  1.0000
  H   H7        1.0  0.3131428426878349  0.986118232633501  0.07765464974766334  1.0000
  H   H8        1.0  0.37600080052683854  0.8355038244979098  0.294487017405544  1.0000
  H   H9        1.0  0.4506515066180473  0.7142124149714728  0.6534058812222499  1.0000
  C   C16       1.0  0.42977191876689935  0.5953661240246746  0.9905721801575716  1.0000
  C   C17       1.0  0.5148294127271299  0.6804456085023232  0.05764554409096  1.0000
  C   C18       1.0  0.6054146797223601  0.7536489294908744  0.9771704607838693  1.0000
  C   C19       1.0  0.6116782653585385  0.7421047694800611  0.8281473391286829  1.0000
  C   C20       1.0  0.5269828643816192  0.6602012814702047  0.7593839873016779  1.0000
  C   C21       1.0  0.43417688782084984  0.5879911855692475  0.838175607159461  1.0000
  N   N4        1.0  0.6918632621168977  0.8385278372974616  0.047248275746406554  1.0000
  H   H10       1.0  0.25118725874147874  0.3135323598851276  0.11537663285703315  1.0000
  H   H11       1.0  0.5125943892690333  0.6872833611661873  0.1736927459858113  1.0000
  H   H12       1.0  0.6816236269082636  0.7978076142831868  0.7648371125497047  1.0000
  H   H13       1.0  0.5324129221255276  0.656190927715803  0.6431950597347895  1.0000
  H   H14       1.0  0.31014056392035544  0.4025552918021809  0.5713596311738107  1.0000
  H   H15       1.0  0.6882740755863  0.84756890288857  0.15865399468632213  1.0000
  H   H16       1.0  0.7600710762211602  0.8930969284141582  0.988222244936484  1.0000
  Zn  Zn1       1.0  0.2993578195623132  0.5916803448650163  0.4143759895316528  1.0000
  Zn  Zn2       1.0  0.5645794114601679  0.5916763155205045  0.4143711344207246  1.0000
  C   C22       1.0  0.43338895555256207  0.5836417057488477  0.6779376718464014  1.0000
  C   C23       1.0  0.4305511574066994  0.5997167724651504  0.15080960090424522  1.0000
  C   C24       1.0  0.42976544509156495  0.8550463076265749  0.40966545974177704  1.0000
  C   C25       1.0  0.4341745920594374  0.32831043775759383  0.41908188309483485  1.0000
  O   O1        1.0  0.5314629408261016  0.6011690709170321  0.20458487570137684  1.0000
  O   O2        1.0  0.5337742303896346  0.582185265098621  0.6241582923843587  1.0000
  O   O3        1.0  0.5308468508525823  0.8013479004583464  0.40752658899962646  1.0000
  O   O4        1.0  0.5343902292135249  0.38200644681368656  0.4212164709195936  1.0000
  O   O5        1.0  0.32954691130179103  0.8013502135748447  0.4075306530268554  1.0000
  O   O6        1.0  0.332474276139936  0.5821893110479595  0.6241622863196942  1.0000
  O   O7        1.0  0.3301629780540414  0.6011730817228549  0.2045871343087291  1.0000
  O   O8        1.0  0.33309026708392775  0.38201044636614  0.4212188376875339  1.0000
