data_image0
_chemical_formula_structural       NC8NH4C6ClH5C9H8Zn2C4O8
_chemical_formula_sum              "N2 C27 H17 Cl1 Zn2 O8"
_cell_length_a       13.859017124695912
_cell_length_b       9.276545438789551
_cell_length_c       9.273585224739813
_cell_angle_alpha    86.17382153224601
_cell_angle_beta     90.10205969128333
_cell_angle_gamma    89.40963735980037

_space_group_name_H-M_alt    "P 1"
_space_group_IT_number       1

loop_
  _space_group_symop_operation_xyz
  'x, y, z'

loop_
  _atom_site_type_symbol
  _atom_site_label
  _atom_site_symmetry_multiplicity
  _atom_site_fract_x
  _atom_site_fract_y
  _atom_site_fract_z
  _atom_site_occupancy
  N   N1        1.0  0.8959231493800436  0.5619610948752212  0.4110862326755813  1.0000
  C   C1        1.0  0.8236632404031256  0.5385361137672093  0.354911495326403  1.0000
  C   C2        1.0  0.7337761945861364  0.5093988550576825  0.2850373419195331  1.0000
  C   C3        1.0  0.6460462876333267  0.5378047174581122  0.3531558506792012  1.0000
  C   C4        1.0  0.5585458656240057  0.5094000748444745  0.2850367633588784  1.0000
  C   C5        1.0  0.5589577877645159  0.45258185927128397  0.14877825839409156  1.0000
  C   C6        1.0  0.6465046940078427  0.4242851773133631  0.08092195591248874  1.0000
  C   C7        1.0  0.7338231641614846  0.4525795220731452  0.14877943532619997  1.0000
  C   C8        1.0  0.46842339473731687  0.538537035148315  0.354910997870006  1.0000
  N   N2        1.0  0.3959742725014814  0.5619614152526455  0.4110860168627619  1.0000
  H   H1        1.0  0.6458686472983619  0.581784215262948  0.45862319848785266  1.0000
  H   H2        1.0  0.4917526455573651  0.4302253496631083  0.0951615363028262  1.0000
  H   H3        1.0  0.6466820354428949  0.38039549622161783  0.9756681977366406  1.0000
  H   H4        1.0  0.8012088953062563  0.4302209221479011  0.09516371119694013  1.0000
  C   C9        1.0  0.14886515394556254  0.13852372200325577  0.41084853782642883  1.0000
  C   C10       1.0  0.1490718371512898  0.2208273638935168  0.2778151774941029  1.0000
  C   C11       1.0  0.14050352056819615  0.15442947531467333  0.14767731529078826  1.0000
  C   C12       1.0  0.13152691123968419  0.004847377487010143  0.14857067436961824  1.0000
  C   C13       1.0  0.13280597128541105  0.9209805819438686  0.2791622051285354  1.0000
  C   C14       1.0  0.14304161229338325  0.9853878863301591  0.4113362026747287  1.0000
  Cl  Cl1       1.0  0.1395598117062553  0.2593837731515656  0.9831300336569941  1.0000
  H   H5        1.0  0.19848364548029762  0.4037786089738653  0.6374519894452677  1.0000
  H   H6        1.0  0.153589642142145  0.33751902127491906  0.2749615589685108  1.0000
  H   H7        1.0  0.12447597064480753  0.9531057100841437  0.0478882536002978  1.0000
  H   H8        1.0  0.12808557048706315  0.8046932610969915  0.27651185689948155  1.0000
  H   H9        1.0  0.11097396034010676  0.6890135902127829  0.6444009379672997  1.0000
  C   C15       1.0  0.14547776625866193  0.5576675397589812  0.9878383719823584  1.0000
  C   C16       1.0  0.2318080560906817  0.525552403138311  0.06377662137903273  1.0000
  C   C17       1.0  0.31935493914112706  0.50641534105093  0.9915051964807082  1.0000
  C   C18       1.0  0.3197812966360032  0.5202041226934211  0.8394539105340174  1.0000
  C   C19       1.0  0.23450082479880277  0.5496081646415332  0.7625103802259723  1.0000
  C   C20       1.0  0.1464289811033106  0.5662440214202722  0.8343463508758475  1.0000
  C   C21       1.0  0.4090154925924543  0.4733479145935926  0.08300132896883627  1.0000
  C   C22       1.0  0.48514521821765855  0.3744118274161654  0.02270638901390476  1.0000
  C   C23       1.0  0.5040413545095093  0.5356378338205645  0.026703103260800283  1.0000
  H   H10       1.0  0.23139630861634375  0.5185935582599825  0.18094212312108482  1.0000
  H   H11       1.0  0.3853141384747041  0.5071754872239504  0.7785120577097624  1.0000
  H   H12       1.0  0.0021931401942605357  0.6686988656913404  0.5457352810836604  1.0000
  H   H13       1.0  0.4027376558133755  0.4640483026552554  0.20275782526044694  1.0000
  H   H14       1.0  0.4724223890345569  0.33730661154410524  0.9131071913282303  1.0000
  H   H15       1.0  0.5256546352107234  0.3068997116794019  0.10618879368050305  1.0000
  H   H16       1.0  0.5027538561644482  0.596291092776374  0.9195188802806441  1.0000
  H   H17       1.0  0.5555855597347856  0.5623813502945956  0.11252597508779605  1.0000
  Zn  Zn1       1.0  0.0402271406545085  0.5619574218908634  0.41109449594954417  1.0000
  Zn  Zn2       1.0  0.2516703677616947  0.561953445465755  0.4110895683480862  1.0000
  C   C24       1.0  0.14628652556880573  0.5588785023549965  0.6743349124761031  1.0000
  C   C25       1.0  0.1456132794486691  0.5650341857666872  0.14784929428123994  1.0000
  C   C26       1.0  0.14413094631476753  0.8252543080594348  0.4055004612679701  1.0000
  C   C27       1.0  0.14776879855145242  0.29865664842306683  0.416683821336459  1.0000
  O   O1        1.0  0.2259004049136606  0.5674986997017817  0.20154854790109392  1.0000
  O   O2        1.0  0.22647992402906317  0.5564098784062059  0.6206315033894845  1.0000
  O   O3        1.0  0.2247381865092808  0.7715117254988806  0.40354578287913445  1.0000
  O   O4        1.0  0.2276420700898245  0.3523968618305729  0.41863416034990886  1.0000
  O   O5        1.0  0.06425536617116312  0.7715140055288949  0.4035499039418222  1.0000
  O   O6        1.0  0.06599709168698498  0.5564138900782529  0.6206355485991881  1.0000
  O   O7        1.0  0.06541757103407075  0.5675026435687605  0.20155086019528534  1.0000
  O   O8        1.0  0.06715923639863752  0.35240079647893574  0.4186365806997371  1.0000
