data_image0
_chemical_formula_structural       NC8NH4C6NCH9C9H10Zn2C4O8
_chemical_formula_sum              "N3 C28 H23 Zn2 O8"
_cell_length_a       13.859017124695912
_cell_length_b       9.273386996610926
_cell_length_c       10.29718717394978
_cell_angle_alpha    85.47297527559209
_cell_angle_beta     89.97407186165773
_cell_angle_gamma    89.39861590222965

_space_group_name_H-M_alt    "P 1"
_space_group_IT_number       1

loop_
  _space_group_symop_operation_xyz
  'x, y, z'

loop_
  _atom_site_type_symbol
  _atom_site_label
  _atom_site_symmetry_multiplicity
  _atom_site_fract_x
  _atom_site_fract_y
  _atom_site_fract_z
  _atom_site_occupancy
  N   N1        1.0  0.8979847748684316  0.5786787427543822  0.5648317755381231  1.0000
  C   C1        1.0  0.8258079226903617  0.5558041744641893  0.5142509146789374  1.0000
  C   C2        1.0  0.7360241888036273  0.5273515587685367  0.45133482385335255  1.0000
  C   C3        1.0  0.6481935656257797  0.5550899807268899  0.5126700955736041  1.0000
  C   C4        1.0  0.5607938605079972  0.527352784978917  0.45133429996439034  1.0000
  C   C5        1.0  0.5614072465493752  0.4718696621044082  0.32864440382518156  1.0000
  C   C6        1.0  0.6490544813550279  0.4442378513492697  0.2675452282221589  1.0000
  C   C7        1.0  0.7362726215718818  0.4718673119135981  0.32864546925167964  1.0000
  C   C8        1.0  0.4705680776140973  0.5558051013025904  0.5142504644867046  1.0000
  N   N2        1.0  0.3980358982558935  0.5786790654583713  0.564831580389781  1.0000
  H   H1        1.0  0.6478599872958584  0.5980360852246653  0.6076350133402397  1.0000
  H   H2        1.0  0.4942813787745861  0.45003850221667085  0.2803668276689742  1.0000
  H   H3        1.0  0.6493874448865465  0.40137947115202616  0.17277262933868753  1.0000
  H   H4        1.0  0.8037376259975929  0.4500340506357908  0.2803687967264399  1.0000
  C   C9        1.0  0.1509818722427425  0.15502501901696  0.5654700023915216  1.0000
  C   C10       1.0  0.16796339208199165  0.2384845784454872  0.44801964572385305  1.0000
  C   C11       1.0  0.17585993270864386  0.17396564194200925  0.33056203197980527  1.0000
  C   C12       1.0  0.16689481760418312  0.023664559683410403  0.32755165660697855  1.0000
  C   C13       1.0  0.15161382591209027  0.9392420313008238  0.44459401647264923  1.0000
  C   C14       1.0  0.14504808568232397  0.0023216984152125693  0.5642046471023081  1.0000
  N   N3        1.0  0.1739764951851981  0.9541088665290384  0.20766901458950596  1.0000
  C   C15       1.0  0.19009290416436397  0.03198805057672272  0.08090863080358424  1.0000
  H   H5        1.0  0.1706232741989746  0.41719889876172006  0.7787317222253549  1.0000
  H   H6        1.0  0.17288533854343632  0.355130257432813  0.4464259852553845  1.0000
  H   H7        1.0  0.18805772083404215  0.24255571003808307  0.24232750103876977  1.0000
  H   H8        1.0  0.14706017549102768  0.8228406784847719  0.4425448208144692  1.0000
  H   H9        1.0  0.18046857455262838  0.8710030118956679  0.8805865816785063  1.0000
  H   H10       1.0  0.1671539591976483  0.8417421073077862  0.21036264787180303  1.0000
  H   H11       1.0  0.1302842927750869  0.11055848593590922  0.05833928447335279  1.0000
  H   H12       1.0  0.2599316460101273  0.0895398763934436  0.08111821730233328  1.0000
  H   H13       1.0  0.1925510818480214  0.9545409483661061  0.004007976444962978  1.0000
  C   C16       1.0  0.14814291497227813  0.5786212187726492  0.18338423644257396  1.0000
  C   C17       1.0  0.0500821975583694  0.6182471589032044  0.17984318267698265  1.0000
  C   C18       1.0  0.9998428034649561  0.6385484540338693  0.061412593052641476  1.0000
  C   C19       1.0  0.04970206990539672  0.618400215105309  0.9446202291501218  1.0000
  C   C20       1.0  0.14788707214460817  0.5787255446882729  0.9462903904204164  1.0000
  C   C21       1.0  0.1964663202745145  0.5590937153877485  0.0660609841751001  1.0000
  C   C22       1.0  0.893783072122194  0.6814064452394579  0.06701486075322904  1.0000
  C   C23       1.0  0.8266380469366644  0.6233791859949802  0.9668296998880841  1.0000
  C   C24       1.0  0.8542156056915557  0.782539815819654  0.955492493650279  1.0000
  H   H14       1.0  0.1859313600702306  0.5633651656028782  0.5122861088988161  1.0000
  H   H15       1.0  0.012225452192412996  0.6335453073325839  0.2698984993129363  1.0000
  H   H16       1.0  0.012895827956227235  0.6332701573624065  0.8519909347915213  1.0000
  H   H17       1.0  0.2721220391763697  0.5285207525206782  0.06806563536879652  1.0000
  H   H18       1.0  0.3333273639466592  0.5037728032143203  0.7422297337681343  1.0000
  H   H19       1.0  0.8596938786479642  0.6951829481742524  0.16307158088444185  1.0000
  H   H20       1.0  0.8597708753959366  0.558263136429543  0.8924019525269493  1.0000
  H   H21       1.0  0.7517824544827653  0.6038584403204863  0.0019774583082363705  1.0000
  H   H22       1.0  0.9041007676319427  0.8141049654573539  0.8741789420887267  1.0000
  H   H23       1.0  0.7954770183967432  0.8560418850678291  0.9840117364602193  1.0000
  Zn  Zn1       1.0  0.04228875484580752  0.5786749851273072  0.564839230287163  1.0000
  Zn  Zn2       1.0  0.2537319894871475  0.5786710559913302  0.5648347972444387  1.0000
  C   C25       1.0  0.14797351991672603  0.5729584820526876  0.8020933719277925  1.0000
  C   C26       1.0  0.14804952057910947  0.5843893793450115  0.32758078033147703  1.0000
  C   C27       1.0  0.14616648328100634  0.8421638967017744  0.559267491511452  1.0000
  C   C28       1.0  0.1498564971794367  0.3151822314027405  0.5704067325918138  1.0000
  O   O1        1.0  0.22825982624586993  0.5863174416983696  0.3759727847952584  1.0000
  O   O2        1.0  0.22824374462664276  0.5710263491738835  0.7536976305840015  1.0000
  O   O3        1.0  0.2267834575420069  0.7884131262749141  0.5576140118968269  1.0000
  O   O4        1.0  0.22972004113964095  0.36893067490565756  0.5720563060723767  1.0000
  O   O5        1.0  0.06630063103810668  0.7884153662158906  0.5576177214539024  1.0000
  O   O6        1.0  0.06776090600292717  0.5710303224109542  0.7537012682917592  1.0000
  O   O7        1.0  0.06777698856215887  0.5863213644481279  0.3759748608328389  1.0000
  O   O8        1.0  0.06923720349158735  0.3689345873500083  0.5720584795146915  1.0000
