data_image0
_chemical_formula_structural       NC8NC6H8C7NC2NH8C6NCOCH9Zn2C4O8
_chemical_formula_sum              "N5 C35 H25 O9 Zn2"
_cell_length_a       17.457602349358154
_cell_length_b       9.273995741505848
_cell_length_c       10.300272075376752
_cell_angle_alpha    85.68415599440686
_cell_angle_beta     92.87481935650747
_cell_angle_gamma    92.2639659462817

_space_group_name_H-M_alt    "P 1"
_space_group_IT_number       1

loop_
  _space_group_symop_operation_xyz
  'x, y, z'

loop_
  _atom_site_type_symbol
  _atom_site_label
  _atom_site_symmetry_multiplicity
  _atom_site_fract_x
  _atom_site_fract_y
  _atom_site_fract_z
  _atom_site_occupancy
  N   N1        1.0  0.7311935925896823  0.6142341795246617  0.6309162365625913  1.0000
  C   C1        1.0  0.669839480556556  0.5632278489761511  0.6201634631934181  1.0000
  C   C2        1.0  0.5935124163658917  0.4997823172025313  0.6067965717747825  1.0000
  C   C3        1.0  0.5352240887767651  0.5443622218820872  0.6818112269619472  1.0000
  C   C4        1.0  0.4603478435479494  0.4832692666902423  0.6690650894125275  1.0000
  C   C5        1.0  0.398482036669647  0.5303389878962849  0.7485080712595626  1.0000
  C   C6        1.0  0.3240475510833924  0.5508739638442526  0.6928023037792568  1.0000
  C   C7        1.0  0.26575811178913344  0.5952495354683277  0.7679243571916099  1.0000
  C   C8        1.0  0.1898891580420208  0.6164583076743163  0.710005039883661  1.0000
  N   N2        1.0  0.1289033973410543  0.6335030743587307  0.6634380407064943  1.0000
  C   C9        1.0  0.2814124491472595  0.619359998335311  0.8992614014515737  1.0000
  C   C10       1.0  0.35506456442993456  0.5992569308220632  0.9553559148167831  1.0000
  C   C11       1.0  0.4133434738614362  0.5550811733608016  0.8806921018059383  1.0000
  C   C12       1.0  0.4450445216780605  0.37684453280308894  0.5798694113399514  1.0000
  C   C13       1.0  0.5033228007753613  0.3325740109785045  0.5052555764042239  1.0000
  C   C14       1.0  0.5774149464008106  0.39379157194107917  0.5185519761529432  1.0000
  H   H1        1.0  0.548019407763939  0.6278568982308323  0.7486641748483979  1.0000
  H   H2        1.0  0.31161435485935973  0.5342855700570124  0.590737466497887  1.0000
  H   H3        1.0  0.23673623560883741  0.653639579836138  0.9581871330890535  1.0000
  H   H4        1.0  0.3669934305076086  0.6175756069043618  0.05705217202812086  1.0000
  H   H5        1.0  0.4697380114479335  0.5384114849731845  0.9267516449021378  1.0000
  H   H6        1.0  0.3882872369421534  0.326493177415303  0.5690822883097821  1.0000
  H   H7        1.0  0.4910480326714756  0.25031988438356256  0.4372077028022932  1.0000
  H   H8        1.0  0.6220859605419123  0.35854579422329835  0.46013474294406076  1.0000
  C   C15       1.0  0.9277570787312315  0.20026895671062656  0.6460411093765944  1.0000
  C   C16       1.0  0.9412346786509288  0.28420143735565495  0.529702990772934  1.0000
  C   C17       1.0  0.9615789757998296  0.22011415459941538  0.41879723250813644  1.0000
  C   C18       1.0  0.9692942717570538  0.07004127362350121  0.4210835118483449  1.0000
  C   C19       1.0  0.9542052445882062  0.9847535196809493  0.5362140868242227  1.0000
  C   C20       1.0  0.9323471854454997  0.047457463231297396  0.6483249422614779  1.0000
  C   C21       1.0  0.9917911563153934  0.004178338726271269  0.30224665435372744  1.0000
  N   N3        1.0  0.9945901890638366  0.07864196842596094  0.1844737672777455  1.0000
  C   C22       1.0  0.01761130359195052  0.9818999321389527  0.1046825347595657  1.0000
  C   C23       1.0  0.028559281867156956  0.85149051498297  0.17451740775074193  1.0000
  N   N4        1.0  0.012353994229999275  0.8656579654152937  0.2987524758715938  1.0000
  H   H9        1.0  0.8655176011193082  0.4617863426521629  0.8278497839563537  1.0000
  H   H10       1.0  0.9378956534850947  0.400885084262535  0.5252415480925674  1.0000
  H   H11       1.0  0.9724125403800463  0.2888714715502143  0.33146604210462627  1.0000
  H   H12       1.0  0.9568037791479033  0.8683166522887579  0.5382262190500897  1.0000
  H   H13       1.0  0.9333448508449113  0.7493954883647631  0.864361387907001  1.0000
  H   H14       1.0  0.02610486474583995  0.005371210099934135  0.0018408338623665504  1.0000
  H   H15       1.0  0.04740819217844572  0.7533064262124995  0.1375619403112025  1.0000
  H   H16       1.0  0.01652247037057064  0.7852912241970043  0.37500201962086854  1.0000
  C   C24       1.0  0.9300592205454197  0.6240100311999599  0.26583121707189955  1.0000
  C   C25       1.0  0.851704444068003  0.6543283787776142  0.25606174381412883  1.0000
  C   C26       1.0  0.8124634923385566  0.6715658170534533  0.1337484920628782  1.0000
  C   C27       1.0  0.8517104189195548  0.6539998772707687  0.020927532578667092  1.0000
  C   C28       1.0  0.9300450655195965  0.6237163931134415  0.028534893523454393  1.0000
  C   C29       1.0  0.9688740363623405  0.6094221266398565  0.15146383872115954  1.0000
  N   N5        1.0  0.731960129598881  0.700369731964966  0.12225755170332131  1.0000
  C   C30       1.0  0.6943513766286138  0.7883203579051585  0.20683640462701305  1.0000
  O   O1        1.0  0.7328608578324294  0.8673176924537127  0.2824220179067123  1.0000
  C   C31       1.0  0.6088634363552123  0.7947853949333223  0.19875729566463796  1.0000
  H   H17       1.0  0.9595863603557209  0.6103941608676946  0.5970890375072717  1.0000
  H   H18       1.0  0.8208595819438529  0.661689633801736  0.34370257033362184  1.0000
  H   H19       1.0  0.8208307011487319  0.6653154026493662  0.9270620317626888  1.0000
  H   H20       1.0  0.029311571503521483  0.5860777861702855  0.15818762410998288  1.0000
  H   H21       1.0  0.9594619595241809  0.6101169767028356  0.7041306492063502  1.0000
  H   H22       1.0  0.6997022054091449  0.6628428504315185  0.04258190767670068  1.0000
  H   H23       1.0  0.5827970585972386  0.6857501410075516  0.18400715860784755  1.0000
  H   H24       1.0  0.5880455531453221  0.8322973480526339  0.29018685161637214  1.0000
  H   H25       1.0  0.5908430445306414  0.8709856699035591  0.1155949395612832  1.0000
  Zn  Zn1       1.0  0.845964030170248  0.619790895096709  0.640308814432965  1.0000
  Zn  Zn2       1.0  0.01413288123421163  0.627934527787201  0.6540560630039418  1.0000
  C   C32       1.0  0.9300148739782925  0.618025266753411  0.8843519080802752  1.0000
  C   C33       1.0  0.9300838836836554  0.6297020650818683  0.41001325184346343  1.0000
  C   C34       1.0  0.9314757027347511  0.8873226450443763  0.6427180072160655  1.0000
  C   C35       1.0  0.9286229881517146  0.36040295090262386  0.6516472125801649  1.0000
  O   O2        1.0  0.9939113293210878  0.6346965366775315  0.4636190520551542  1.0000
  O   O3        1.0  0.9938236892470375  0.6192105358707669  0.8411795746813857  1.0000
  O   O4        1.0  0.9950024666041013  0.836671532390154  0.6460584238482102  1.0000
  O   O5        1.0  0.9927324946371057  0.41723554773573024  0.6587401008548397  1.0000
  O   O6        1.0  0.8673643593795876  0.8304898723707308  0.6356247718839796  1.0000
  O   O7        1.0  0.8661855914102388  0.6130306089621731  0.8307458581465754  1.0000
  O   O8        1.0  0.866273231292002  0.6285165601050302  0.4531837740583023  1.0000
  O   O9        1.0  0.8650943965471718  0.4110555608081935  0.6483049201933904  1.0000
