data_image0
_chemical_formula_structural       NC8NH4C10H6C6NH7Zn2C4O8
_chemical_formula_sum              "N3 C28 H17 Zn2 O8"
_cell_length_a       11.048855714531884
_cell_length_b       9.275150299802176
_cell_length_c       9.274774538082514
_cell_angle_alpha    84.74231674010296
_cell_angle_beta     90.34967076044033
_cell_angle_gamma    89.4838956589931

_space_group_name_H-M_alt    "P 1"
_space_group_IT_number       1

loop_
  _space_group_symop_operation_xyz
  'x, y, z'

loop_
  _atom_site_type_symbol
  _atom_site_label
  _atom_site_symmetry_multiplicity
  _atom_site_fract_x
  _atom_site_fract_y
  _atom_site_fract_z
  _atom_site_occupancy
  N   N1        1.0  0.11943312069386591  0.5930069610574566  0.3990050880693856  1.0000
  C   C1        1.0  0.06492035566206344  0.5357659955101977  0.31423441319932477  1.0000
  C   C2        1.0  0.9969052228850701  0.4643455914634198  0.20846453699645373  1.0000
  C   C3        1.0  0.8691884694743118  0.4643453998902516  0.20846463993571418  1.0000
  C   C4        1.0  0.8064163073714709  0.3937431404717733  0.1039066906220032  1.0000
  C   C5        1.0  0.8698401879948401  0.32369934608744977  0.00017571419324501989  1.0000
  C   C6        1.0  0.9962464013685817  0.3236992357008017  0.00017573751253685107  1.0000
  C   C7        1.0  0.05967384529642783  0.39374323920705456  0.10390666231029022  1.0000
  C   C8        1.0  0.8011769339464858  0.5357660706018454  0.3142343996239739  1.0000
  N   N2        1.0  0.7466670066584384  0.5930070035028556  0.39900511665636573  1.0000
  H   H1        1.0  0.7083540409172843  0.3928590419809568  0.1025967309826359  1.0000
  H   H2        1.0  0.820940977686515  0.26937173809026865  0.9197201705188759  1.0000
  H   H3        1.0  0.04514301807932  0.26937184758251703  0.9197201692879206  1.0000
  H   H4        1.0  0.15773605448155428  0.3928589905069538  0.1025970067430917  1.0000
  C   C9        1.0  0.4362618294688286  0.16928037570839582  0.40142139699271695  1.0000
  C   C10       1.0  0.49934316180315774  0.252283990968331  0.29222621687188655  1.0000
  C   C11       1.0  0.5520160778447856  0.187134340485132  0.17748187968523843  1.0000
  C   C12       1.0  0.5421405207640556  0.038028063056099404  0.170454763307931  1.0000
  C   C13       1.0  0.4816981450657323  0.9535862598533822  0.279001268626786  1.0000
  C   C14       1.0  0.4298500248449196  0.01672231220717246  0.3966013518629086  1.0000
  C   C15       1.0  0.615099151616754  0.27390184918214366  0.0657900628591157  1.0000
  C   C16       1.0  0.66791565252727  0.34657168224155965  0.9722807324816767  1.0000
  C   C17       1.0  0.7297613228020847  0.43167296293891355  0.862785384752785  1.0000
  C   C18       1.0  0.7825676394651416  0.5043371576454732  0.7692939794567032  1.0000
  H   H5        1.0  0.3800607098567153  0.42960689198323404  0.6306178976701  1.0000
  H   H6        1.0  0.5051698790448408  0.36871292507390696  0.2944559433188123  1.0000
  H   H7        1.0  0.5822508972002771  0.986656633242923  0.08166675480414187  1.0000
  H   H8        1.0  0.477964421658605  0.8376405011486179  0.2727699099971577  1.0000
  H   H9        1.0  0.35298566930414493  0.8832631281595297  0.7395287717939192  1.0000
  H   H10       1.0  0.8289359909100736  0.5681424873115228  0.6872008037087527  1.0000
  C   C19       1.0  0.4308559617598931  0.5966918717982956  0.97517406644875  1.0000
  C   C20       1.0  0.5159712667878192  0.6818420572488606  0.041426262402860514  1.0000
  C   C21       1.0  0.6066062750593539  0.7551062101294528  0.9602446371656944  1.0000
  C   C22       1.0  0.6128620164987794  0.7435524569323475  0.811332937137081  1.0000
  C   C23       1.0  0.5281109625272644  0.6615809071997012  0.7433600992883621  1.0000
  C   C24       1.0  0.43525591958147786  0.5893108047758326  0.8228486746918741  1.0000
  N   N3        1.0  0.6931125322307817  0.8400556522299287  0.029503220069706286  1.0000
  H   H11       1.0  0.252079797155929  0.31462390406139673  0.10269871502165695  1.0000
  H   H12       1.0  0.5137408895471345  0.6886854920788648  0.15740746785247794  1.0000
  H   H13       1.0  0.6828452278421597  0.7993015907479882  0.7474850792738064  1.0000
  H   H14       1.0  0.5335382952566313  0.6575672208450387  0.6272098787506584  1.0000
  H   H15       1.0  0.31109359295454914  0.40372081395254195  0.5578224840946202  1.0000
  H   H16       1.0  0.6895294890572825  0.8491042309381822  0.1408216766853665  1.0000
  H   H17       1.0  0.7613574257489599  0.8946700902108764  0.969950500710147  1.0000
  Zn  Zn1       1.0  0.30043935808751665  0.5930030297595643  0.39901345013129363  1.0000
  Zn  Zn2       1.0  0.5656609472474526  0.5929989970666705  0.39900863391068886  1.0000
  C   C25       1.0  0.4344650318642483  0.5849577105417247  0.6626527195762377  1.0000
  C   C26       1.0  0.4316381566427058  0.6010461356236017  0.13536949571874346  1.0000
  C   C27       1.0  0.43102593942022005  0.8565878493926085  0.39176097151815603  1.0000
  C   C28       1.0  0.4350771721010267  0.3294142625029084  0.4062613305876728  1.0000
  O   O1        1.0  0.5325509268913614  0.6024996409341536  0.18913075325904272  1.0000
  O   O2        1.0  0.5348493170574657  0.5835000595906643  0.6088873973505904  1.0000
  O   O3        1.0  0.5320708573925426  0.8028448188976851  0.3901403856807102  1.0000
  O   O4        1.0  0.5353292954143047  0.38315489289286675  0.4078776566537641  1.0000
  O   O5        1.0  0.3307709194135011  0.8028471339363812  0.3901444273822612  1.0000
  O   O6        1.0  0.3335493655569688  0.5835041089021831  0.6088913522353365  1.0000
  O   O7        1.0  0.33125096684462263  0.6025036550729526  0.1891329731550032  1.0000
  O   O8        1.0  0.334029336002383  0.38315889576894446  0.40787998481892673  1.0000
