data_image0
_chemical_formula_structural       NC5NC4H6C9H8C7NH4Zn2C4O8
_chemical_formula_sum              "N3 C29 H18 Zn2 O8"
_cell_length_a       13.854160002989762
_cell_length_b       9.275152443626249
_cell_length_c       9.275157849593905
_cell_angle_alpha    85.91609934181939
_cell_angle_beta     89.74088443434586
_cell_angle_gamma    90.57354205828562

_space_group_name_H-M_alt    "P 1"
_space_group_IT_number       1

loop_
  _space_group_symop_operation_xyz
  'x, y, z'

loop_
  _atom_site_type_symbol
  _atom_site_label
  _atom_site_symmetry_multiplicity
  _atom_site_fract_x
  _atom_site_fract_y
  _atom_site_fract_z
  _atom_site_occupancy
  N   N1        1.0  0.9242154078195663  0.563424540094467  0.40498223200419203  1.0000
  C   C1        1.0  0.8522268923298849  0.5880739521961946  0.34586869370886997  1.0000
  C   C2        1.0  0.7626721721171863  0.6187384830698461  0.2723291896009965  1.0000
  C   C3        1.0  0.6746905654525633  0.5899387750780716  0.3441300459254517  1.0000
  C   C4        1.0  0.5875297599107786  0.6187384971796088  0.27232916638678284  1.0000
  C   C5        1.0  0.49711874970505904  0.5880738057233725  0.34586878580755953  1.0000
  N   N2        1.0  0.424441836795703  0.5634244765812789  0.40498223213621354  1.0000
  C   C6        1.0  0.5883872102000602  0.6769446471113629  0.12874433085767323  1.0000
  C   C7        1.0  0.6763508256396981  0.7078940056659087  0.05683266562151635  1.0000
  C   C8        1.0  0.6772112792791773  0.7662307154740498  0.9017618281560607  1.0000
  C   C9        1.0  0.7634642994942481  0.6769446449163623  0.12874424061408152  1.0000
  H   H1        1.0  0.6740514726010831  0.5447770262013328  0.455262455162184  1.0000
  H   H2        1.0  0.5208253499263638  0.698200515993995  0.07303826722154905  1.0000
  H   H3        1.0  0.7425936114821372  0.8341788367558938  0.8777484040849407  1.0000
  H   H4        1.0  0.6128851336432728  0.8341788392599543  0.8777484691416331  1.0000
  H   H5        1.0  0.6768155291697155  0.6749953262611241  0.8305432176551286  1.0000
  H   H6        1.0  0.8316483100165782  0.6982006276822544  0.07303818143632014  1.0000
  C   C10       1.0  0.17148151011865065  0.139806387639835  0.4064535086102412  1.0000
  C   C11       1.0  0.1370242549514229  0.22136612451191096  0.2840244129261349  1.0000
  C   C12       1.0  0.11154601348470083  0.15472302797235726  0.15930313983265965  1.0000
  C   C13       1.0  0.12012648466457908  0.0053352068705510005  0.1545415180331533  1.0000
  C   C14       1.0  0.15269931570218676  0.9220773537154564  0.2759359291328911  1.0000
  C   C15       1.0  0.177184873540984  0.9870316729019403  0.4035234555191447  1.0000
  C   C16       1.0  0.09435817155095912  0.9369412093956485  0.025384795871542083  1.0000
  C   C17       1.0  0.07278326018226065  0.879643791096202  0.9172362913994152  1.0000
  C   C18       1.0  0.046606376974316126  0.8101115073664247  0.7860170483318281  1.0000
  H   H7        1.0  0.3093240894408942  0.22423097460604047  0.6942593471697127  1.0000
  H   H8        1.0  0.13194107528644783  0.33787924339583775  0.28357110879796465  1.0000
  H   H9        1.0  0.08601566887678855  0.2200634804632211  0.06596975803140825  1.0000
  H   H10       1.0  0.15677515499672282  0.8057285869219051  0.27191577476696005  1.0000
  H   H11       1.0  0.26688681918178725  0.6936290080723818  0.6003729859302923  1.0000
  H   H12       1.0  0.06421189824017536  0.6935193991144054  0.799480088040589  1.0000
  H   H13       1.0  0.9681037828511477  0.8225039880419949  0.7662883995968794  1.0000
  H   H14       1.0  0.08764492663390101  0.8615612263787695  0.6927362931945504  1.0000
  C   C19       1.0  0.17558650752910004  0.5593414283346834  0.9818048319215494  1.0000
  C   C20       1.0  0.25909783869988123  0.6063686391663088  0.05133823276265237  1.0000
  C   C21       1.0  0.33773417952006085  0.6647391900508834  0.9712582064425366  1.0000
  C   C22       1.0  0.3337775796234268  0.6770105012625056  0.8205568203265932  1.0000
  C   C23       1.0  0.25224284300158084  0.6288151512718876  0.7496859176287485  1.0000
  C   C24       1.0  0.1730798947496052  0.5674965606883344  0.8281721988454916  1.0000
  C   C25       1.0  0.4222050689327843  0.7137753530801538  0.04409225179595278  1.0000
  N   N3        1.0  0.49009803053849277  0.7531872059547919  0.10263855451543491  1.0000
  H   H15       1.0  0.940408484083516  0.5107027728015354  0.0898106340401239  1.0000
  H   H16       1.0  0.39418948209375926  0.7226407841414035  0.7575762219197548  1.0000
  H   H17       1.0  0.25208036716437604  0.6363993289107266  0.6325952489769615  1.0000
  H   H18       1.0  0.01570659769471394  0.5286920118468137  0.5508998857320209  1.0000
  Zn  Zn1       1.0  0.06856990461723897  0.5634207398768567  0.40499057629702656  1.0000
  Zn  Zn2       1.0  0.2800872266545837  0.5634165861737782  0.4049857638715176  1.0000
  C   C26       1.0  0.17351283546161247  0.5602082610789845  0.6682104932550972  1.0000
  C   C27       1.0  0.17514661740679038  0.5666308864402045  0.14176598200850532  1.0000
  C   C28       1.0  0.17611884937951805  0.826832698960988  0.39833472985237056  1.0000
  C   C29       1.0  0.17254051941798093  0.3000047161420801  0.4116418282369916  1.0000
  O   O1        1.0  0.25526866527866776  0.5690694254515911  0.19544860071536885  1.0000
  O   O2        1.0  0.2539275347410459  0.5577654772466606  0.6145238109562747  1.0000
  O   O3        1.0  0.2560308374252087  0.7730680972220908  0.39659721743000453  1.0000
  O   O4        1.0  0.25316529080744865  0.3537668147558737  0.41337508615639207  1.0000
  O   O5        1.0  0.09549176828392536  0.7730705112976761  0.39660125400620894  1.0000
  O   O6        1.0  0.09338847749021806  0.5577696237412819  0.6145277647007762  1.0000
  O   O7        1.0  0.09472961288497234  0.5690735049821987  0.19545082203506126  1.0000
  O   O8        1.0  0.09262623802036146  0.35377088500968346  0.41337741555538887  1.0000
