data_image0
_chemical_formula_structural       NC8NH4C14H9C7NC4H7Zn2C4O8
_chemical_formula_sum              "N3 C37 H20 Zn2 O8"
_cell_length_a       14.927258825633057
_cell_length_b       17.567807274406366
_cell_length_c       12.588827829612491
_cell_angle_alpha    92.41607920085985
_cell_angle_beta     91.15413518023296
_cell_angle_gamma    89.97534422861993

_space_group_name_H-M_alt    "P 1"
_space_group_IT_number       1

loop_
  _space_group_symop_operation_xyz
  'x, y, z'

loop_
  _atom_site_type_symbol
  _atom_site_label
  _atom_site_symmetry_multiplicity
  _atom_site_fract_x
  _atom_site_fract_y
  _atom_site_fract_z
  _atom_site_occupancy
  N   N1        1.0  0.8233264726319892  0.7329133570038724  0.8302106594343681  1.0000
  C   C1        1.0  0.745800048411838  0.7329133436474808  0.8302106665360665  1.0000
  C   C2        1.0  0.649367407352768  0.7329133469713546  0.8302107070607214  1.0000
  C   C3        1.0  0.6012200884700853  0.6806213523826738  0.7641892026323065  1.0000
  C   C4        1.0  0.5075087765833688  0.6806213031575479  0.7641891816917035  1.0000
  C   C5        1.0  0.4615514088351131  0.7329133694332702  0.8302106424503917  1.0000
  C   C6        1.0  0.5096987263715868  0.7852053626462392  0.8962320673693923  1.0000
  C   C7        1.0  0.6034101052499139  0.7852054118701735  0.8962320883143542  1.0000
  C   C8        1.0  0.36511876643284835  0.7329133144250922  0.8302106020327709  1.0000
  N   N2        1.0  0.2875923422096827  0.7329133580250408  0.8302106105673308  1.0000
  H   H1        1.0  0.6360642453650815  0.6399351288773008  0.7128207807822013  1.0000
  H   H2        1.0  0.4709605907006162  0.6399351225154827  0.7128208523173181  1.0000
  H   H3        1.0  0.4748545694765903  0.8258915861516125  0.9476004892194977  1.0000
  H   H4        1.0  0.6399582254872649  0.825891593889142  0.9476004971937941  1.0000
  C   C9        1.0  0.055569415623105696  0.5093242741770148  0.8302247106938192  1.0000
  C   C10       1.0  0.9860907605438566  0.4671411060887726  0.778756163176368  1.0000
  C   C11       1.0  0.9862354234182088  0.38754095007522743  0.7787133436385418  1.0000
  C   C12       1.0  0.055718024605396765  0.3491344753741114  0.8300853203665877  1.0000
  C   C13       1.0  0.12516518167615254  0.3906165632131476  0.8815096045786606  1.0000
  C   C14       1.0  0.1251868927102744  0.4702170032305257  0.8816216646387561  1.0000
  C   C15       1.0  0.05570254873018497  0.2672198190279866  0.8301177020524855  1.0000
  C   C16       1.0  0.05564607696011503  0.19859717242320943  0.8301583859597635  1.0000
  C   C17       1.0  0.055539579265281976  0.11668319896802022  0.8302038127157088  1.0000
  C   C18       1.0  0.13661290286781513  0.07667303694466472  0.8315735498295445  1.0000
  C   C19       1.0  0.13659187996149247  0.9970721395885326  0.8315535100307441  1.0000
  C   C20       1.0  0.05535816801047332  0.9564973315841655  0.8302057262425386  1.0000
  C   C21       1.0  0.9741612880634749  0.9972107954392812  0.828870284350613  1.0000
  C   C22       1.0  0.9743603945264575  0.0768069702359686  0.8288676461903016  1.0000
  H   H5        1.0  0.9853036528836486  0.6893727566523896  0.7782179051913114  1.0000
  H   H6        1.0  0.9316035520883634  0.49555774722655993  0.7385153473101455  1.0000
  H   H7        1.0  0.9321733485344809  0.35596785309310947  0.7386310001145493  1.0000
  H   H8        1.0  0.17925313602531576  0.3614473356664182  0.9215520868915644  1.0000
  H   H9        1.0  0.17964158664366958  0.5010788628335557  0.9219319564451901  1.0000
  H   H10       1.0  0.19982953408275628  0.10699274729384411  0.8326209164155065  1.0000
  H   H11       1.0  0.20015429175530564  0.9673940752827094  0.8325711838794053  1.0000
  H   H12       1.0  0.910537454382322  0.9676123304645274  0.827857486863967  1.0000
  H   H13       1.0  0.9112397986520889  0.10722687200735324  0.8278515767711289  1.0000
  C   C23       1.0  0.05018669889939754  0.7061921997898493  0.5187948326139082  1.0000
  C   C24       1.0  0.08123710169439313  0.6308308667016977  0.5069365266547117  1.0000
  C   C25       1.0  0.116628839145279  0.6039095584465233  0.4105806980257898  1.0000
  C   C26       1.0  0.12105037594637215  0.6515991116706566  0.3249119174628209  1.0000
  C   C27       1.0  0.08901142951255148  0.7266529768386409  0.33460524140315046  1.0000
  C   C28       1.0  0.05485163301705498  0.7539592585654517  0.4320812563291783  1.0000
  C   C29       1.0  0.09569717289500002  0.7782406335958014  0.24530317763716192  1.0000
  N   N3        1.0  0.1403254660850052  0.8452740212064365  0.2638643992507761  1.0000
  C   C30       1.0  0.15444358678699752  0.8949939369999295  0.18625504563323572  1.0000
  C   C31       1.0  0.12366198961461516  0.8779406578739085  0.08289575489048695  1.0000
  C   C32       1.0  0.07688985257824954  0.8102885260758359  0.0607154433199657  1.0000
  C   C33       1.0  0.06074087728451306  0.7596294057538293  0.1416356362908  1.0000
  H   H14       1.0  0.07859449688513931  0.5927229608602723  0.5721915486569298  1.0000
  H   H15       1.0  0.14102559325291808  0.5459705451871482  0.40242737896662734  1.0000
  H   H16       1.0  0.14970844936865313  0.6301481743657076  0.2511689550966427  1.0000
  H   H17       1.0  0.03140291872494783  0.8122840588963004  0.439769481386549  1.0000
  H   H18       1.0  0.19029522588190684  0.9475412015983559  0.20477679049753306  1.0000
  H   H19       1.0  0.13516004313301955  0.9172056241859311  0.02059429624079967  1.0000
  H   H20       1.0  0.9603902705306626  0.6152530704554612  0.9927690740327884  1.0000
  Zn  Zn1       1.0  0.9573036873609103  0.7329118389912042  0.8302167757521728  1.0000
  Zn  Zn2       1.0  0.15361529109090166  0.7329093725277843  0.8302132027607394  1.0000
  C   C34       1.0  0.05874533490142886  0.7464954099009009  0.023905513812096938  1.0000
  C   C35       1.0  0.0521757885768923  0.7193267712134355  0.636524568708356  1.0000
  C   C36       1.0  0.05532186134119966  0.8716095449567217  0.8259833671466732  1.0000
  C   C37       1.0  0.05559919653994916  0.5942117262330774  0.8344467719530507  1.0000
  O   O1        1.0  0.1273425773415766  0.7237305956407433  0.6760343878252498  1.0000
  O   O2        1.0  0.13257450612488442  0.7420891129003896  0.9843926776244023  1.0000
  O   O3        1.0  0.12980902232951141  0.843120453862112  0.8245691438447675  1.0000
  O   O4        1.0  0.13010799279912977  0.6226992533045015  0.8358578420911117  1.0000
  O   O5        1.0  0.9808109186610716  0.843121958215679  0.8245721364174416  1.0000
  O   O6        1.0  0.9835764010620064  0.7420915271796859  0.9843956136134464  1.0000
  O   O7        1.0  0.9783444507453809  0.7237328739959745  0.6760360487979531  1.0000
  O   O8        1.0  0.9811098675491431  0.6227015330354443  0.8358595825732289  1.0000
