data_image0
_chemical_formula_structural       NC8NH4C10H6C6NH7Zn2C4O8
_chemical_formula_sum              "N3 C28 H17 Zn2 O8"
_cell_length_a       13.859017981522156
_cell_length_b       9.275150299802176
_cell_length_c       9.274774538082516
_cell_angle_alpha    84.74231674010296
_cell_angle_beta     90.34966334456435
_cell_angle_gamma    89.4839203727508

_space_group_name_H-M_alt    "P 1"
_space_group_IT_number       1

loop_
  _space_group_symop_operation_xyz
  'x, y, z'

loop_
  _atom_site_type_symbol
  _atom_site_label
  _atom_site_symmetry_multiplicity
  _atom_site_fract_x
  _atom_site_fract_y
  _atom_site_fract_z
  _atom_site_occupancy
  N   N1        1.0  0.8924481508317976  0.5930075571085953  0.39900486080549724  1.0000
  C   C1        1.0  0.8198821831925401  0.5865075504821173  0.33765262777034355  1.0000
  C   C2        1.0  0.7296144194573454  0.5784227657669356  0.26133843095344345  1.0000
  C   C3        1.0  0.7289192165448162  0.5626566017263523  0.11252200580231952  1.0000
  C   C4        1.0  0.6412312253107136  0.5548060856647405  0.03841110814086645  1.0000
  C   C5        1.0  0.5540539291354116  0.5626583272454374  0.11252174740349652  1.0000
  C   C6        1.0  0.554384175912917  0.5784237412030077  0.26133824140077033  1.0000
  C   C7        1.0  0.6422556937210819  0.5863049742720103  0.33573530387856776  1.0000
  C   C8        1.0  0.4646423599569663  0.5865084568593977  0.33765238190497177  1.0000
  N   N2        1.0  0.3924992328802117  0.5930078715903518  0.39900476530149664  1.0000
  H   H1        1.0  0.7960129393147409  0.5564524606827819  0.05396431415230584  1.0000
  H   H2        1.0  0.6408351171733324  0.5426276613819125  0.923456821593002  1.0000
  H   H3        1.0  0.4865566490901295  0.5564555638835438  0.05396387606718301  1.0000
  H   H4        1.0  0.642652600611833  0.598507932639651  0.4509233013896947  1.0000
  C   C9        1.0  0.14503420537106293  0.16928114045751966  0.40142110540723286  1.0000
  C   C10       1.0  0.1953246759253767  0.2522847893056157  0.29222591247982277  1.0000
  C   C11       1.0  0.237317221662394  0.18713516686853354  0.17748156459968034  1.0000
  C   C12       1.0  0.2294441093770717  0.03802888418118155  0.170454450227278  1.0000
  C   C13       1.0  0.18125750007752384  0.9535870487954365  0.2790009678169597  1.0000
  C   C14       1.0  0.13992250814295581  0.016723073542279854  0.3966010615791293  1.0000
  C   C15       1.0  0.28760908054690115  0.27390270915463355  0.06578973496662521  1.0000
  C   C16       1.0  0.32971609676755653  0.34657257033661865  0.9722803938665421  1.0000
  C   C17       1.0  0.3790214577162305  0.43167388396419587  0.8627850335819313  1.0000
  C   C18       1.0  0.42112035472668596  0.5043381067879016  0.769293617565272  1.0000
  H   H5        1.0  0.10022886207246698  0.42960762680762155  0.630617617494395  1.0000
  H   H6        1.0  0.19996992264144375  0.3687137265136742  0.29445563774382677  1.0000
  H   H7        1.0  0.2614213937882077  0.9866574757250964  0.08166643358040382  1.0000
  H   H8        1.0  0.17828085548053085  0.8376412881026221  0.2727696099453405  1.0000
  H   H9        1.0  0.07864376741325252  0.8832638485675943  0.7395284971149065  1.0000
  H   H10       1.0  0.45808669844045613  0.5681434611431522  0.6872004324037612  1.0000
  C   C19       1.0  0.14072447346185313  0.5966926336690221  0.9751737759607491  1.0000
  C   C20       1.0  0.2085811369600475  0.6818428644399135  0.04142595463500954  1.0000
  C   C21       1.0  0.2808382857233598  0.7551070655798418  0.9602443109974016  1.0000
  C   C22       1.0  0.2858255643525973  0.7435533157136565  0.8113326096987673  1.0000
  C   C23       1.0  0.21825929353237888  0.6615817208546322  0.7433597890559482  1.0000
  C   C24       1.0  0.1442322615994576  0.589311568989352  0.8228483833106068  1.0000
  N   N3        1.0  0.34980386108543904  0.8400565537412684  0.029502876339177142  1.0000
  H   H11       1.0  0.9981983550504966  0.31462457074132133  0.10269846082824555  1.0000
  H   H12       1.0  0.20680300836325152  0.6886862980823352  0.1574071605374323  1.0000
  H   H13       1.0  0.34161843522455976  0.7993024867924198  0.7474847376277147  1.0000
  H   H14       1.0  0.22258613804745794  0.6575680373897967  0.6272095674164029  1.0000
  H   H15       1.0  0.04524605442658691  0.403721512054835  0.5578222179204091  1.0000
  H   H16       1.0  0.3469473436254611  0.8491051305417017  0.14082133368225613  1.0000
  H   H17       1.0  0.4042108889802899  0.8946710280597566  0.9699501431247489  1.0000
  Zn  Zn1       1.0  0.0367521551218053  0.5930037221889246  0.399013186120072  1.0000
  Zn  Zn2       1.0  0.24819535117423439  0.5929998307153923  0.3990083160549913  1.0000
  C   C25       1.0  0.14360174042967166  0.5849584743341294  0.6626524283555337  1.0000
  C   C26       1.0  0.14134806442396775  0.6010468979108146  0.13536920507194283  1.0000
  C   C27       1.0  0.14085998512917583  0.8565886113538407  0.3917606809956464  1.0000
  C   C28       1.0  0.14408975834897667  0.32941502662125194  0.4062610392426942  1.0000
  O   O1        1.0  0.2217989761746442  0.6025004569531797  0.18913044212524022  1.0000
  O   O2        1.0  0.22363132686689324  0.5835008768334864  0.6088870857501756  1.0000
  O   O3        1.0  0.2214162493028269  0.8028456346610944  0.39014007464436984  1.0000
  O   O4        1.0  0.22401398107738757  0.3831557103912573  0.40787734495590566  1.0000
  O   O5        1.0  0.06093345306342558  0.8028478425160248  0.390144157213219  1.0000
  O   O6        1.0  0.06314851984775194  0.5835048189612323  0.6088910815022228  1.0000
  O   O7        1.0  0.06131616234216343  0.6025043639082008  0.18913270288850326  1.0000
  O   O8        1.0  0.06353116775100331  0.3831596060835576  0.407879713988371  1.0000
