data_image0
_chemical_formula_structural       NC10NC2NH7C10BrC2H9C10IC2H9Zn2C4O8
_chemical_formula_sum              "N3 C40 H25 Br1 I1 Zn2 O8"
_cell_length_a       18.145345255705053
_cell_length_b       10.299768994317796
_cell_length_c       10.299773630820606
_cell_angle_alpha    85.54444393526653
_cell_angle_beta     90.54661963795658
_cell_angle_gamma    91.04747312481669

_space_group_name_H-M_alt    "P 1"
_space_group_IT_number       1

loop_
  _space_group_symop_operation_xyz
  'x, y, z'

loop_
  _atom_site_type_symbol
  _atom_site_label
  _atom_site_symmetry_multiplicity
  _atom_site_fract_x
  _atom_site_fract_y
  _atom_site_fract_z
  _atom_site_occupancy
  N   N1        1.0  0.6942641035138021  0.44294937201174034  0.5774494542472282  1.0000
  C   C1        1.0  0.6362730205544714  0.39989939644247197  0.5575117537846359  1.0000
  C   C2        1.0  0.5642130886046607  0.3464304904349751  0.5327483189235074  1.0000
  C   C3        1.0  0.5501929520587826  0.2294454010969207  0.4800247412860432  1.0000
  C   C4        1.0  0.4744316965102509  0.21565825732426716  0.4741374269302736  1.0000
  C   C5        1.0  0.4456067602723799  0.3254673664168157  0.5235443210139962  1.0000
  C   C6        1.0  0.36610415783782463  0.3532068182344401  0.536335883292494  1.0000
  C   C7        1.0  0.31296588937359426  0.25170675943049764  0.5393167463173943  1.0000
  C   C8        1.0  0.23812920140040525  0.2780271940200916  0.5514300285345435  1.0000
  C   C9        1.0  0.21529249304883008  0.4059652657855368  0.5605412441586985  1.0000
  C   C10       1.0  0.1382247843698611  0.4329438633582506  0.5729376200710774  1.0000
  N   N2        1.0  0.07626868293211592  0.45463251764212936  0.5829033051571804  1.0000
  C   C11       1.0  0.2675983442899809  0.5076113005840939  0.5574682313695383  1.0000
  C   C12       1.0  0.34248171467352806  0.4815574199724655  0.5454679200240873  1.0000
  N   N3        1.0  0.5010060587441838  0.40486572846044266  0.5591408488039427  1.0000
  H   H1        1.0  0.5902815591109827  0.16186809675774466  0.4492578312930955  1.0000
  H   H2        1.0  0.44426218661229694  0.1350007419246928  0.4364700170735758  1.0000
  H   H3        1.0  0.32905766500457245  0.1516602398975018  0.5339360836286366  1.0000
  H   H4        1.0  0.19811068057735806  0.19851163214161716  0.5539656739430892  1.0000
  H   H5        1.0  0.250501966106255  0.6071281454498112  0.5639715522429184  1.0000
  H   H6        1.0  0.38148174989801514  0.5624107333220931  0.5415006957510797  1.0000
  H   H7        1.0  0.49659176175105446  0.49334569202429934  0.6012945964107876  1.0000
  C   C13       1.0  0.8852004828686273  0.06742366756946505  0.5801714621288746  1.0000
  C   C14       1.0  0.8912142154109417  0.07720536242817898  0.44393327739369415  1.0000
  C   C15       1.0  0.8943322054976948  0.9650244749897808  0.3749110074919302  1.0000
  C   C16       1.0  0.891354771085322  0.8419216325584891  0.4439548809272667  1.0000
  C   C17       1.0  0.88533936006292  0.8301483861491172  0.5801926777935695  1.0000
  C   C18       1.0  0.8822963931163393  0.9434576690396547  0.6475381566427669  1.0000
  C   C19       1.0  0.9006947139244637  0.976425689363508  0.2307829382634912  1.0000
  C   C20       1.0  0.9481165339668012  0.895015177998703  0.16811026025394482  1.0000
  C   C21       1.0  0.9540344070126088  0.9059487223256232  0.032442944797600695  1.0000
  C   C22       1.0  0.9127442491063072  0.9980178870845825  0.9578037455934121  1.0000
  Br  Br1       1.0  0.9209235458279844  0.012674645948352653  0.7724972089948642  1.0000
  C   C23       1.0  0.8654595262971853  0.07934516732504515  0.018970931485797548  1.0000
  C   C24       1.0  0.8594014969350372  0.06881838904658943  0.15461697057666668  1.0000
  H   H8        1.0  0.8828743689313097  0.39114923890250974  0.6320803051452717  1.0000
  H   H9        1.0  0.8945037600674852  0.17232864872116305  0.39132944684447707  1.0000
  H   H10       1.0  0.8927226628984214  0.7551440922874454  0.3910587163734307  1.0000
  H   H11       1.0  0.8776563727150577  0.9351432577432826  0.752639449357983  1.0000
  H   H12       1.0  0.8830765990477611  0.498209178525129  0.6321108057259053  1.0000
  H   H13       1.0  0.9813098127020801  0.8241171798335387  0.2240875796130648  1.0000
  H   H14       1.0  0.9908713149450199  0.8430216238231434  0.9854659467114844  1.0000
  H   H15       1.0  0.8332333175545068  0.15053431203783751  0.9614895134888872  1.0000
  H   H16       1.0  0.8217419735249639  0.13171327890272932  0.19981776442576285  1.0000
  C   C25       1.0  0.8852505001445394  0.4489035668677994  0.19881166544791196  1.0000
  C   C26       1.0  0.9595734913157881  0.4893681581935326  0.19592135955620818  1.0000
  C   C27       1.0  0.9972531079170526  0.5097523417966907  0.0773278602832539  1.0000
  C   C28       1.0  0.9596126942376281  0.4891305693060448  0.9606540708979924  1.0000
  C   C29       1.0  0.8852893335810896  0.44866851927233786  0.9615524173594984  1.0000
  C   C30       1.0  0.8485245071966113  0.4287809301038472  0.08111856212226498  1.0000
  C   C31       1.0  0.07587979738561668  0.5525591005308312  0.0753237545973038  1.0000
  C   C32       1.0  0.12616528209904487  0.49808348845463546  0.9925925519776593  1.0000
  C   C33       1.0  0.20014896174303654  0.5384994085879269  0.9909073039022716  1.0000
  C   C34       1.0  0.22479467133866884  0.6336345965073962  0.07152630005706961  1.0000
  I   I1        1.0  0.33642852551440505  0.6944132215564979  0.06867909946469042  1.0000
  C   C35       1.0  0.17536251813242898  0.6884383457872268  0.15403453169387493  1.0000
  C   C36       1.0  0.10133749497553213  0.6482723219803888  0.1561235504430634  1.0000
  H   H17       1.0  0.8569205674553076  0.4335413392256342  0.527361757311118  1.0000
  H   H18       1.0  0.9886197970010893  0.5034083457353635  0.28624951141046306  1.0000
  H   H19       1.0  0.9881211540712589  0.5064245947596175  0.8688591218096656  1.0000
  H   H20       1.0  0.7911875469061417  0.3975653764282457  0.08257989227378572  1.0000
  H   H21       1.0  0.8569778937149255  0.4331952968549948  0.6344456417455908  1.0000
  H   H22       1.0  0.10848446687179836  0.42308320163380086  0.9305000520502086  1.0000
  H   H23       1.0  0.2383188571344559  0.4955813756566272  0.9271426730079441  1.0000
  H   H24       1.0  0.19421106170411306  0.7623996898792988  0.21634503131906135  1.0000
  H   H25       1.0  0.06382726308904951  0.6932244782514794  0.2196235756089642  1.0000
  Zn  Zn1       1.0  0.8045023769684836  0.44631738218654743  0.5790308239591719  1.0000
  Zn  Zn2       1.0  0.9660304075883891  0.45125382790905083  0.5813325955434169  1.0000
  C   C37       1.0  0.8852794127122885  0.4435392115471545  0.8173779434984527  1.0000
  C   C38       1.0  0.8852551360305053  0.45403369102784646  0.3429856286518862  1.0000
  C   C39       1.0  0.8853090512398845  0.6859786549103302  0.5750134033533885  1.0000
  C   C40       1.0  0.8852254421041099  0.2115926856626935  0.5853502372070603  1.0000
  O   O1        1.0  0.94655573665442  0.45762309726725353  0.3922452379115684  1.0000
  O   O2        1.0  0.9465748496272439  0.4436954737862924  0.7698649517371364  1.0000
  O   O3        1.0  0.9465979568414173  0.6394683646973613  0.5741538590626794  1.0000
  O   O4        1.0  0.9465325743184043  0.26185021399190617  0.5879562324257999  1.0000
  O   O5        1.0  0.824000155116879  0.6357209944205415  0.5724071862844766  1.0000
  O   O6        1.0  0.823977048179915  0.4399496638282987  0.768118209756511  1.0000
  O   O7        1.0  0.8239579351683616  0.45387724253621786  0.3904969345236444  1.0000
  O   O8        1.0  0.8239347728325986  0.2581043499419986  0.5862080264057894  1.0000
