data_image0
_chemical_formula_structural       NC6NCNCH5C9H6C6BrH4Zn2C4O8
_chemical_formula_sum              "N3 C27 H15 Br1 Zn2 O8"
_cell_length_a       14.933214217465613
_cell_length_b       9.275152443626249
_cell_length_c       9.27656775626242
_cell_angle_alpha    85.92079402595407
_cell_angle_beta     90.1519400802072
_cell_angle_gamma    90.60755784757023

_space_group_name_H-M_alt    "P 1"
_space_group_IT_number       1

loop_
  _space_group_symop_operation_xyz
  'x, y, z'

loop_
  _atom_site_type_symbol
  _atom_site_label
  _atom_site_symmetry_multiplicity
  _atom_site_fract_x
  _atom_site_fract_y
  _atom_site_fract_z
  _atom_site_occupancy
  N   N1        1.0  0.8497352885351509  0.5640430802368326  0.4043703520577149  1.0000
  C   C1        1.0  0.7722491590297471  0.5650304142740261  0.40337683599286533  1.0000
  C   C2        1.0  0.6758558677139833  0.5662613663293559  0.4021380447020546  1.0000
  C   C3        1.0  0.6276346493625098  0.4713967402952117  0.49761611486485924  1.0000
  C   C4        1.0  0.5341057118680776  0.4724694550671003  0.49653649316391385  1.0000
  C   C5        1.0  0.4878954114173427  0.5683524432569982  0.4000335125722174  1.0000
  C   C6        1.0  0.39131114581596055  0.5662635034851797  0.40213596731918044  1.0000
  N   N2        1.0  0.3138182138195375  0.5645208625534597  0.40388950603875773  1.0000
  C   C7        1.0  0.5362204067845638  0.6644149520909477  0.30334994270539273  1.0000
  N   N3        1.0  0.49132561131991387  0.7640742132204819  0.2030465068261105  1.0000
  C   C8        1.0  0.6302256991272428  0.6623851695895531  0.30539296821958195  1.0000
  H   H1        1.0  0.6623193658930089  0.3966023621159127  0.5728941091576094  1.0000
  H   H2        1.0  0.49771205420982595  0.3983042575969145  0.571181109187971  1.0000
  H   H3        1.0  0.5279756298681304  0.8344631580448207  0.13220234926717334  1.0000
  H   H4        1.0  0.4216063172619363  0.7693769364203638  0.1977095655245391  1.0000
  H   H5        1.0  0.6677406713506443  0.7358041415551781  0.23149923738391198  1.0000
  C   C9        1.0  0.07914245124778074  0.1406613600300104  0.40560368688889814  1.0000
  C   C10       1.0  0.046583731008388765  0.22216789871829754  0.28322893922360914  1.0000
  C   C11       1.0  0.02234418414554385  0.15547980096644798  0.15855378039129953  1.0000
  C   C12       1.0  0.030281687673751733  0.006099386999333986  0.1537847360672011  1.0000
  C   C13       1.0  0.061087145575833716  0.9228927605954669  0.2751267899517831  1.0000
  C   C14       1.0  0.08441957423264929  0.9878916076775623  0.40266865937683827  1.0000
  C   C15       1.0  0.005751611466901618  0.9376593763497774  0.02467517597987224  1.0000
  C   C16       1.0  0.9852133840856062  0.8803234311515122  0.9165661604176858  1.0000
  C   C17       1.0  0.9602942998278059  0.8107444022529405  0.7853948297477144  1.0000
  H   H6        1.0  0.2084149833756731  0.2252652991950548  0.6932271258171332  1.0000
  H   H7        1.0  0.9982078556789371  0.22078040296940651  0.0652611211787999  1.0000
  H   H8        1.0  0.16859065757696046  0.6946072410647918  0.5993978349669529  1.0000
  H   H9        1.0  0.9766927526264547  0.6941713414073029  0.7988386118919562  1.0000
  H   H10       1.0  0.8873685970804188  0.8230586285475027  0.7657450626960824  1.0000
  H   H11       1.0  0.9979172296605601  0.862217866077392  0.6920907981449163  1.0000
  C   C18       1.0  0.08090042295125688  0.5601299640289517  0.9810246860948556  1.0000
  C   C19       1.0  0.0015405224901980877  0.5947760497042405  0.05159766105518693  1.0000
  C   C20       1.0  0.9262339307366338  0.6413089075426763  0.9728135215150525  1.0000
  C   C21       1.0  0.928873179812014  0.6541382836199546  0.8222705915717263  1.0000
  C   C22       1.0  0.0064678075605713  0.6179320687971914  0.7499777714417992  1.0000
  C   C23       1.0  0.08266162551774747  0.5684230169700699  0.8272477148910654  1.0000
  Br  Br1       1.0  0.8258096396962209  0.7189859325161356  0.7149025446949318  1.0000
  H   H12       1.0  0.2032752629001555  0.4292297239429068  0.2721851523193757  1.0000
  H   H13       1.0  0.9983615025680577  0.5891850375063656  0.16851767879409144  1.0000
  H   H14       1.0  0.8660332650502995  0.668750830128338  0.02909817559137485  1.0000
  H   H15       1.0  0.22991104038089516  0.5536786997172016  0.5477519353090092  1.0000
  Zn  Zn1       1.0  0.9836595898606286  0.564177168758047  0.40423993288457494  1.0000
  Zn  Zn2       1.0  0.17989384874416042  0.5643750555171272  0.4040317984224351  1.0000
  C   C24       1.0  0.08229090172721643  0.5611085429172473  0.6673133377767331  1.0000
  C   C25       1.0  0.08126469138108283  0.5674455050664524  0.14095852637025863  1.0000
  C   C26       1.0  0.0834055210877529  0.827690755778322  0.3974818580107889  1.0000
  C   C27       1.0  0.08014999442405407  0.30086155972267514  0.41079008902841685  1.0000
  O   O1        1.0  0.1558567825568371  0.5699694710136662  0.19455482003855873  1.0000
  O   O2        1.0  0.156636064850731  0.5587336761110437  0.6135586638723527  1.0000
  O   O3        1.0  0.1575351333091151  0.7740021980585023  0.3956678307274555  1.0000
  O   O4        1.0  0.15495764697643044  0.3547009582594414  0.41244554518595367  1.0000
  O   O5        1.0  0.00859572466323044  0.7738512659497001  0.3958261861844983  1.0000
  O   O6        1.0  0.0076966668362110635  0.5585844764189112  0.6137169365006232  1.0000
  O   O7        1.0  0.006917380683463927  0.569820204075123  0.19471136053770466  1.0000
  O   O8        1.0  0.0060182452599519785  0.35455168206163146  0.4126021937460438  1.0000
