data_image0
_chemical_formula_structural       NC5NC4H6C9H10C6OCH7Zn2C4O8
_chemical_formula_sum              "N2 C29 H23 O9 Zn2"
_cell_length_a       13.854160002989762
_cell_length_b       10.297183801781406
_cell_length_c       9.273891588657152
_cell_angle_alpha    86.04956984296379
_cell_angle_beta     89.68013189536481
_cell_angle_gamma    89.99762469776624

_space_group_name_H-M_alt    "P 1"
_space_group_IT_number       1

loop_
  _space_group_symop_operation_xyz
  'x, y, z'

loop_
  _atom_site_type_symbol
  _atom_site_label
  _atom_site_symmetry_multiplicity
  _atom_site_fract_x
  _atom_site_fract_y
  _atom_site_fract_z
  _atom_site_occupancy
  N   N1        1.0  0.9148096614685297  0.4087546612382702  0.4093665868836325  1.0000
  C   C1        1.0  0.8426969689806584  0.4309840819301398  0.3503159388422339  1.0000
  C   C2        1.0  0.752987769724941  0.45863807884449076  0.27685467177603695  1.0000
  C   C3        1.0  0.6651493067648794  0.4326643279082931  0.34858255071125854  1.0000
  C   C4        1.0  0.577845357439909  0.458638091563196  0.27685464859977316  1.0000
  C   C5        1.0  0.48758882727773906  0.4309839499792631  0.35031603051964155  1.0000
  N   N2        1.0  0.4150360908726832  0.4087546040438246  0.4093665868256722  1.0000
  C   C6        1.0  0.5784124186513327  0.5111319552588303  0.13341758605015586  1.0000
  C   C7        1.0  0.6662184793605033  0.5390415524176837  0.06158530875003865  1.0000
  C   C8        1.0  0.6667958192493911  0.5916592696859075  0.9066605264844415  1.0000
  C   C9        1.0  0.7534895080243914  0.5111319533315692  0.1334174957834322  1.0000
  H   H1        1.0  0.6647357193866408  0.39193485230377045  0.45960025360771795  1.0000
  H   H2        1.0  0.5107468361344227  0.5303035864803454  0.0777648860299458  1.0000
  H   H3        1.0  0.7317371978270615  0.6528604873118271  0.8828459678794268  1.0000
  H   H4        1.0  0.6020287199251271  0.6528604895311767  0.8828460329555523  1.0000
  H   H5        1.0  0.6670656076793465  0.5095396855834065  0.8351559036889418  1.0000
  H   H6        1.0  0.8215697955327128  0.5303036871038609  0.07776480056309665  1.0000
  C   C10       1.0  0.16493011403638982  0.027280728752870027  0.40957083903129066  1.0000
  C   C11       1.0  0.16268292233086967  0.03590785792046701  0.2578938349492934  1.0000
  C   C12       1.0  0.16153139704314068  0.9237113010846697  0.1801852702531248  1.0000
  C   C13       1.0  0.16267381086278476  0.8007319867293635  0.2573059573408787  1.0000
  C   C14       1.0  0.1649248516578165  0.7902186363539347  0.4091748106685167  1.0000
  C   C15       1.0  0.16603739260973205  0.9039610777489668  0.48431588634861195  1.0000
  C   C16       1.0  0.15910063347764125  0.9424743452629172  0.016135880196017863  1.0000
  C   C17       1.0  0.10288180733649142  0.8431052507588036  0.935897855495286  1.0000
  C   C18       1.0  0.21286373881016163  0.8433762312208696  0.9313189565527145  1.0000
  H   H7        1.0  0.16580519425065812  0.3514948731554395  0.46801685377013125  1.0000
  H   H8        1.0  0.1618155850423062  0.13066077109351282  0.19933814311456444  1.0000
  H   H9        1.0  0.16182821767553188  0.7126695487431334  0.2003763457385792  1.0000
  H   H10       1.0  0.16777066441158883  0.8965776235672017  0.6013378801062252  1.0000
  H   H11       1.0  0.16916361200121077  0.5631454278820898  0.6960123117965453  1.0000
  H   H12       1.0  0.15832022949207913  0.04276132542299681  0.9634075223350039  1.0000
  H   H13       1.0  0.07042780779906119  0.7600009167793658  0.0014933903207814373  1.0000
  H   H14       1.0  0.06921009276528856  0.883149313872991  0.833917534588994  1.0000
  H   H15       1.0  0.24721785378034722  0.7604373091502394  0.9941338086131122  1.0000
  H   H16       1.0  0.24347162806184386  0.8835762923523351  0.8266611408052742  1.0000
  C   C19       1.0  0.16650875050630798  0.40530925006423457  0.986099293645688  1.0000
  C   C20       1.0  0.2455542567571771  0.4601778886945979  0.054644521816589194  1.0000
  C   C21       1.0  0.31912465409994234  0.5247467681906943  0.9748012686742005  1.0000
  C   C22       1.0  0.3139126240082526  0.5347725177387443  0.823355451580313  1.0000
  C   C23       1.0  0.23689497641525414  0.4791173082691457  0.7534684339699305  1.0000
  C   C24       1.0  0.1633461766286219  0.4121900637616508  0.8326463625903187  1.0000
  O   O1        1.0  0.3955341705571874  0.57801598669131  0.04998023451452905  1.0000
  C   C25       1.0  0.4750179441016287  0.6463821455172183  0.9828683855537697  1.0000
  H   H17       1.0  0.9369216997166321  0.32552276874985986  0.09715792452387717  1.0000
  H   H18       1.0  0.3695145749951858  0.5843776383680539  0.7584075735287144  1.0000
  H   H19       1.0  0.2361161041465042  0.4858124022039938  0.6363837826874392  1.0000
  H   H20       1.0  0.010242120749690107  0.3533235038531688  0.5572342548215636  1.0000
  H   H21       1.0  0.4491076520745776  0.7342895899552578  0.9184271770247575  1.0000
  H   H22       1.0  0.5152644524264884  0.5819107595324652  0.9124891851207066  1.0000
  H   H23       1.0  0.5244269687537657  0.6774326624170492  0.06769581844772277  1.0000
  Zn  Zn1       1.0  0.05916417795687168  0.4087512345332775  0.4093749213394222  1.0000
  Zn  Zn2       1.0  0.2706815314091695  0.4087474967072188  0.40937009560434445  1.0000
  C   C26       1.0  0.1639418693882908  0.40571437771917623  0.6726335443123894  1.0000
  C   C27       1.0  0.1659061492008147  0.41178599370127467  0.1461116132003324  1.0000
  C   C28       1.0  0.1649423222521922  0.6459604419639278  0.4035058754116547  1.0000
  C   C29       1.0  0.164905623884539  0.17153836935012823  0.41523935975934023  1.0000
  O   O2        1.0  0.2459736440402711  0.413952562244364  0.19981138097373097  1.0000
  O   O3        1.0  0.2444111531975861  0.40354398888771076  0.6189296995023308  1.0000
  O   O4        1.0  0.24521794386413454  0.5975457362927818  0.40160720206567957  1.0000
  O   O5        1.0  0.24516678160085958  0.21995082325490634  0.41713377033305643  1.0000
  O   O6        1.0  0.08467885558471776  0.5975479079882182  0.40161124660477454  1.0000
  O   O7        1.0  0.08387206519007925  0.40354772069217004  0.6189336663772169  1.0000
  O   O8        1.0  0.0854345625713353  0.41395623469458087  0.19981361490547656  1.0000
  O   O9        1.0  0.08462769972432266  0.21995448729213837  0.4171361123361925  1.0000
