data_image0
_chemical_formula_structural       NC6NC2H4C7NH3C6SCH6Zn2C4O8
_chemical_formula_sum              "N3 C26 H13 S1 Zn2 O8"
_cell_length_a       14.927258858638513
_cell_length_b       9.275154477615127
_cell_length_c       10.302812801239593
_cell_angle_alpha    85.78691219350036
_cell_angle_beta     89.99986339820808
_cell_angle_gamma    89.43371000992973

_space_group_name_H-M_alt    "P 1"
_space_group_IT_number       1

loop_
  _space_group_symop_operation_xyz
  'x, y, z'

loop_
  _atom_site_type_symbol
  _atom_site_label
  _atom_site_symmetry_multiplicity
  _atom_site_fract_x
  _atom_site_fract_y
  _atom_site_fract_z
  _atom_site_occupancy
  N   N1        1.0  0.8338808203055332  0.577887843675358  0.573578381789562  1.0000
  C   C1        1.0  0.7563543293128931  0.5778878151720367  0.5735783912240424  1.0000
  C   C2        1.0  0.6599218210620014  0.5778879302445978  0.5735783467306133  1.0000
  C   C3        1.0  0.6130150895479501  0.5542024273038031  0.45939917087315085  1.0000
  C   C4        1.0  0.5193037780472084  0.5542024529339589  0.4593990507710024  1.0000
  C   C5        1.0  0.472105758160395  0.5778877527341403  0.5735783628741954  1.0000
  C   C6        1.0  0.3756731829179493  0.5778878678096646  0.5735783183754419  1.0000
  N   N2        1.0  0.2981466919253088  0.577887839306344  0.5735783278099218  1.0000
  C   C7        1.0  0.5190124226828923  0.601573255677899  0.6877575387263328  1.0000
  C   C8        1.0  0.6127237341836337  0.6015732300477431  0.6877576588284814  1.0000
  H   H1        1.0  0.6488246049003195  0.5357737706067011  0.3705612190837859  1.0000
  H   H2        1.0  0.48372094817638994  0.5357739681002651  0.3705612153445812  1.0000
  H   H3        1.0  0.48320297438154725  0.6200019020597584  0.7765955878213779  1.0000
  H   H4        1.0  0.6483065634545017  0.620001812188576  0.7765955936956503  1.0000
  C   C9        1.0  0.06861039551211956  0.1544985360619387  0.5720760280963622  1.0000
  C   C10       1.0  0.04402075978785261  0.23767762182635943  0.45760779568000953  1.0000
  C   C11       1.0  0.01214445170277046  0.1716391982146126  0.3492031167838172  1.0000
  C   C12       1.0  0.004332921419864413  0.0215186737511559  0.3539899701607283  1.0000
  C   C13       1.0  0.029752845568276964  0.9371319129167139  0.46584899028121174  1.0000
  C   C14       1.0  0.0634257779288201  0.0012660543707709898  0.575091928221132  1.0000
  C   C15       1.0  0.9863629841015751  0.25840009634383154  0.2333552437320341  1.0000
  N   N3        1.0  0.9656418354815023  0.3281399523991713  0.14024322796418986  1.0000
  H   H5        1.0  0.08598035454868036  0.23116959321064506  0.890753833455164  1.0000
  H   H6        1.0  0.979356637271321  0.9693920990776344  0.27067416610713946  1.0000
  H   H7        1.0  0.07892299565015742  0.7024958085649246  0.7886151222317629  1.0000
  C   C16       1.0  0.06601811109878813  0.5778822918158448  0.1923354981949812  1.0000
  C   C17       1.0  0.03492612893859606  0.7216624711712134  0.18165031003723442  1.0000
  C   C18       1.0  0.0192260882992219  0.7929902959952024  0.05935735515427409  1.0000
  C   C19       1.0  0.034926049103530366  0.721662319823065  0.9464991398089503  1.0000
  C   C20       1.0  0.06601805305121555  0.5778822820995984  0.9548324017899187  1.0000
  C   C21       1.0  0.08138458647377039  0.5066822190532407  0.07829296356801785  1.0000
  S   S1        1.0  0.9796848148773032  0.9767974876134561  0.04720068200677385  1.0000
  C   C22       1.0  0.8621564673030442  0.9264237850941379  0.050533415961312216  1.0000
  H   H8        1.0  0.02257516785441838  0.7787723686605629  0.2679727654820816  1.0000
  H   H9        1.0  0.022574989771315  0.7787721609710905  0.8526224517602907  1.0000
  H   H10       1.0  0.10535102416426348  0.3957686357085959  0.08562846986264505  1.0000
  H   H11       1.0  0.846663836092982  0.8622842342720057  0.9666586547274404  1.0000
  H   H12       1.0  0.8466642108523412  0.8622856913638292  0.14289335195050068  1.0000
  H   H13       1.0  0.8200858974544195  0.025939593066687035  0.04395135147816576  1.0000
  Zn  Zn1       1.0  0.96785795379413  0.5778839790628187  0.5735858541994854  1.0000
  Zn  Zn2       1.0  0.16416964162693948  0.5778798942782795  0.5735814632483259  1.0000
  C   C23       1.0  0.06605123576072858  0.5721385480104042  0.8106837163882923  1.0000
  C   C24       1.0  0.0659784922393845  0.5836271444537021  0.3364837349169374  1.0000
  C   C25       1.0  0.06440116639322849  0.8412089496499715  0.5693482897227202  1.0000
  C   C26       1.0  0.06762850522553743  0.3145550105941175  0.5778192246312617  1.0000
  O   O1        1.0  0.14046449674656514  0.5855473293145548  0.3848595112255493  1.0000
  O   O2        1.0  0.1405612666350602  0.5702141752213361  0.7623042298475262  1.0000
  O   O3        1.0  0.13922781046704114  0.7874919274258205  0.5674241706887253  1.0000
  O   O4        1.0  0.1417978858635599  0.3682695874253133  0.5797394730786707  1.0000
  O   O5        1.0  0.9902296425659549  0.7874942859187486  0.5674278443638159  1.0000
  O   O6        1.0  0.991563088123767  0.570218265937245  0.7623078404685402  1.0000
  O   O7        1.0  0.9914663186025894  0.585551369788094  0.3848615607600967  1.0000
  O   O8        1.0  0.992799707779054  0.3682736175865726  0.5797416199135734  1.0000
