data_image0
_chemical_formula_structural       NC8NC6H8C6NH7C8H8Zn2C4O8
_chemical_formula_sum              "N3 C32 H23 Zn2 O8"
_cell_length_a       17.457602349358154
_cell_length_b       9.274771166103582
_cell_length_c       9.275657083861812
_cell_angle_alpha    85.75447622105526
_cell_angle_beta     92.37146316173272
_cell_angle_gamma    92.29117059398062

_space_group_name_H-M_alt    "P 1"
_space_group_IT_number       1

loop_
  _space_group_symop_operation_xyz
  'x, y, z'

loop_
  _atom_site_type_symbol
  _atom_site_label
  _atom_site_symmetry_multiplicity
  _atom_site_fract_x
  _atom_site_fract_y
  _atom_site_fract_z
  _atom_site_occupancy
  N   N1        1.0  0.73840393323575  0.6066286575569111  0.473910512659832  1.0000
  C   C1        1.0  0.6770960216930125  0.5555473296335227  0.4622001888331251  1.0000
  C   C2        1.0  0.6008263834558728  0.4920085584472753  0.4476431246093285  1.0000
  C   C3        1.0  0.5421647733442234  0.5370370672366082  0.530684791950472  1.0000
  C   C4        1.0  0.46734318997998164  0.47585506031591884  0.5168063223180872  1.0000
  C   C5        1.0  0.4050820414268279  0.5233998339968373  0.6047507873363306  1.0000
  C   C6        1.0  0.33093353936046915  0.543614533442753  0.5428520658675711  1.0000
  C   C7        1.0  0.2722702392007513  0.5884392871704893  0.6260137840345865  1.0000
  C   C8        1.0  0.1966986096590533  0.6093150221412267  0.5616560419679493  1.0000
  N   N2        1.0  0.1359518957893707  0.6260920259603402  0.5099125944050638  1.0000
  C   C9        1.0  0.28726219284861293  0.6133222460600471  0.7716380786892452  1.0000
  C   C10       1.0  0.36062642306037035  0.5935418279816074  0.8339662749042847  1.0000
  C   C11       1.0  0.41927690121963784  0.5489196114159499  0.7513121453352196  1.0000
  C   C12       1.0  0.4524749691867498  0.3688841138329194  0.41829732237793626  1.0000
  C   C13       1.0  0.5111245479310904  0.32416740195239  0.3356990574123578  1.0000
  C   C14       1.0  0.585159260369364  0.38547725682080647  0.35018754639187244  1.0000
  H   H1        1.0  0.5546345908261239  0.6209420283549991  0.6045020234939515  1.0000
  H   H2        1.0  0.3190154475738301  0.5264263313205643  0.4296750032585848  1.0000
  H   H3        1.0  0.2422926363127401  0.6479540392648779  0.8368724099817537  1.0000
  H   H4        1.0  0.372042338038492  0.6124585754154839  0.9467268822160146  1.0000
  H   H5        1.0  0.47543502795479203  0.5325148133719071  0.8024909080560791  1.0000
  H   H6        1.0  0.3957641664764083  0.3184577175263221  0.406546050777727  1.0000
  H   H7        1.0  0.4991815468931199  0.24149631219965872  0.2605505952076297  1.0000
  H   H8        1.0  0.6301208794336204  0.3498820043288373  0.285521614352066  1.0000
  C   C15       1.0  0.9348228899022268  0.1926525128643446  0.492484012743609  1.0000
  C   C16       1.0  0.9177623063537309  0.2744638142179059  0.36202850429611666  1.0000
  C   C17       1.0  0.9078676151369127  0.20826360825217174  0.23140406031808158  1.0000
  C   C18       1.0  0.9150780336344476  0.05887198112817216  0.23029952233582687  1.0000
  C   C19       1.0  0.9307282390388091  0.975663105174284  0.35885645313732917  1.0000
  C   C20       1.0  0.939540161941624  0.040057494044051456  0.4913522655371641  1.0000
  N   N3        1.0  0.8912848338700194  0.2931905222016513  0.09957502076173719  1.0000
  H   H9        1.0  0.01970647222470667  0.27808918153878537  0.8156547427855247  1.0000
  H   H10       1.0  0.9138970235337295  0.39086443953219585  0.36112472930776573  1.0000
  H   H11       1.0  0.90782813296636  0.006517093507359295  0.12983007080565012  1.0000
  H   H12       1.0  0.9341277998750392  0.8596443198748327  0.35503583568922337  1.0000
  H   H13       1.0  0.9935936766073898  0.7467401290369894  0.7108879506302914  1.0000
  H   H14       1.0  0.8859998105961858  0.4050054362607745  0.0990495865014871  1.0000
  H   H15       1.0  0.8840962740913462  0.24486802319811238  0.0014817993709717082  1.0000
  C   C21       1.0  0.9391234035851673  0.6142755647240735  0.06877810310767307  1.0000
  C   C22       1.0  0.9794723048773745  0.7262097972162028  0.13717014519139425  1.0000
  C   C23       1.0  0.013082118459202931  0.8439878822406939  0.056261565751069  1.0000
  C   C24       1.0  0.0074760494161625266  0.8489031018650605  0.9051054415438147  1.0000
  C   C25       1.0  0.9687875775793744  0.7376959924508534  0.8354099762091418  1.0000
  C   C26       1.0  0.9352396331185935  0.6184343877018904  0.9150581709753323  1.0000
  C   C27       1.0  0.05700938256310419  0.9618116578234565  0.1312266679724361  1.0000
  C   C28       1.0  0.14103943666995863  0.9247645438948889  0.15675681745567815  1.0000
  H   H16       1.0  0.9834236544531462  0.7237289560215342  0.25425792795901625  1.0000
  H   H17       1.0  0.03382814627289754  0.9383563196788065  0.8409434253790669  1.0000
  H   H18       1.0  0.8437415869378264  0.44770914046700566  0.6392436109416124  1.0000
  H   H19       1.0  0.05339142546292508  0.06635341345086454  0.06486600985521096  1.0000
  H   H20       1.0  0.03158628785845853  0.9769036779155449  0.23677077542356442  1.0000
  H   H21       1.0  0.14592896795018406  0.8223886207139124  0.22613663533058562  1.0000
  H   H22       1.0  0.16796078267255155  0.9128068463217455  0.05204444098785223  1.0000
  H   H23       1.0  0.17237036071638945  0.012888225826806377  0.21200142046211945  1.0000
  Zn  Zn1       1.0  0.8531276280315341  0.61224153678397  0.48430826070279176  1.0000
  Zn  Zn2       1.0  0.021228066750328182  0.6204673747796821  0.49952665926367246  1.0000
  C   C29       1.0  0.9359400416967862  0.6119001561703408  0.7551006164828347  1.0000
  C   C30       1.0  0.9384174982220052  0.6208106664513076  0.22873460866436604  1.0000
  C   C31       1.0  0.9386708907451289  0.8798514720788471  0.4858238015251007  1.0000
  C   C32       1.0  0.9356865818101379  0.3528576145879935  0.498011497566685  1.0000
  O   O1        1.0  0.0019737953235432516  0.6261192741949422  0.2881927844995673  1.0000
  O   O2        1.0  0.9999680838476936  0.6128336786040409  0.7071924396861728  1.0000
  O   O3        1.0  0.0021724121511637108  0.8292077201885208  0.4897494265709533  1.0000
  O   O4        1.0  0.9997694102120576  0.4097452395942154  0.5056356843679368  1.0000
  O   O5        1.0  0.8745862272054189  0.8229636691638951  0.47819923039765344  1.0000
  O   O6        1.0  0.8723819089010867  0.6065913607286819  0.6956421643674144  1.0000
  O   O7        1.0  0.8743876280985189  0.6198768975282936  0.2766407768326274  1.0000
  O   O8        1.0  0.8721832424306629  0.4035028531382727  0.494083784746973  1.0000
