data_image0
_chemical_formula_structural       NC9NC5H8C12H10C9H10Zn2C4O8
_chemical_formula_sum              "N2 C39 H28 Zn2 O8"
_cell_length_a       17.807436237873137
_cell_length_b       10.299137764757564
_cell_length_c       9.272679976505533
_cell_angle_alpha    85.9999409853106
_cell_angle_beta     89.80029134641114
_cell_angle_gamma    88.40860916225229

_space_group_name_H-M_alt    "P 1"
_space_group_IT_number       1

loop_
  _space_group_symop_operation_xyz
  'x, y, z'

loop_
  _atom_site_type_symbol
  _atom_site_label
  _atom_site_symmetry_multiplicity
  _atom_site_fract_x
  _atom_site_fract_y
  _atom_site_fract_z
  _atom_site_occupancy
  N   N1        1.0  0.7019085066541543  0.3765292557831599  0.39779393253549533  1.0000
  C   C1        1.0  0.6412703266786277  0.34125065405643645  0.3855708865865249  1.0000
  C   C2        1.0  0.5658430954314599  0.29736795845745334  0.37036674456853413  1.0000
  C   C3        1.0  0.5473188194516339  0.225124243246869  0.25383714283816894  1.0000
  C   C4        1.0  0.4740825198153851  0.18240537396849654  0.2389832236695251  1.0000
  C   C5        1.0  0.418321577062325  0.2115524100470905  0.3406230337577325  1.0000
  C   C6        1.0  0.3404906190586602  0.16626882256853515  0.32492822504126473  1.0000
  C   C7        1.0  0.2784332483475473  0.24823403963056867  0.35368906247457943  1.0000
  C   C8        1.0  0.20505466033483738  0.2053122258332829  0.33885041085502765  1.0000
  C   C9        1.0  0.141949159423187  0.2899718324350815  0.3680141255041134  1.0000
  N   N2        1.0  0.0912253209829102  0.3580323076305665  0.3914609479740501  1.0000
  C   C10       1.0  0.19314974842685378  0.0801669986455007  0.29522288514874306  1.0000
  C   C11       1.0  0.2543497131989921  0.9981878625249859  0.2664527402772485  1.0000
  C   C12       1.0  0.3276079860091523  0.040713519495034774  0.2810667219954746  1.0000
  C   C13       1.0  0.437538226170775  0.2842922451480687  0.4573957936970068  1.0000
  C   C14       1.0  0.5108267396055266  0.32681948594794386  0.4720770090972417  1.0000
  H   H1        1.0  0.589423055184209  0.20207486154452806  0.17424159696955632  1.0000
  H   H2        1.0  0.46082864921932254  0.12806889876191008  0.14695903447694914  1.0000
  H   H3        1.0  0.2870643833521109  0.34593207426538664  0.3857050854690536  1.0000
  H   H4        1.0  0.1366360045510377  0.04604552495638427  0.2834756334137729  1.0000
  H   H5        1.0  0.24501559259609587  0.9013005647470234  0.2331038780344219  1.0000
  H   H6        1.0  0.3741603726477814  0.9748145949440858  0.25994830681203696  1.0000
  H   H7        1.0  0.3961559403513997  0.3068126973434966  0.5384285078982152  1.0000
  H   H8        1.0  0.5246050283511818  0.3823684570298953  0.5629444576784312  1.0000
  C   C15       1.0  0.8964987640024987  0.9858852741333677  0.39478573650764703  1.0000
  C   C16       1.0  0.8959191436787917  0.9946658136276502  0.2429919597016106  1.0000
  C   C17       1.0  0.8956989487029385  0.8819815368058574  0.1658698013886193  1.0000
  C   C18       1.0  0.8960661633064751  0.7594007656846131  0.24259312334335137  1.0000
  C   C19       1.0  0.8966422748977958  0.7486660723392554  0.3944815626705642  1.0000
  C   C20       1.0  0.8968562878671305  0.8624191718857301  0.46964275985215226  1.0000
  C   C21       1.0  0.8950848780118714  0.892315435907048  0.00528699702303226  1.0000
  C   C22       1.0  0.9401122897992091  0.8072994470086583  0.92699805119869  1.0000
  C   C23       1.0  0.9394409059537995  0.8172814956837031  0.7758441856762045  1.0000
  C   C24       1.0  0.8939244128410799  0.9118856121394991  0.7012674063912749  1.0000
  C   C25       1.0  0.8489843727813398  0.996769623998359  0.7776931533390323  1.0000
  C   C26       1.0  0.8494668736750832  0.9872914532752147  0.9288510655595897  1.0000
  H   H9        1.0  0.8966833865399307  0.30998545651857273  0.4531762844478322  1.0000
  H   H10       1.0  0.8966771267054942  0.08933170044501892  0.18436566976326677  1.0000
  H   H11       1.0  0.89486377702649  0.6722622495109447  0.1837251090270704  1.0000
  H   H12       1.0  0.8973013057786644  0.8549311084938223  0.5867248165308666  1.0000
  H   H13       1.0  0.897251984449805  0.5211360303514803  0.6811707948478092  1.0000
  H   H14       1.0  0.9765222176316515  0.7343125199933769  0.9826003142695896  1.0000
  H   H15       1.0  0.9744005897364509  0.7517857397998268  0.7164923506103209  1.0000
  H   H16       1.0  0.8934778816403977  0.919417473975465  0.5842627769460744  1.0000
  H   H17       1.0  0.8135771689912262  0.0698140386074635  0.7197781737559015  1.0000
  H   H18       1.0  0.8134872922794568  0.05302651277251803  0.9859244530593791  1.0000
  C   C27       1.0  0.8950468954829854  0.36428116276956973  0.9712969674554857  1.0000
  C   C28       1.0  0.9460821595697684  0.2815171166082142  0.05076479717741921  1.0000
  C   C29       1.0  0.0008186999782062736  0.20910194928379733  0.9813010224086064  1.0000
  C   C30       1.0  0.006370926905430395  0.21706692308189338  0.8303451984517327  1.0000
  C   C31       1.0  0.954433648489654  0.29811112760706404  0.7495084624588229  1.0000
  C   C32       1.0  0.8980941391575894  0.37027020506928476  0.8179703661696327  1.0000
  C   C33       1.0  0.06811102629072341  0.13589580551347114  0.7632235995198968  1.0000
  C   C34       1.0  0.05021281202196293  0.07730816688290587  0.6214383968337241  1.0000
  C   C35       1.0  0.1030715918384546  0.19109031154813635  0.6227140658544039  1.0000
  H   H19       1.0  0.7819557909170947  0.45746782521739454  0.24605274217549433  1.0000
  H   H20       1.0  0.9448917195950859  0.27502226251786266  0.167861356169124  1.0000
  H   H21       1.0  0.03969569933813098  0.14723308477053831  0.04632477051017104  1.0000
  H   H22       1.0  0.9561150565154184  0.30364591341929326  0.6326999860196093  1.0000
  H   H23       1.0  0.7275726835327491  0.500556312911783  0.705993137021516  1.0000
  H   H24       1.0  0.10736140962178652  0.07560494858783005  0.8347945128581453  1.0000
  H   H25       1.0  0.9944189244261304  0.10212268287400206  0.572655612878453  1.0000
  H   H26       1.0  0.07937317540566058  0.9824214236317004  0.6067070504165528  1.0000
  H   H27       1.0  0.07942261538663686  0.28496004033290934  0.5745889210548332  1.0000
  H   H28       1.0  0.16313437063290934  0.16269532192022254  0.6087243237301427  1.0000
  Zn  Zn1       1.0  0.8142569577251587  0.3711880295505131  0.39597470869090157  1.0000
  Zn  Zn2       1.0  0.9788768923774911  0.36336303078705146  0.3932920275607955  1.0000
  C   C36       1.0  0.8975155030495761  0.36396417352691124  0.6579330126466536  1.0000
  C   C37       1.0  0.8956201455152174  0.3705884410961225  0.13133383515023603  1.0000
  C   C38       1.0  0.8965906112240474  0.6044438139935957  0.3887944330975602  1.0000
  C   C39       1.0  0.8965449811504956  0.13010724343232116  0.40047249309501964  1.0000
  O   O1        1.0  0.958284939673214  0.3697300089350382  0.184025608655082  1.0000
  O   O2        1.0  0.9597934285687776  0.3588826299587133  0.6032047316418689  1.0000
  O   O3        1.0  0.9590457299598557  0.5530730315498049  0.3858734376415059  1.0000
  O   O4        1.0  0.959032581721225  0.17553961854036926  0.40135679547688974  1.0000
  O   O5        1.0  0.8341012122046934  0.5590114444688434  0.3879099416826915  1.0000
  O   O6        1.0  0.8348489108271341  0.36482260274651734  0.6052411581952488  1.0000
  O   O7        1.0  0.833340415734983  0.37566992420123135  0.1860603020006053  1.0000
  O   O8        1.0  0.8340880581671735  0.18147952528178826  0.4033915969088522  1.0000
