data_image0
_chemical_formula_structural       NC9NC5H8C12NCOCH13C16H10Zn2C4O8
_chemical_formula_sum              "N3 C48 H31 O9 Zn2"
_cell_length_a       17.807436237873137
_cell_length_b       10.299155265289647
_cell_length_c       10.299151387937776
_cell_angle_alpha    85.56903598390942
_cell_angle_beta     89.38153663469636
_cell_angle_gamma    88.36808077728017

_space_group_name_H-M_alt    "P 1"
_space_group_IT_number       1

loop_
  _space_group_symop_operation_xyz
  'x, y, z'

loop_
  _atom_site_type_symbol
  _atom_site_label
  _atom_site_symmetry_multiplicity
  _atom_site_fract_x
  _atom_site_fract_y
  _atom_site_fract_z
  _atom_site_occupancy
  N   N1        1.0  0.7072714511173739  0.3872342891809623  0.5567111953184856  1.0000
  C   C1        1.0  0.6466929359261847  0.35203675425619824  0.5456974909893011  1.0000
  C   C2        1.0  0.5713399211701813  0.308254896957572  0.5319976386431491  1.0000
  C   C3        1.0  0.5532762945883334  0.2367875050519312  0.42701483409436863  1.0000
  C   C4        1.0  0.4801124392191392  0.19416715330141823  0.4136305638292126  1.0000
  C   C5        1.0  0.4239635787832038  0.22263661792095382  0.5051967567499716  1.0000
  C   C6        1.0  0.3462092261172456  0.1774571231878505  0.4910547850142017  1.0000
  C   C7        1.0  0.2840118922990963  0.2592315762805226  0.5169699716373719  1.0000
  C   C8        1.0  0.2107057752029089  0.2164081755113041  0.503599442063944  1.0000
  C   C9        1.0  0.14745771726546383  0.3008743662402762  0.5298777464795437  1.0000
  N   N2        1.0  0.09661926834650188  0.36877934036080123  0.5510047784470593  1.0000
  C   C10       1.0  0.19901350678706153  0.09155230894221231  0.4642884514512524  1.0000
  C   C11       1.0  0.2603534747969272  0.009763998690541351  0.43836487911673977  1.0000
  C   C12       1.0  0.3335402700400969  0.05219273601904793  0.4515329841513059  1.0000
  C   C13       1.0  0.4427184758085537  0.29459851432206685  0.6103986479960484  1.0000
  C   C14       1.0  0.5159352623213309  0.3370283870417019  0.6236273219517947  1.0000
  H   H1        1.0  0.595684405765139  0.21426873602455276  0.35530806286240346  1.0000
  H   H2        1.0  0.4672212344603045  0.1404437813108934  0.3307251350345981  1.0000
  H   H3        1.0  0.2924845786690263  0.3567173407607267  0.545818695569424  1.0000
  H   H4        1.0  0.1425571937100721  0.05750874361346224  0.4537034522543941  1.0000
  H   H5        1.0  0.2511824010985363  0.9130978719569406  0.4083154935818103  1.0000
  H   H6        1.0  0.3801977687002521  0.9864338100529086  0.4325036873765604  1.0000
  H   H7        1.0  0.40102721491966487  0.31657876075852526  0.6834000863775449  1.0000
  H   H8        1.0  0.5293546675269438  0.39197198646246956  0.7054907576500942  1.0000
  C   C15       1.0  0.9020328440857464  0.9966052471426832  0.5539754321871033  1.0000
  C   C16       1.0  0.8892149586127133  0.0068658982188445385  0.41923807030536553  1.0000
  C   C17       1.0  0.8826432738871397  0.8949339884179044  0.3508067317517962  1.0000
  C   C18       1.0  0.8890353614599987  0.7716145342550053  0.41893291762428486  1.0000
  C   C19       1.0  0.9018650770365652  0.7593981170473846  0.5537516967095979  1.0000
  C   C20       1.0  0.908288176181343  0.8724140066855195  0.6204429042385091  1.0000
  C   C21       1.0  0.8690844262084751  0.9067621436602389  0.20827085873831552  1.0000
  C   C22       1.0  0.9071940437879659  0.9990383069359254  0.1262946957372224  1.0000
  C   C23       1.0  0.8944404564993976  0.010038209981293015  0.992158850603198  1.0000
  C   C24       1.0  0.8437893964417159  0.9280773002725747  0.9371506281511404  1.0000
  C   C25       1.0  0.8047621124511785  0.8376608958139083  0.019072081218231004  1.0000
  C   C26       1.0  0.8175430665049421  0.8264036631668049  0.15317018978251862  1.0000
  N   N3        1.0  0.8286185139444693  0.9389894604138627  0.7998118824240096  1.0000
  C   C27       1.0  0.883485309328141  0.9732910875123008  0.7007899865731444  1.0000
  O   O1        1.0  0.9524029056606702  0.9725684440559996  0.727638337424453  1.0000
  C   C28       1.0  0.8595340964514203  0.000824833166507057  0.5626010945157005  1.0000
  H   H9        1.0  0.9069864711483754  0.320133641387083  0.6057951488064253  1.0000
  H   H10       1.0  0.8832769693782596  0.10217439494612712  0.3675154470172637  1.0000
  H   H11       1.0  0.8850000581337123  0.6849883805680409  0.36636359681212927  1.0000
  H   H12       1.0  0.9181774082633549  0.8637847669483325  0.7243681646224278  1.0000
  H   H13       1.0  0.9265303672608521  0.5290355820836121  0.8080776781334442  1.0000
  H   H14       1.0  0.9473061052528102  0.062199351668880354  0.16579913418021786  1.0000
  H   H15       1.0  0.9232684060858394  0.08410664554171474  0.9321558910135797  1.0000
  H   H16       1.0  0.7645780521522748  0.7752070118873808  0.9787016618405615  1.0000
  H   H17       1.0  0.7863009798756615  0.7560662951614011  0.21404147919162098  1.0000
  H   H18       1.0  0.7757076778829578  0.9126180026204151  0.7695139047011241  1.0000
  H   H19       1.0  0.8053039073059474  0.05683943765431954  0.5589422640931971  1.0000
  H   H20       1.0  0.8525873632922766  0.9075287089402684  0.5174788268666521  1.0000
  H   H21       1.0  0.9023087032189395  0.05886929802749851  0.506578875696619  1.0000
  C   C29       1.0  0.901992525227771  0.3778308388552704  0.1724920055923862  1.0000
  C   C30       1.0  0.8294939105971597  0.43522426051575525  0.16863009669847862  1.0000
  C   C31       1.0  0.792690767908016  0.46449999096984945  0.04951667964355134  1.0000
  C   C32       1.0  0.8293631361870165  0.4356080811725559  0.933319567170368  1.0000
  C   C33       1.0  0.901905359679665  0.3781724451638628  0.9352351596685974  1.0000
  C   C34       1.0  0.9377742037049799  0.3496393211097537  0.05525440878940824  1.0000
  C   C35       1.0  0.7159960138108691  0.5252155912480387  0.04647665522762189  1.0000
  C   C36       1.0  0.696891799998985  0.6259407927883587  0.9514222735835197  1.0000
  C   C37       1.0  0.6246943241985766  0.6830476871152273  0.948689467441516  1.0000
  C   C38       1.0  0.5706539354672543  0.640282784530392  0.04072294286662536  1.0000
  C   C39       1.0  0.5890771321540097  0.540148242864176  0.13562504724946378  1.0000
  C   C40       1.0  0.661253073694609  0.48295476996934017  0.1386077599289841  1.0000
  C   C41       1.0  0.49633697594326476  0.6991199861084412  0.03778135148797213  1.0000
  C   C42       1.0  0.434097571014388  0.748395256569919  0.03531772511646403  1.0000
  C   C43       1.0  0.36121587502542085  0.8060961527338396  0.03243284277871062  1.0000
  C   C44       1.0  0.2989865280542952  0.8553636979650989  0.029969720981116492  1.0000
  H   H22       1.0  0.9298626364240539  0.3556930575580024  0.5014581576944275  1.0000
  H   H23       1.0  0.801884886276687  0.45892894224672975  0.2583319552134613  1.0000
  H   H24       1.0  0.8008519731426564  0.456339929863965  0.8413587931046385  1.0000
  H   H25       1.0  0.9936933400340008  0.3053667889437328  0.057517738478556124  1.0000
  H   H26       1.0  0.03863642163560499  0.26901623883036385  0.7316196077954529  1.0000
  H   H27       1.0  0.7380695381816116  0.6616937642762601  0.8802611714121098  1.0000
  H   H28       1.0  0.6110908564857719  0.7607473639901174  0.87501356154262  1.0000
  H   H29       1.0  0.5476076229676416  0.5060504188926315  0.2071213473122517  1.0000
  H   H30       1.0  0.673968881677549  0.40453547509662807  0.211903884169808  1.0000
  H   H31       1.0  0.2443440235168806  0.8986246080163183  0.027806904074257673  1.0000
  Zn  Zn1       1.0  0.8196288195051017  0.38190512738325344  0.5550719585357824  1.0000
  Zn  Zn2       1.0  0.9842618828704709  0.37409791986483154  0.552654695021042  1.0000
  C   C45       1.0  0.9019213054478945  0.3729338725337026  0.7910618966608112  1.0000
  C   C46       1.0  0.9019711943405654  0.38307072827622085  0.3166648574862776  1.0000
  C   C47       1.0  0.9018934921413284  0.6152118659097263  0.5486188495445059  1.0000
  C   C48       1.0  0.9019989518047139  0.1407911771597372  0.5591079751241967  1.0000
  O   O2        1.0  0.9644414263011036  0.38186082224305495  0.36413324637280997  1.0000
  O   O3        1.0  0.9644037594901387  0.3682173087334325  0.7417584871369929  1.0000
  O   O4        1.0  0.9643804575139413  0.5638598929527544  0.5459840232360622  1.0000
  O   O5        1.0  0.9644646721082715  0.18621824993520075  0.5599076137205194  1.0000
  O   O6        1.0  0.8394259740861166  0.5697847999785117  0.547819040654367  1.0000
  O   O7        1.0  0.839449275723548  0.37414377616527766  0.7435934348517452  1.0000
  O   O8        1.0  0.8394869427728499  0.38778724371331047  0.3659666326885591  1.0000
  O   O9        1.0  0.8395101885678632  0.19214466215961584  0.5617410974075516  1.0000
