data_image0
_chemical_formula_structural       NC9NC4H8C9H10C8NH7Zn2C4O8
_chemical_formula_sum              "N3 C34 H25 Zn2 O8"
_cell_length_a       16.32274767691083
_cell_length_b       9.27267660452572
_cell_length_c       9.274266800404108
_cell_angle_alpha    86.24029602187467
_cell_angle_beta     89.02225532851281
_cell_angle_gamma    90.07922574154927

_space_group_name_H-M_alt    "P 1"
_space_group_IT_number       1

loop_
  _space_group_symop_operation_xyz
  'x, y, z'

loop_
  _atom_site_type_symbol
  _atom_site_label
  _atom_site_symmetry_multiplicity
  _atom_site_fract_x
  _atom_site_fract_y
  _atom_site_fract_z
  _atom_site_occupancy
  N   N1        1.0  0.7871102729509892  0.5558467267565996  0.40471109170769154  1.0000
  C   C1        1.0  0.7347615205025193  0.5027167321076493  0.3442156760240165  1.0000
  C   C2        1.0  0.6696914816008732  0.4367288650190564  0.26907988605278477  1.0000
  C   C3        1.0  0.6812218198399276  0.34646920251789426  0.1663027314212422  1.0000
  C   C4        1.0  0.6018452508359005  0.3024220381784938  0.11615088174705468  1.0000
  C   C5        1.0  0.5429282271419577  0.3668841103082585  0.18955527849687837  1.0000
  C   C6        1.0  0.4529864945510431  0.34984739350899297  0.1701590730578071  1.0000
  C   C7        1.0  0.39740926254594006  0.42498203999281065  0.2557084307724227  1.0000
  C   C8        1.0  0.3126971194887211  0.41042164085351707  0.23913120555285694  1.0000
  C   C9        1.0  0.2567085403643371  0.48786605814519834  0.3273096557870754  1.0000
  N   N2        1.0  0.21171266287834692  0.5501186226899036  0.3981901966303405  1.0000
  C   C10       1.0  0.2825091368250027  0.3206050846564752  0.13686695927833892  1.0000
  C   C11       1.0  0.3367644735274383  0.2455699623512182  0.05143129679689018  1.0000
  C   C12       1.0  0.4213177235757714  0.2597381703298063  0.06756183434358976  1.0000
  C   C13       1.0  0.5807056147062116  0.460876878287452  0.29658037539397464  1.0000
  H   H1        1.0  0.7401206556746123  0.31137145717151327  0.1263350361539957  1.0000
  H   H2        1.0  0.5935317148678416  0.22865292696736986  0.03215103629472459  1.0000
  H   H3        1.0  0.4195390591596798  0.4950990044896984  0.33554303337705016  1.0000
  H   H4        1.0  0.21711440470616852  0.3086103340535342  0.12321101346427143  1.0000
  H   H5        1.0  0.3132387863448601  0.1760884839451946  0.9723205365260373  1.0000
  H   H6        1.0  0.4610841219333099  0.19971490577235462  0.9992192416008319  1.0000
  H   H7        1.0  0.5632223277545414  0.4231444296941921  0.4090911560272452  1.0000
  H   H8        1.0  0.5646655314623448  0.5762439363664174  0.2724708729659549  1.0000
  C   C14       1.0  0.9971020851808494  0.12951145859789737  0.3996446127460831  1.0000
  C   C15       1.0  0.9637752787980042  0.1949639092108331  0.519542568939277  1.0000
  C   C16       1.0  0.937928970313579  0.11210610110083774  0.6428487386609867  1.0000
  C   C17       1.0  0.9445746557541863  0.9613251458804432  0.6504055927884642  1.0000
  C   C18       1.0  0.9765640302667232  0.8944326638258213  0.5294175418923208  1.0000
  C   C19       1.0  0.0017286134518041927  0.976442723708185  0.4032689971633801  1.0000
  C   C20       1.0  0.9157297685497313  0.8791467409783075  0.7893239395579564  1.0000
  C   C21       1.0  0.8743851728847436  0.7335013855610987  0.7756061316308456  1.0000
  C   C22       1.0  0.9606272497650121  0.7402432416532639  0.835276375928792  1.0000
  H   H9        1.0  0.01634594651581178  0.42628874306261266  0.16312938362081297  1.0000
  H   H10       1.0  0.9594527932265162  0.31154369967885953  0.5194703753318821  1.0000
  H   H11       1.0  0.9132548412574043  0.16657142963360336  0.7338021901133017  1.0000
  H   H12       1.0  0.9804667017300223  0.777989813064027  0.5306962128620611  1.0000
  H   H13       1.0  0.024556922884746424  0.8966459558356017  0.0499513891501362  1.0000
  H   H14       1.0  0.8921334320460245  0.9402754135507169  0.880448539399589  1.0000
  H   H15       1.0  0.8710713339600789  0.6934635160804362  0.6657626465346607  1.0000
  H   H16       1.0  0.826532326576123  0.7059945546018513  0.859504256657539  1.0000
  H   H17       1.0  0.009675528765537896  0.7041731976024335  0.7617648825474828  1.0000
  H   H18       1.0  0.9631765557469978  0.7166708192733254  0.9540679648553655  1.0000
  C   C23       1.0  0.0012824718889659049  0.5497987040878829  0.9781036386284194  1.0000
  C   C24       1.0  0.953107686639512  0.4472091403534142  0.05954253889306838  1.0000
  C   C25       1.0  0.9000364350840726  0.35590167797390976  0.9920590692772535  1.0000
  C   C26       1.0  0.893380028692682  0.3657936145234369  0.8415061998448712  1.0000
  C   C27       1.0  0.9426607299348155  0.46492041677111745  0.7587290213058289  1.0000
  C   C28       1.0  0.997548175090118  0.5561554904723376  0.8248099182352302  1.0000
  C   C29       1.0  0.8370256466134437  0.2658262673947147  0.7688503986321904  1.0000
  C   C30       1.0  0.880671569281108  0.13339113768062383  0.7363897692904109  1.0000
  N   N3        1.0  0.915124293042346  0.028869165888251166  0.7107679339351486  1.0000
  H   H19       1.0  0.0932694206604312  0.8659588910692658  0.05751103576324668  1.0000
  H   H20       1.0  0.9551586431492352  0.43971243013700567  0.1764924768015279  1.0000
  H   H21       1.0  0.8634530026305357  0.2782120104488777  0.05752376691297223  1.0000
  H   H22       1.0  0.9394880565810808  0.4682537863860239  0.6419011068849119  1.0000
  H   H23       1.0  0.06244162322897284  0.7661751017309044  0.5283934539334294  1.0000
  H   H24       1.0  0.81394478969138  0.31894378001808277  0.6666662213778767  1.0000
  H   H25       1.0  0.7831292668213148  0.23692178768543215  0.8397104042947661  1.0000
  Zn  Zn1       1.0  0.9096412991131356  0.5541899117855282  0.4028376113341279  1.0000
  Zn  Zn2       1.0  0.08918152615822428  0.5517636928530708  0.4000754367924826  1.0000
  C   C31       1.0  0.9982208453417867  0.5492091075552543  0.664739774115525  1.0000
  C   C32       1.0  0.0006039498186320989  0.5567462911709249  0.13817339313371124  1.0000
  C   C33       1.0  0.0008751984262715972  0.8163116247457047  0.3968390653667775  1.0000
  C   C34       1.0  0.9979495256662602  0.289642042828957  0.4060741722716634  1.0000
  O   O1        1.0  0.0685107777284541  0.5581509361959784  0.1908460072348408  1.0000
  O   O2        1.0  0.06658089136869316  0.5459619275019965  0.6099703137920631  1.0000
  O   O3        1.0  0.06872338995525373  0.7616506117719444  0.39363861658303345  1.0000
  O   O4        1.0  0.06636821841006268  0.34246226225823917  0.4071775973360834  1.0000
  O   O5        1.0  0.932454545593072  0.7634913432098225  0.39573545172554536  1.0000
  O   O6        1.0  0.9303120568061726  0.5478043909208548  0.6120670794803884  1.0000
  O   O7        1.0  0.9322419505903446  0.5599933363489948  0.19294103941469556  1.0000
  O   O8        1.0  0.930099390735558  0.3443046529085092  0.40927273755874416  1.0000
