data_image0
_chemical_formula_structural       NC6NC2H4C9H9C6SCH6Zn2C4O8
_chemical_formula_sum              "N2 C28 H19 S1 Zn2 O8"
_cell_length_a       14.927258858638513
_cell_length_b       10.297183801781406
_cell_length_c       10.302812801239595
_cell_angle_alpha    85.53397989939683
_cell_angle_beta     89.99986339820808
_cell_angle_gamma    89.99762792032334

_space_group_name_H-M_alt    "P 1"
_space_group_IT_number       1

loop_
  _space_group_symop_operation_xyz
  'x, y, z'

loop_
  _atom_site_type_symbol
  _atom_site_label
  _atom_site_symmetry_multiplicity
  _atom_site_fract_x
  _atom_site_fract_y
  _atom_site_fract_z
  _atom_site_occupancy
  N   N1        1.0  0.8435302871034299  0.4216836740558898  0.5672939016824868  1.0000
  C   C1        1.0  0.7660037959364795  0.421683648374276  0.5672939112304916  1.0000
  C   C2        1.0  0.6695712883893062  0.42168375205514397  0.5672938662787466  1.0000
  C   C3        1.0  0.6225197097778301  0.40034301292865715  0.4532090260691912  1.0000
  C   C4        1.0  0.5288083984338281  0.4003430360215367  0.4532089058649617  1.0000
  C   C5        1.0  0.4817552244021468  0.42168359211746514  0.5672938831293249  1.0000
  C   C6        1.0  0.3853226498634377  0.42168369580100296  0.5672938381722435  1.0000
  N   N2        1.0  0.3077961586964872  0.42168367011938934  0.567293847720248  1.0000
  C   C7        1.0  0.5288067360220875  0.4430243312466222  0.6813787233335441  1.0000
  C   C8        1.0  0.6225180473660893  0.44302430815374216  0.6813788435377737  1.0000
  H   H1        1.0  0.6582165259217979  0.38373871467890064  0.36444447273262304  1.0000
  H   H2        1.0  0.49311287040562696  0.383738892621444  0.36444446820683213  1.0000
  H   H3        1.0  0.49310998686606156  0.459628620202301  0.7701433740168757  1.0000
  H   H4        1.0  0.6582135753894147  0.4596285392279827  0.7701433802490909  1.0000
  C   C9        1.0  0.07567065352513615  0.04020810288869847  0.5674778412780721  1.0000
  C   C10       1.0  0.0730591147737214  0.05006808789310036  0.43086022213362724  1.0000
  C   C11       1.0  0.07172093988973582  0.9385031591549988  0.3608670207240145  1.0000
  C   C12       1.0  0.07304862002704149  0.8148969950686323  0.430330712471382  1.0000
  C   C13       1.0  0.07566439634207955  0.8031492294740078  0.5671211329400119  1.0000
  C   C14       1.0  0.07695748742155217  0.9162809117476682  0.6348017607419164  1.0000
  C   C15       1.0  0.06889612846544302  0.9585996239745422  0.21310541884282874  1.0000
  C   C16       1.0  0.01644059048395509  0.8598827127050993  0.14083390439701282  1.0000
  C   C17       1.0  0.11850020544846808  0.8601909206827285  0.1367096108620156  1.0000
  H   H5        1.0  0.07205110485269155  0.145296951437768  0.3781182837347398  1.0000
  H   H6        1.0  0.07206642899959542  0.7272972904040927  0.3790534074972125  1.0000
  H   H7        1.0  0.07897189539918273  0.9079462833986772  0.7402051227839843  1.0000
  H   H8        1.0  0.08059296112755533  0.5737445582351927  0.825479720142119  1.0000
  H   H9        1.0  0.06798900686647236  0.05931518896960064  0.16561224243165906  1.0000
  H   H10       1.0  0.9865470943944477  0.776245204467961  0.19991673321162448  1.0000
  H   H11       1.0  0.9848359002544065  0.9007556860093966  0.04897879373821268  1.0000
  H   H12       1.0  0.1506024448282276  0.7767414319549005  0.19328783057610122  1.0000
  H   H13       1.0  0.14654486871975303  0.9012416606586341  0.04244283425853523  1.0000
  C   C18       1.0  0.07566754394466219  0.42167867180679974  0.1860510402000932  1.0000
  C   C19       1.0  0.04545483978413681  0.5512252263744706  0.17479319811097094  1.0000
  C   C20       1.0  0.030190999651765527  0.6154919006280608  0.052216155675156806  1.0000
  C   C21       1.0  0.04545475902351148  0.5512250900091435  0.939642028485482  1.0000
  C   C22       1.0  0.0756674858376703  0.4216786630524203  0.9485479438337294  1.0000
  C   C23       1.0  0.09059860007176512  0.3575271027051543  0.07229208430953492  1.0000
  S   S1        1.0  0.9917737867261894  0.781102963889093  0.03932740727662232  1.0000
  C   C24       1.0  0.8739373821680995  0.735716043164329  0.04286077179731351  1.0000
  H   H14       1.0  0.03345313043027876  0.6026814874852056  0.26088819378031647  1.0000
  H   H15       1.0  0.033452951077064925  0.6026813003561065  0.84553788088572  1.0000
  H   H16       1.0  0.11388675321611036  0.2575934912611195  0.08006934203214167  1.0000
  H   H17       1.0  0.8580525098563825  0.6779260344317033  0.9592414683469812  1.0000
  H   H18       1.0  0.8580528935264891  0.6779273472776481  0.1354761597666727  1.0000
  H   H19       1.0  0.8324753945382584  0.8253802104067272  0.035882351440047026  1.0000
  Zn  Zn1       1.0  0.9775073969582491  0.4216801920235163  0.5673013894845567  1.0000
  Zn  Zn2       1.0  0.17381905981083412  0.4216765116152317  0.5672970148024545  1.0000
  C   C25       1.0  0.07566554312834461  0.4165035341511762  0.8044221348252306  1.0000
  C   C26       1.0  0.07566305734450653  0.4268548085251575  0.33017639607391724  1.0000
  C   C27       1.0  0.07566095567346909  0.6589371131383897  0.5620150428994917  1.0000
  C   C28       1.0  0.07566757782476019  0.18441966880032365  0.5725835579475691  1.0000
  O   O1        1.0  0.15016080461283132  0.4285849032709823  0.37854452458702315  1.0000
  O   O2        1.0  0.15016380563053944  0.41476966606417554  0.7560503127598326  1.0000
  O   O3        1.0  0.1501590969170512  0.6105378471062191  0.5603048703503066  1.0000
  O   O4        1.0  0.1501654463383768  0.23281673152301674  0.5742898696497851  1.0000
  O   O5        1.0  0.0011609434391692802  0.6105399721184017  0.5603085346318892  1.0000
  O   O6        1.0  0.001165652135743269  0.414773351816649  0.7560539070881658  1.0000
  O   O7        1.0  0.0011626511780982157  0.4285885437548665  0.3785465580289975  1.0000
  O   O8        1.0  0.0011672929000503532  0.23282036271549325  0.5742920004331871  1.0000
