data_image0
_chemical_formula_structural       NC8NC6H8C9N2CH8C10OC3H12Zn2C4O8
_chemical_formula_sum              "N4 C41 H28 O9 Zn2"
_cell_length_a       17.457602349358154
_cell_length_b       10.29904407246008
_cell_length_c       10.299151058433395
_cell_angle_alpha    85.55751041883182
_cell_angle_beta     92.85142871943061
_cell_angle_gamma    91.71136987994299

_space_group_name_H-M_alt    "P 1"
_space_group_IT_number       1

loop_
  _space_group_symop_operation_xyz
  'x, y, z'

loop_
  _atom_site_type_symbol
  _atom_site_label
  _atom_site_symmetry_multiplicity
  _atom_site_fract_x
  _atom_site_fract_y
  _atom_site_fract_z
  _atom_site_occupancy
  N   N1        1.0  0.7231044125081365  0.4526543823484226  0.6261044984363175  1.0000
  C   C1        1.0  0.662018451509565  0.4067226730030064  0.6155013557266906  1.0000
  C   C2        1.0  0.5860249319468397  0.34958934360955723  0.6023205866064552  1.0000
  C   C3        1.0  0.5274869918373738  0.3897715952307259  0.6772073911619798  1.0000
  C   C4        1.0  0.452931894246773  0.33475685603114425  0.6646404800303556  1.0000
  C   C5        1.0  0.3908024783612146  0.3771834492065784  0.7439484813558777  1.0000
  C   C6        1.0  0.3162739856487908  0.3956409957691647  0.6881797944721133  1.0000
  C   C7        1.0  0.2577359730922497  0.43563932966813534  0.7631746033920148  1.0000
  C   C8        1.0  0.1817700172714633  0.4547022865629405  0.705190284950977  1.0000
  N   N2        1.0  0.1207063037789829  0.470022523672019  0.658571045723122  1.0000
  C   C9        1.0  0.2732342204625322  0.4574233943186714  0.8944465510705462  1.0000
  C   C10       1.0  0.34697800306600873  0.4393549562082428  0.9506027300878205  1.0000
  C   C11       1.0  0.40550433860642965  0.39953679541937753  0.8760655939666533  1.0000
  C   C12       1.0  0.43820358187312614  0.23888206370660953  0.5757540277335318  1.0000
  C   C13       1.0  0.49672976902083665  0.19897860675285736  0.5012671508066575  1.0000
  C   C14       1.0  0.5704999901750638  0.2541058549761812  0.5143839819771117  1.0000
  H   H1        1.0  0.539831917784329  0.46498760831950386  0.7438175990103801  1.0000
  H   H2        1.0  0.3039509011356696  0.38064649559144703  0.5861592225557946  1.0000
  H   H3        1.0  0.2283657792154512  0.4883221265139061  0.9532740278347871  1.0000
  H   H4        1.0  0.35878783137262876  0.45590717259143937  0.052249613309168774  1.0000
  H   H5        1.0  0.46197499340312054  0.3845539839366919  0.9221762506255463  1.0000
  H   H6        1.0  0.381711044893976  0.19354006721316355  0.565114606253933  1.0000
  H   H7        1.0  0.4848992105433132  0.12487888644371804  0.4334583130195693  1.0000
  H   H8        1.0  0.6153681460401715  0.2223374615825791  0.4560678698220031  1.0000
  C   C15       1.0  0.9218204090524107  0.0799332494990721  0.6424483359266284  1.0000
  C   C16       1.0  0.9353289941065892  0.09019754673364688  0.5087263978438905  1.0000
  C   C17       1.0  0.9422726420814769  0.9782731046834114  0.44079097923263433  1.0000
  C   C18       1.0  0.9355218362561426  0.85494736669752  0.508437525026431  1.0000
  C   C19       1.0  0.9219976368284475  0.8427339186641747  0.6422390142731877  1.0000
  C   C20       1.0  0.9152317846397604  0.9557456801415812  0.7084187929422254  1.0000
  C   C21       1.0  0.9565778252830379  0.9901647726759116  0.29931057197549227  1.0000
  C   C22       1.0  0.007906783678115026  0.9083755944789826  0.24693110487857184  1.0000
  C   C23       1.0  0.020115615485096994  0.922054042697115  0.1138325675946621  1.0000
  N   N3        1.0  0.9821405430614755  0.014213252685194128  0.03652425652406732  1.0000
  N   N4        1.0  0.9331318372484575  0.09240696183555165  0.08525713550272096  1.0000
  C   C24       1.0  0.9191306268787723  0.08354118002630685  0.2142799695597264  1.0000
  H   H9        1.0  0.9165928389640379  0.4034622041868732  0.6938974262355535  1.0000
  H   H10       1.0  0.9415532179506505  0.18552056892553306  0.45751722917400905  1.0000
  H   H11       1.0  0.939758423063875  0.7682900249870891  0.4562403761908955  1.0000
  H   H12       1.0  0.9048092102084726  0.9471156830315847  0.8115585653676364  1.0000
  H   H13       1.0  0.895985528950854  0.6123817913228974  0.8946108865375966  1.0000
  H   H14       1.0  0.03904675325453957  0.8358279260752546  0.3084886290945785  1.0000
  H   H15       1.0  0.059737005691740126  0.8599830130260897  0.07210910968695239  1.0000
  H   H16       1.0  0.8782720338799959  0.14788394245370728  0.2495367977418972  1.0000
  C   C25       1.0  0.9220039560766957  0.4612472343932017  0.2609744196402486  1.0000
  C   C26       1.0  0.8436215540246736  0.42619379002577656  0.25629951094470793  1.0000
  C   C27       1.0  0.80378132102808  0.40851193449225914  0.1367710097248287  1.0000
  C   C28       1.0  0.8433818748127331  0.426351945307867  0.02098351845810131  1.0000
  C   C29       1.0  0.9218141113263162  0.4614199446773948  0.023712938872066047  1.0000
  C   C30       1.0  0.9606421032927293  0.4786545236062001  0.1441362429935229  1.0000
  C   C31       1.0  0.7208587748335054  0.37143208194045907  0.13286962001008673  1.0000
  C   C32       1.0  0.6917183690256852  0.2776156738064832  0.2254029468185652  1.0000
  C   C33       1.0  0.6136908690426034  0.24280430263623162  0.22156090360023592  1.0000
  C   C34       1.0  0.5632989211719934  0.30069417034726076  0.12577191381842034  1.0000
  O   O1        1.0  0.4855172168895143  0.26238028043962414  0.1261831611279065  1.0000
  C   C35       1.0  0.4280417151465957  0.3130443605007891  0.034722535556166445  1.0000
  C   C36       1.0  0.5921319345465204  0.394695286621465  0.032938813711125954  1.0000
  C   C37       1.0  0.6701753974032094  0.42956399605121853  0.03657678195637537  1.0000
  H   H17       1.0  0.9521630556388619  0.47465994576371795  0.590254564906761  1.0000
  H   H18       1.0  0.8131233539181346  0.41429745680831515  0.34566712185881454  1.0000
  H   H19       1.0  0.8132022105115432  0.41111868719726746  0.9287271526641812  1.0000
  H   H20       1.0  0.021100952726694096  0.5056883878431657  0.1470268198587763  1.0000
  H   H21       1.0  0.0699629158015207  0.5268065967559235  0.8216437794664633  1.0000
  H   H22       1.0  0.7294388494900845  0.22988801473801646  0.29975692692670575  1.0000
  H   H23       1.0  0.592257025817541  0.170089292601326  0.29333235084516907  1.0000
  H   H24       1.0  0.3719349262253157  0.26570370451399516  0.05781140782441784  1.0000
  H   H25       1.0  0.4417108312816783  0.2919613588781418  0.9344370562859239  1.0000
  H   H26       1.0  0.4237708895398677  0.41972586476702944  0.040979561902899427  1.0000
  H   H27       1.0  0.5547312328988776  0.44162299333299226  0.9577957687983534  1.0000
  H   H28       1.0  0.6907315044374361  0.5033320642755343  0.9650038171566916  1.0000
  Zn  Zn1       1.0  0.8378437270117813  0.4576629714249101  0.6354811420984148  1.0000
  Zn  Zn2       1.0  0.005966969904556141  0.46500328816643677  0.649205037520151  1.0000
  C   C38       1.0  0.9218470612201694  0.45621307230032254  0.879540320557336  1.0000
  C   C39       1.0  0.9219654719457663  0.4664549062520343  0.40514613594266596  1.0000
  C   C40       1.0  0.9219614737367179  0.6985470404454341  0.6371031027732696  1.0000
  C   C41       1.0  0.9218510016807239  0.22411937516623914  0.6475834187105736  1.0000
  O   O2        1.0  0.9857544494995625  0.4709825941669197  0.4587396293032184  1.0000
  O   O3        1.0  0.9856597347803696  0.45725553504813354  0.836362572695015  1.0000
  O   O4        1.0  0.9857512639182188  0.652943241811065  0.640592733470974  1.0000
  O   O5        1.0  0.9856628630190374  0.2752948941682931  0.6545093664669168  1.0000
  O   O6        1.0  0.8581477765250904  0.6473713629195772  0.6301768084615254  1.0000
  O   O7        1.0  0.8580562477635255  0.4516852165938521  0.8259465780116022  1.0000
  O   O8        1.0  0.8581509629119105  0.46541223010096844  0.4483220732342552  1.0000
  O   O9        1.0  0.8580593764018515  0.2697245208345598  0.6440919077681728  1.0000
