data_image0
_chemical_formula_structural       NC10NC5H10C12ClH9C16H10Zn2C4O8
_chemical_formula_sum              "N2 C47 H29 Cl1 Zn2 O8"
_cell_length_a       19.4436361288709
_cell_length_b       10.299768534541528
_cell_length_c       10.299151387937775
_cell_angle_alpha    85.58714147101236
_cell_angle_beta     89.69351296060239
_cell_angle_gamma    89.43641405984484

_space_group_name_H-M_alt    "P 1"
_space_group_IT_number       1

loop_
  _space_group_symop_operation_xyz
  'x, y, z'

loop_
  _atom_site_type_symbol
  _atom_site_label
  _atom_site_symmetry_multiplicity
  _atom_site_fract_x
  _atom_site_fract_y
  _atom_site_fract_z
  _atom_site_occupancy
  N   N1        1.0  0.648033084591317  0.4086632560115313  0.5621485868624697  1.0000
  C   C1        1.0  0.5891981564279191  0.41856868772121064  0.5765331501301154  1.0000
  C   C2        1.0  0.5158701262198325  0.43092210268879505  0.594526201620386  1.0000
  C   C3        1.0  0.4736852882503579  0.3989013835408364  0.4998501606337693  1.0000
  C   C4        1.0  0.3977821054578127  0.40934086426166183  0.5051787782545303  1.0000
  C   C5        1.0  0.3580336967916412  0.3846209276504468  0.612250927674848  1.0000
  C   C6        1.0  0.28191440866196144  0.3885341465731378  0.5992916265388128  1.0000
  C   C7        1.0  0.24135662655528  0.4462185943447481  0.6930658270793099  1.0000
  C   C8        1.0  0.1696943285782888  0.44985357374988316  0.6825220111984077  1.0000
  C   C9        1.0  0.13759497786620242  0.3954081744370732  0.5784905049742959  1.0000
  C   C10       1.0  0.06380345269676141  0.3991043561221084  0.567791408708795  1.0000
  N   N2        1.0  0.0044800714633048975  0.40207589228284957  0.5591900446512688  1.0000
  C   C11       1.0  0.1774277336866048  0.3370167468363978  0.48509950892422843  1.0000
  C   C12       1.0  0.24910646367265224  0.3333274796594796  0.49539154269258384  1.0000
  C   C13       1.0  0.3861535592296828  0.34419455177508523  0.7433447270177935  1.0000
  C   C14       1.0  0.4448220355347291  0.38732781758916657  0.7905896735479429  1.0000
  C   C15       1.0  0.48904920379549804  0.4851651983268208  0.7162262861950632  1.0000
  H   H1        1.0  0.4957838019038732  0.36976159222963356  0.4095412008037327  1.0000
  H   H2        1.0  0.373091858993093  0.43181120035946713  0.41202072177677507  1.0000
  H   H3        1.0  0.2652303769037127  0.48952949614012176  0.7739168922510213  1.0000
  H   H4        1.0  0.1393535269073787  0.4951861300391627  0.7554456411881394  1.0000
  H   H5        1.0  0.153082117196428  0.29390158503358177  0.4045829388410615  1.0000
  H   H6        1.0  0.27878124419553674  0.28575175226406246  0.423164144527959  1.0000
  H   H7        1.0  0.3551743798393439  0.27999511270297783  0.8075891097624205  1.0000
  H   H8        1.0  0.4599616380058532  0.35328634419288935  0.8885233037799625  1.0000
  H   H9        1.0  0.45895643512004414  0.5758713818128887  0.6909784932995764  1.0000
  H   H10       1.0  0.5323355135184614  0.5107669454456638  0.7793130132273391  1.0000
  C   C16       1.0  0.8261949976825311  0.024005321138218513  0.5606677290949991  1.0000
  C   C17       1.0  0.830739200890194  0.03342785417284322  0.4241606681310701  1.0000
  C   C18       1.0  0.8331079056115006  0.9210617406362541  0.35499829478416633  1.0000
  C   C19       1.0  0.8308705607608524  0.7981377158288983  0.4241750678512228  1.0000
  C   C20       1.0  0.826324739549705  0.7867236836315257  0.5606820801946375  1.0000
  C   C21       1.0  0.8240129213730464  0.9002137892554287  0.628163966415801  1.0000
  C   C22       1.0  0.8379162082727963  0.9320836459943371  0.2105851964788652  1.0000
  C   C23       1.0  0.7987957481138195  0.02631439984360107  0.13644586384944457  1.0000
  C   C24       1.0  0.8033827399786615  0.03649160733175915  0.0005276278433246028  1.0000
  C   C25       1.0  0.8470239499437394  0.9529606862006982  0.9370574112693189  1.0000
  C   C26       1.0  0.8861332972973321  0.8590417267476317  0.00968561098873333  1.0000
  C   C27       1.0  0.8816684446176477  0.8484700171628515  0.1456174765514593  1.0000
  Cl  Cl1       1.0  0.852702378151514  0.9659769638100185  0.7665247607618642  1.0000
  H   H11       1.0  0.824428142776499  0.34786927328304357  0.6126806788337067  1.0000
  H   H12       1.0  0.833396428957306  0.1283682457320279  0.37140586218934407  1.0000
  H   H13       1.0  0.8317328983951824  0.7112650299451374  0.37122160351329825  1.0000
  H   H14       1.0  0.8205065812199582  0.8921765629214642  0.7334728859252451  1.0000
  H   H15       1.0  0.8246199532885237  0.45492015324754304  0.612702315771257  1.0000
  H   H16       1.0  0.7640154817893001  0.09095335277450413  0.1834781488152013  1.0000
  H   H17       1.0  0.7728512942645479  0.10914543030501657  0.9446691067417672  1.0000
  H   H18       1.0  0.920146698845429  0.7943695981417721  0.9609702078358224  1.0000
  H   H19       1.0  0.913072815228909  0.7760927230019498  0.19997444267109232  1.0000
  C   C28       1.0  0.8262996974727046  0.4051950411774117  0.17930361518630233  1.0000
  C   C29       1.0  0.7599474324447564  0.46037375667158215  0.17494696403916474  1.0000
  C   C30       1.0  0.7262644703057356  0.4885252025637498  0.05558244049721739  1.0000
  C   C31       1.0  0.7598278490588919  0.46075355692741793  0.9396356300187882  1.0000
  C   C32       1.0  0.8262200229823327  0.40553395995861785  0.9420462599512053  1.0000
  C   C33       1.0  0.8590478963326537  0.37809657900270177  0.06231024068590574  1.0000
  C   C34       1.0  0.6560718098299368  0.5468979119089589  0.05201903879231118  1.0000
  C   C35       1.0  0.6386190274034546  0.6470317342474021  0.9568611417164616  1.0000
  C   C36       1.0  0.5725423531211089  0.7019331260475317  0.9536356332415376  1.0000
  C   C37       1.0  0.5230516693328432  0.6575251576530052  0.045273490925084474  1.0000
  C   C38       1.0  0.5398811896299147  0.5579611866208825  0.14027447953594718  1.0000
  C   C39       1.0  0.6059381168087827  0.502972567835487  0.14374971508559953  1.0000
  C   C40       1.0  0.45503521820474313  0.714092105411444  0.04182474995983521  1.0000
  C   C41       1.0  0.3980724001314889  0.7614660703391711  0.03893639294839613  1.0000
  C   C42       1.0  0.33136953250785467  0.8169405574873035  0.03555415546871643  1.0000
  C   C43       1.0  0.2744159197782889  0.8643071044163213  0.03266637174271381  1.0000
  H   H20       1.0  0.851806984872807  0.3839086499089679  0.5084599340715663  1.0000
  H   H21       1.0  0.7346797561019021  0.4832348629517702  0.2644609938792495  1.0000
  H   H22       1.0  0.733733146682496  0.48061460645187815  0.8474797142515316  1.0000
  H   H23       1.0  0.9102262706894801  0.3355322792566027  0.06495517026404762  1.0000
  H   H24       1.0  0.9513588426939679  0.3005547319614714  0.7393634964160016  1.0000
  H   H25       1.0  0.6763311542213807  0.6840364025342491  0.8860024861943732  1.0000
  H   H26       1.0  0.560117034241864  0.7792111585824454  0.8798878924783833  1.0000
  H   H27       1.0  0.5019025568498049  0.5226026233377885  0.2114667886458386  1.0000
  H   H28       1.0  0.6175505023864207  0.42494793009781584  0.21711117044412417  1.0000
  H   H29       1.0  0.2244059454669168  0.9058987810100327  0.0301306665814014  1.0000
  Zn  Zn1       1.0  0.7508959852157422  0.4067588171462744  0.5613023276092903  1.0000
  Zn  Zn2       1.0  0.9016171594341423  0.4039697283431129  0.5600469849512013  1.0000
  C   C44       1.0  0.8262326756245129  0.400296349338653  0.7978714662785753  1.0000
  C   C45       1.0  0.8262821151613124  0.4104338043499202  0.3234779600717952  1.0000
  C   C46       1.0  0.8262972101387517  0.6425514786729613  0.555504229744878  1.0000
  C   C47       1.0  0.8262175289438428  0.16817711571483526  0.5658452662434672  1.0000
  O   O1        1.0  0.8834741135391707  0.41112787079067425  0.37138779116085696  1.0000
  O   O2        1.0  0.883434560900246  0.39748444915490544  0.7490084852917984  1.0000
  O   O3        1.0  0.8834859021405498  0.5931085446950817  0.5532952334500558  1.0000
  O   O4        1.0  0.8834227208796902  0.21550378544905735  0.5671009460558578  1.0000
  O   O5        1.0  0.769090372336456  0.5952247609935193  0.5542483669261893  1.0000
  O   O6        1.0  0.7690390313656438  0.39960222570730863  0.7499615495515128  1.0000
  O   O7        1.0  0.7690785842056969  0.4132456013929275  0.37233929400883414  1.0000
  O   O8        1.0  0.7690271915316541  0.2176215068059408  0.5680525462721322  1.0000
