data_image0
_chemical_formula_structural       NC8NH4C9H10C6BrH4Zn2C4O8
_chemical_formula_sum              "N2 C27 H18 Br1 Zn2 O8"
_cell_length_a       13.859017124695912
_cell_length_b       10.297183801781406
_cell_length_c       9.27656775626242
_cell_angle_alpha    86.09344643719086
_cell_angle_beta     90.18619718657982
_cell_angle_gamma    89.9976557662862

_space_group_name_H-M_alt    "P 1"
_space_group_IT_number       1

loop_
  _space_group_symop_operation_xyz
  'x, y, z'

loop_
  _atom_site_type_symbol
  _atom_site_label
  _atom_site_symmetry_multiplicity
  _atom_site_fract_x
  _atom_site_fract_y
  _atom_site_fract_z
  _atom_site_occupancy
  N   N1        1.0  0.905087842861309  0.4076552657320468  0.40992508819019485  1.0000
  C   C1        1.0  0.8326118714910067  0.3865690257538176  0.35379133638111876  1.0000
  C   C2        1.0  0.7424560746215974  0.36034082007909385  0.28396816329383  1.0000
  C   C3        1.0  0.6549881709466226  0.3859106522959  0.35203697192459493  1.0000
  C   C4        1.0  0.5672257534672787  0.360341919159817  0.2839675836312725  1.0000
  C   C5        1.0  0.5671136033643723  0.3091964138104535  0.14780849202572124  1.0000
  C   C6        1.0  0.6543995137426867  0.2837248613846244  0.08000169853222916  1.0000
  C   C7        1.0  0.7419789648682028  0.3091943078727018  0.14780967104901  1.0000
  C   C8        1.0  0.4773720316635393  0.386569855976671  0.35379083811019185  1.0000
  N   N2        1.0  0.4051389679707239  0.40765555442560736  0.4099248721067735  1.0000
  H   H1        1.0  0.6552161808368008  0.4254992534623599  0.45742737053750077  1.0000
  H   H2        1.0  0.49970224972541827  0.2890719708548688  0.09423088727572183  1.0000
  H   H3        1.0  0.6541720316190509  0.24421711021746706  0.9748247329337141  1.0000
  H   H4        1.0  0.80915847120751  0.2890679814489192  0.09423306614740401  1.0000
  C   C9        1.0  0.15512184352572356  0.026181664095580533  0.4101291527255686  1.0000
  C   C10       1.0  0.1519789745109115  0.03470389109075378  0.25850544673424225  1.0000
  C   C11       1.0  0.15036856762350204  0.9224535898041906  0.18082418820862994  1.0000
  C   C12       1.0  0.15196639167097992  0.7995276133140589  0.25791777570152097  1.0000
  C   C13       1.0  0.155114242323392  0.7891192977977352  0.4097332635237253  1.0000
  C   C14       1.0  0.15667050376724534  0.9029137079275257  0.4848479352288859  1.0000
  C   C15       1.0  0.14696906589647063  0.9411031748754589  0.01683244380016503  1.0000
  C   C16       1.0  0.09029570745295756  0.8416785447950237  0.9366226395886633  1.0000
  C   C17       1.0  0.20021203091049133  0.8419464418353957  0.9320452986661034  1.0000
  H   H5        1.0  0.15634205372417043  0.3504362306768869  0.4685546299962836  1.0000
  H   H6        1.0  0.15076585629399797  0.12941630623778  0.19997033090295835  1.0000
  H   H7        1.0  0.1507846206455379  0.7114258019223806  0.20100816871211638  1.0000
  H   H8        1.0  0.15909480959135425  0.895611187974289  0.601828808390549  1.0000
  H   H9        1.0  0.1610468284598123  0.5622444705895989  0.6964699722444386  1.0000
  H   H10       1.0  0.14587729212534747  0.04135368728467937  0.9641226142635935  1.0000
  H   H11       1.0  0.05824077485999557  0.7586195523702928  0.0021951401467730234  1.0000
  H   H12       1.0  0.056033053867942544  0.8816520523575662  0.8346781686495581  1.0000
  H   H13       1.0  0.23492536392676477  0.7590509888267734  0.9948380626082064  1.0000
  H   H14       1.0  0.23019062828818537  0.8820741443711592  0.8274242439472913  1.0000
  C   C18       1.0  0.1541970597432476  0.4039173118594246  0.9868064082299104  1.0000
  C   C19       1.0  0.0684530760801052  0.435190105562437  0.057401051326982484  1.0000
  C   C20       1.0  0.9869966917092285  0.47716334714852243  0.9786783131126522  1.0000
  C   C21       1.0  0.9897542918156175  0.4887139327928505  0.8281764751809356  1.0000
  C   C22       1.0  0.0736066599097205  0.45603785647805656  0.7558554985495008  1.0000
  C   C23       1.0  0.15603904141771774  0.41138368918753065  0.8330560563219729  1.0000
  Br  Br1       1.0  0.8782664133894845  0.5472056094000644  0.7208959406032487  1.0000
  H   H15       1.0  0.2869369745176671  0.28592647491153805  0.2777017684749985  1.0000
  H   H16       1.0  0.9219454048204087  0.5019309443467336  0.03498287369705877  1.0000
  H   H17       1.0  0.07345473450226403  0.462673522995084  0.6388015924435275  1.0000
  H   H18       1.0  0.31480095832694244  0.39796982394947517  0.5536682247700093  1.0000
  Zn  Zn1       1.0  0.049391817033294094  0.4076519542095949  0.4099333528608433  1.0000
  Zn  Zn2       1.0  0.26083501199188586  0.4076483733727789  0.40992843085903796  1.0000
  C   C24       1.0  0.15568873909263137  0.4047972476124362  0.6730994221308801  1.0000
  C   C25       1.0  0.1545403991771177  0.4105047202488611  0.146762502107493  1.0000
  C   C26       1.0  0.15509820137738184  0.6448571827609391  0.4040663202385528  1.0000
  C   C27       1.0  0.15513086492437345  0.17044322504761733  0.41579568163083924  1.0000
  O   O1        1.0  0.2348972176254709  0.4127084884724233  0.20044336349628702  1.0000
  O   O2        1.0  0.2358124122623304  0.4025897779650908  0.6194144107868257  1.0000
  O   O3        1.0  0.2353344671549351  0.5964412248067583  0.4021682768792796  1.0000
  O   O4        1.0  0.23537509034638202  0.21885704997156807  0.4176893893645175  1.0000
  O   O5        1.0  0.07485166652359632  0.5964432776133752  0.4021723943494635  1.0000
  O   O6        1.0  0.0753296114437838  0.40259339082701806  0.6194184506200909  1.0000
  O   O7        1.0  0.07441441310089478  0.4127120407816025  0.20044567099533928  1.0000
  O   O8        1.0  0.07489228605308829  0.2188605939425048  0.4176918048969859  1.0000
