data_image0
_chemical_formula_structural       NC14NH8C12H8C12H8Zn2C4O8
_chemical_formula_sum              "N2 C42 H24 Zn2 O8"
_cell_length_a       17.45760127107867
_cell_length_b       14.99405791820965
_cell_length_c       14.389300134226545
_cell_angle_alpha    83.13641900786516
_cell_angle_beta     86.9942696228219
_cell_angle_gamma    89.75310963527127

_space_group_name_H-M_alt    "P 1"
_space_group_IT_number       1

loop_
  _space_group_symop_operation_xyz
  'x, y, z'

loop_
  _atom_site_type_symbol
  _atom_site_label
  _atom_site_symmetry_multiplicity
  _atom_site_fract_x
  _atom_site_fract_y
  _atom_site_fract_z
  _atom_site_occupancy
  N   N1        1.0  0.7188464445252983  0.020474424278386978  0.9210076184529146  1.0000
  C   C1        1.0  0.657854107934553  0.9956946548909245  0.9468866034503431  1.0000
  C   C2        1.0  0.5819771386800603  0.9648693810046588  0.9790718217215859  1.0000
  C   C3        1.0  0.5232472405758566  0.9677485908731996  0.916035726952342  1.0000
  C   C4        1.0  0.4488041087502985  0.9380308354200719  0.946950366397763  1.0000
  C   C5        1.0  0.4343831516578278  0.9054336165150908  0.042069019849303335  1.0000
  C   C6        1.0  0.49310024891950466  0.9026085776913482  0.10474161848497243  1.0000
  C   C7        1.0  0.5667574298026463  0.9322370045521137  0.07344081405502079  1.0000
  C   C8        1.0  0.3864716093972799  0.9410024887165496  0.8802465742825558  1.0000
  C   C9        1.0  0.3120061132996462  0.9681596751337036  0.9068073400741712  1.0000
  C   C10       1.0  0.2532763246302771  0.9708967196883717  0.8437820021939013  1.0000
  C   C11       1.0  0.2685184631984371  0.9464781921723496  0.7537805080688542  1.0000
  C   C12       1.0  0.3421978152634484  0.9194454665746312  0.7268173840931936  1.0000
  C   C13       1.0  0.4009148881557251  0.9166864648328307  0.7894849271083184  1.0000
  C   C14       1.0  0.1773760977370538  0.9990552786569061  0.8714517736145538  1.0000
  N   N2        1.0  0.11636523160123062  0.02169092018955008  0.8937009790940529  1.0000
  H   H1        1.0  0.5353561328824635  0.9942167805504366  0.8433359212808731  1.0000
  H   H2        1.0  0.37798336866419546  0.8810215906207038  0.06772194508041418  1.0000
  H   H3        1.0  0.4815057863151099  0.8771600395146028  0.1777090324077184  1.0000
  H   H4        1.0  0.6117758288124574  0.9297056918341583  0.12272973211533056  1.0000
  H   H5        1.0  0.2998788708550612  0.9883090061632503  0.9759383587361967  1.0000
  H   H6        1.0  0.2235002551384364  0.9483364680087091  0.7045431014402355  1.0000
  H   H7        1.0  0.3538098065717937  0.9003464848589436  0.6572602273578156  1.0000
  H   H8        1.0  0.45733299300208036  0.894400936139136  0.7674067743902144  1.0000
  C   C15       1.0  0.9176414272031824  0.7591149843828116  0.9073422137532412  1.0000
  C   C16       1.0  0.9621666207964947  0.7041632568886886  0.969538632821386  1.0000
  C   C17       1.0  0.9621283686575188  0.6109379190605136  0.9695798930757298  1.0000
  C   C18       1.0  0.9176299143937353  0.5706119919579946  0.907392701211974  1.0000
  C   C19       1.0  0.8731480235425151  0.625662955375632  0.8451959691910452  1.0000
  C   C20       1.0  0.8731359549008272  0.7188861558020371  0.8452075890691941  1.0000
  C   C21       1.0  0.9176119841138934  0.4715371241546354  0.9074015976356411  1.0000
  C   C22       1.0  0.9185209441721341  0.4335593217112085  0.822635808249472  1.0000
  C   C23       1.0  0.9185360846421566  0.3403350097903222  0.8226339894746788  1.0000
  C   C24       1.0  0.9175776185813973  0.2830431823382229  0.9073739118348962  1.0000
  C   C25       1.0  0.9166362015487413  0.32091747938602083  0.9921769354303194  1.0000
  C   C26       1.0  0.9166858219096857  0.4141383573199858  0.992174521475286  1.0000
  H   H9        1.0  0.9972526095510701  0.7331811211998134  0.018103014058260536  1.0000
  H   H10       1.0  0.9977743776088114  0.5704633508638943  0.01748613234545826  1.0000
  H   H11       1.0  0.8374901409314258  0.5965384862194196  0.7972988978807747  1.0000
  H   H12       1.0  0.8380564986041478  0.7593694586624676  0.7966283335328452  1.0000
  H   H13       1.0  0.9202631705188188  0.4759728658210423  0.7561428783118527  1.0000
  H   H14       1.0  0.9194961529743311  0.313220697981154  0.7561353082614914  1.0000
  H   H15       1.0  0.9156636843182038  0.2785330065725301  0.05867017454241363  1.0000
  H   H16       1.0  0.9149570368211272  0.44132307045323155  0.058664124752027993  1.0000
  C   C27       1.0  0.9167306489284089  0.0322508142943188  0.6332938810922559  1.0000
  C   C28       1.0  0.9584832104933899  0.08522455933695408  0.560885392274248  1.0000
  C   C29       1.0  0.9601727685815097  0.0631793384944826  0.46912351261979435  1.0000
  C   C30       1.0  0.9202013537372163  0.9876669791394188  0.4477576097951291  1.0000
  C   C31       1.0  0.8785098267051917  0.9347064368006174  0.5202543515672238  1.0000
  C   C32       1.0  0.8767677972684922  0.9567915508017952  0.6120074742925542  1.0000
  C   C33       1.0  0.9220194299060007  0.9642004984844916  0.35024987084295023  1.0000
  C   C34       1.0  0.9167407463491111  0.03169564422394555  0.27397636364794553  1.0000
  C   C35       1.0  0.9184883568245575  0.009907344627841931  0.18142227062918148  1.0000
  C   C36       1.0  0.925614240664157  0.91947494580138  0.16581950593636213  1.0000
  C   C37       1.0  0.9308403249286088  0.8522028763515407  0.2411422417609728  1.0000
  C   C38       1.0  0.9290444952716641  0.874198480576931  0.3327875509675591  1.0000
  H   H17       1.0  0.9900685853248038  0.14366516308568633  0.5751122884344309  1.0000
  H   H18       1.0  0.9936433719287338  0.10460238140703028  0.41504976146014605  1.0000
  H   H19       1.0  0.846354068134856  0.8767751558875709  0.5057984147749524  1.0000
  H   H20       1.0  0.8439131692219343  0.9147863288496788  0.6661920139720707  1.0000
  H   H21       1.0  0.9102159961413223  0.10109836940675976  0.2868707653182123  1.0000
  H   H22       1.0  0.9271659696469069  0.9005996979194217  0.09542866969589903  1.0000
  H   H23       1.0  0.9365205691139861  0.782716704801243  0.228414339968797  1.0000
  H   H24       1.0  0.934179880837912  0.8209251411295184  0.389936745232069  1.0000
  Zn  Zn1       1.0  0.8335617946452191  0.02082287293045271  0.9131328912129939  1.0000
  Zn  Zn2       1.0  0.0016498837747116468  0.021334867719771552  0.9015833157626394  1.0000
  C   C39       1.0  0.9181548478574498  0.010576875638748323  0.07781415420351168  1.0000
  C   C40       1.0  0.9170586662358018  0.031581992458710406  0.7369020183207928  1.0000
  C   C41       1.0  0.9175737878093965  0.184161194928076  0.9036491485205811  1.0000
  C   C42       1.0  0.9176396692172761  0.8579965991731998  0.9110670776370753  1.0000
  O   O1        1.0  0.9809573061409903  0.0315479372197911  0.7672908517189141  1.0000
  O   O2        1.0  0.9818311775283753  0.010998861042553987  0.038659191578834906  1.0000
  O   O3        1.0  0.9813611074027951  0.1511703519650562  0.8980197763855304  1.0000
  O   O4        1.0  0.9814273186843151  0.8913764553566299  0.9079302008770698  1.0000
  O   O5        1.0  0.8537843023753836  0.15078128512004674  0.9067860100349583  1.0000
  O   O6        1.0  0.8542543722073127  0.010610868020179527  0.04742537553130566  1.0000
  O   O7        1.0  0.8533804972764882  0.031159958849916517  0.7760559135923593  1.0000
  O   O8        1.0  0.8538505100418372  0.8909884677538666  0.916695332722059  1.0000
