data_image0
_chemical_formula_structural       NC8NC6H8C7F3H5C9H10Zn2C4O8
_chemical_formula_sum              "N2 C34 H23 F3 Zn2 O8"
_cell_length_a       17.457602349358154
_cell_length_b       9.272718291674593
_cell_length_c       9.272679976505533
_cell_angle_alpha    86.45423910102922
_cell_angle_beta     93.25957942520282
_cell_angle_gamma    91.24279848523653

_space_group_name_H-M_alt    "P 1"
_space_group_IT_number       1

loop_
  _space_group_symop_operation_xyz
  'x, y, z'

loop_
  _atom_site_type_symbol
  _atom_site_label
  _atom_site_symmetry_multiplicity
  _atom_site_fract_x
  _atom_site_fract_y
  _atom_site_fract_z
  _atom_site_occupancy
  N   N1        1.0  0.7105486295323976  0.6001302281105558  0.4862472186175575  1.0000
  C   C1        1.0  0.6496275926343825  0.5490557998125936  0.47409184909689794  1.0000
  C   C2        1.0  0.5738392534262658  0.48552564110665003  0.4589812117851515  1.0000
  C   C3        1.0  0.5154387810134068  0.5307891872170905  0.5424789503563214  1.0000
  C   C4        1.0  0.4410817925657845  0.4696159330484356  0.5280675621985615  1.0000
  C   C5        1.0  0.3790985465270099  0.51740974802722  0.6164938144190351  1.0000
  C   C6        1.0  0.304245999489946  0.5374011091241901  0.5547128766641332  1.0000
  C   C7        1.0  0.2458467611243141  0.5824614806371413  0.6383290370647119  1.0000
  C   C8        1.0  0.16954446261793332  0.603105131945258  0.5740925490128259  1.0000
  N   N2        1.0  0.1082103594962346  0.6196955474311323  0.522446529511323  1.0000
  C   C9        1.0  0.2618089057319401  0.6078050209689105  0.7842928074561848  1.0000
  C   C10       1.0  0.3358766237647498  0.5882489765075594  0.8465072929044504  1.0000
  C   C11       1.0  0.39426532491922833  0.543392643891611  0.7634008900525122  1.0000
  C   C12       1.0  0.42641107479914303  0.36241411443343474  0.428561706977197  1.0000
  C   C13       1.0  0.48480023420678064  0.31746355632976236  0.3455104134158964  1.0000
  C   C14       1.0  0.5583741921856152  0.3787665666803359  0.3605334439676089  1.0000
  H   H1        1.0  0.5277251105577404  0.6148637970514146  0.6170750614043381  1.0000
  H   H2        1.0  0.2915535201818069  0.5198530247562059  0.44129028217595073  1.0000
  H   H3        1.0  0.21705150643461169  0.6426221136581487  0.8498791048419387  1.0000
  H   H4        1.0  0.3480471048036636  0.6075226779102485  0.9595277794312004  1.0000
  H   H5        1.0  0.4510026393163076  0.5271722286136927  0.8144848976147749  1.0000
  H   H6        1.0  0.3700806041028845  0.31199389567921143  0.41637092822040933  1.0000
  H   H7        1.0  0.47301801016618444  0.234617299234015  0.2695924065485218  1.0000
  H   H8        1.0  0.6031374867477424  0.3429887618817036  0.2955078437430685  1.0000
  C   C15       1.0  0.9110425958195115  0.18658626338583906  0.5013134522874205  1.0000
  C   C16       1.0  0.8639070644837377  0.2647741448406924  0.3973867266010531  1.0000
  C   C17       1.0  0.8113836706116739  0.1939446092347108  0.3043453285269102  1.0000
  C   C18       1.0  0.8080186375866457  0.04255852847718081  0.3124679286022838  1.0000
  C   C19       1.0  0.8552001632870527  0.9633886186590525  0.41327906807762954  1.0000
  C   C20       1.0  0.9077238017734097  0.03322884300215678  0.5073934008866148  1.0000
  C   C21       1.0  0.7628190367271569  0.2795853420723744  0.19111636488866734  1.0000
  F   F1        1.0  0.7432933636754361  0.4104675707251415  0.24173630114466427  1.0000
  F   F2        1.0  0.6957294224855349  0.20464048812262783  0.15488749672889957  1.0000
  F   F3        1.0  0.8037518564915501  0.3053602678482511  0.06855235165172457  1.0000
  H   H9        1.0  0.0032837559529657035  0.272333629516323  0.8208559762298036  1.0000
  H   H10       1.0  0.8669454128096403  0.38183820623157166  0.3909530449000047  1.0000
  H   H11       1.0  0.7694127833156451  0.985005892319987  0.23962360029335208  1.0000
  H   H12       1.0  0.8520755053053916  0.8464814781285155  0.41493440896547207  1.0000
  H   H13       1.0  0.07307769487423776  0.926853759506295  0.6959714196859761  1.0000
  C   C22       1.0  0.9078408526103523  0.6064269633126134  0.08082467156037265  1.0000
  C   C23       1.0  0.9603350309410407  0.5198213432014089  0.16519728096976682  1.0000
  C   C24       1.0  0.01656200736180913  0.44508337131432796  0.10113051411661056  1.0000
  C   C25       1.0  0.022195861431215685  0.45449569693525993  0.9508499631148869  1.0000
  C   C26       1.0  0.9687883422982838  0.5390995278339872  0.8649951872569113  1.0000
  C   C27       1.0  0.9109255470889536  0.6133881712153819  0.9278821873209417  1.0000
  C   C28       1.0  0.08561478351327523  0.37076058728945394  0.8898201756421962  1.0000
  C   C29       1.0  0.06760295419684836  0.3038895077698174  0.7455833810097228  1.0000
  C   C30       1.0  0.12106642414636305  0.4356227898891554  0.7536047081151005  1.0000
  H   H14       1.0  0.7919267246725845  0.6982098000298551  0.3439585655410957  1.0000
  H   H15       1.0  0.9591488374801381  0.5124899540303003  0.2821090893638867  1.0000
  H   H16       1.0  0.056545007909865726  0.3804176196023662  0.1699003990737189  1.0000
  H   H17       1.0  0.9704802832572246  0.5454158797463271  0.7484172781642934  1.0000
  H   H18       1.0  0.7361939130210152  0.7404338211454433  0.7982958599926144  1.0000
  H   H19       1.0  0.12597192189091522  0.3078847567138592  0.9651913401368958  1.0000
  H   H20       1.0  0.010512446462982663  0.3256855357632519  0.6908902445004821  1.0000
  H   H21       1.0  0.09781314365143626  0.20157575061094077  0.7332571280141358  1.0000
  H   H22       1.0  0.09648918771498233  0.5373753529656222  0.7036702754800723  1.0000
  H   H23       1.0  0.18253267063261758  0.41029236234359606  0.745963488585331  1.0000
  Zn  Zn1       1.0  0.8253052603457287  0.6057725592009036  0.4967018574458879  1.0000
  Zn  Zn2       1.0  0.9934538037644084  0.6140414940944041  0.5120036137454198  1.0000
  C   C31       1.0  0.9103632814920743  0.6063293697027413  0.7677287409447611  1.0000
  C   C32       1.0  0.9083976121804749  0.6134865939516794  0.24097705196080985  1.0000
  C   C33       1.0  0.9083262558669579  0.8731479532996953  0.5004964851198808  1.0000
  C   C34       1.0  0.9104345874974527  0.3466662761991402  0.5082093670195564  1.0000
  O   O1        1.0  0.9723959863449293  0.618987599100843  0.3005325454400485  1.0000
  O   O2        1.0  0.9739857638409858  0.6071032038848498  0.7197865034544941  1.0000
  O   O3        1.0  0.9723399851387942  0.8225625545433075  0.5039944986459768  1.0000
  O   O4        1.0  0.9740417072351818  0.4035282550443857  0.516324436961862  1.0000
  O   O5        1.0  0.8447172994940761  0.8162857954306473  0.49238102900013164  1.0000
  O   O6        1.0  0.8463630711235277  0.6008281761074998  0.7081729693454692  1.0000
  O   O7        1.0  0.8447732875607212  0.6127125068407642  0.28891727696350067  1.0000
  O   O8        1.0  0.8464190088820336  0.3972531533620312  0.504709276542705  1.0000
