data_image0
_chemical_formula_structural       NC12NC2H8C9H10C6OCH7Zn2C4O8
_chemical_formula_sum              "N2 C34 H25 O9 Zn2"
_cell_length_a       19.240039667572717
_cell_length_b       10.297183801781406
_cell_length_c       9.273891588657152
_cell_angle_alpha    86.04956984296379
_cell_angle_beta     89.6801242657702
_cell_angle_gamma    89.99762600624447

_space_group_name_H-M_alt    "P 1"
_space_group_IT_number       1

loop_
  _space_group_symop_operation_xyz
  'x, y, z'

loop_
  _atom_site_type_symbol
  _atom_site_label
  _atom_site_symmetry_multiplicity
  _atom_site_fract_x
  _atom_site_fract_y
  _atom_site_fract_z
  _atom_site_occupancy
  N   N1        1.0  0.6587262630850296  0.40875470082615273  0.4093664018707137  1.0000
  C   C1        1.0  0.5985778945107288  0.40875478409208665  0.4093663108906185  1.0000
  C   C2        1.0  0.5237598577772258  0.40875490017265426  0.40936615844316826  1.0000
  C   C3        1.0  0.4869786130400396  0.3452037960182033  0.5241716366279787  1.0000
  C   C4        1.0  0.41430760876671735  0.34509366415211695  0.5242677407718326  1.0000
  C   C5        1.0  0.37742762351801556  0.40875499071147714  0.4093659057000214  1.0000
  C   C6        1.0  0.4149233160715519  0.4724165060617356  0.2944642864558853  1.0000
  C   C7        1.0  0.4875937480009814  0.4723061397353519  0.29456052667247357  1.0000
  C   C8        1.0  0.3002225333650265  0.408754911168831  0.4093657998376703  1.0000
  C   C9        1.0  0.2629120297616404  0.2958402966847049  0.45589087290839303  1.0000
  C   C10       1.0  0.19024161191985897  0.2959464033332788  0.45578946211491994  1.0000
  C   C11       1.0  0.1538902462625988  0.40875478250931896  0.40936586750187565  1.0000
  C   C12       1.0  0.0790722083673067  0.4087546709759413  0.40936614353908896  1.0000
  N   N2        1.0  0.0189238908935395  0.40875463201929213  0.4093663748786367  1.0000
  C   C13       1.0  0.19048639161834388  0.5215632370572123  0.36294221415059535  1.0000
  C   C14       1.0  0.2631573588604606  0.521669522411079  0.36284062281155993  1.0000
  H   H1        1.0  0.5144533588090322  0.2960072524655502  0.6138082926266106  1.0000
  H   H2        1.0  0.3869708332505868  0.29670547704950323  0.6151420962847949  1.0000
  H   H3        1.0  0.38807356095086615  0.5208047197660135  0.2035898744945206  1.0000
  H   H4        1.0  0.515548772873402  0.5215025854831605  0.2049241768208081  1.0000
  H   H5        1.0  0.2899140748109267  0.20694124844222775  0.49052535412701803  1.0000
  H   H6        1.0  0.16243243567460738  0.2079560905326754  0.49156998553210585  1.0000
  H   H7        1.0  0.1628657443728584  0.6095535254453275  0.32716170689424406  1.0000
  H   H8        1.0  0.2903417927604557  0.6105686494485048  0.32820609186447514  1.0000
  C   C15       1.0  0.8388302978157899  0.02728077916457706  0.4095706034335158  1.0000
  C   C16       1.0  0.8372121642772382  0.03590790823492786  0.2578935998059948  1.0000
  C   C17       1.0  0.8363829863820071  0.9237113513492988  0.1801850353427139  1.0000
  C   C18       1.0  0.8372056033896836  0.8007320370434301  0.2573057221994228  1.0000
  C   C19       1.0  0.8388265085390488  0.7902186867654142  0.4091745750718061  1.0000
  C   C20       1.0  0.8396276150146933  0.9039611282085909  0.4843156505268991  1.0000
  C   C21       1.0  0.8346326684006968  0.942474395422357  0.01613564577720839  1.0000
  C   C22       1.0  0.7941512231134461  0.8431052984854046  0.9358976324462831  1.0000
  C   C23       1.0  0.8733458247644881  0.8433762837068777  0.9313187112607482  1.0000
  H   H9        1.0  0.8394604161275259  0.3514949236050151  0.46801661799537864  1.0000
  H   H10       1.0  0.8365876214078369  0.13066082137044077  0.19933790814667818  1.0000
  H   H11       1.0  0.8365967177779653  0.7126695990206077  0.20037611076813833  1.0000
  H   H12       1.0  0.8408756906582262  0.896577674101832  0.6013376439339717  1.0000
  H   H13       1.0  0.841878709317771  0.563145478476999  0.6960120753425798  1.0000
  H   H14       1.0  0.8340707235254308  0.04276137554866488  0.9634072880740256  1.0000
  H   H15       1.0  0.7707820975588074  0.7600009631015376  0.0014931738353398674  1.0000
  H   H16       1.0  0.7699052584659496  0.883149360142467  0.8339173183498256  1.0000
  H   H17       1.0  0.8980831649228509  0.7604373631229029  0.9941335563733017  1.0000
  H   H18       1.0  0.8953856231585224  0.8835763461628828  0.826660889323108  1.0000
  C   C24       1.0  0.8399670253192241  0.40530930054425607  0.9860990577286461  1.0000
  C   C25       1.0  0.8968852599416188  0.4601779425952704  0.054644269913228134  1.0000
  C   C26       1.0  0.949861037260678  0.5247468252750849  0.9748010018918167  1.0000
  C   C27       1.0  0.9461080149107892  0.5347725745975873  0.8233551858520198  1.0000
  C   C28       1.0  0.8906499788543116  0.4791173617950921  0.7534681838178394  1.0000
  C   C29       1.0  0.8376897532702667  0.41219011410481415  0.8326461273128833  1.0000
  O   O1        1.0  0.00488117681540934  0.5780160470822808  0.04997995227893259  1.0000
  C   C30       1.0  0.06211499421823041  0.6463822093478049  0.9828680872432174  1.0000
  H   H19       1.0  0.674648460825031  0.32552280929462873  0.09715773503897562  1.0000
  H   H20       1.0  0.9861452673978951  0.5843776976330406  0.7584072965553728  1.0000
  H   H21       1.0  0.890089136921149  0.4858124556962353  0.6363835326928688  1.0000
  H   H22       1.0  0.7274442379021939  0.3533235475708383  0.5572340505081947  1.0000
  H   H23       1.0  0.04345779090992429  0.7342896526645907  0.9184268839543543  1.0000
  H   H24       1.0  0.09109526535845555  0.5819108251046976  0.9124888786706213  1.0000
  H   H25       1.0  0.09769291118024781  0.6774327283857839  0.06769551014459196  1.0000
  Zn  Zn1       1.0  0.7626715046046316  0.4087512803680222  0.4093747071319598  1.0000
  Zn  Zn2       1.0  0.9149786365533694  0.40874755169526017  0.4093698386191933  1.0000
  C   C31       1.0  0.838118693280469  0.40571442808811753  0.6726333089144794  1.0000
  C   C32       1.0  0.8395331106779417  0.4117860441552193  0.1461113774051621  1.0000
  C   C33       1.0  0.8388390885760028  0.6459604923761635  0.4035056398114112  1.0000
  C   C34       1.0  0.838812663211685  0.17153841976077544  0.4152391241665183  1.0000
  O   O2        1.0  0.8971872478079633  0.413952616163185  0.19981112898555176  1.0000
  O   O3        1.0  0.8960621462734492  0.40354404273891614  0.6189294478301528  1.0000
  O   O4        1.0  0.8966430913850413  0.5975457901789001  0.401606950230335  1.0000
  O   O5        1.0  0.8966062510149431  0.21995087713881076  0.4171335185080587  1.0000
  O   O6        1.0  0.7810438381681294  0.5975479549270963  0.40161102723717335  1.0000
  O   O7        1.0  0.7804628932523315  0.4035477675961347  0.6189334471727821  1.0000
  O   O8        1.0  0.7815879994950691  0.41395628166616216  0.19981339538503984  1.0000
  O   O9        1.0  0.7810070024085477  0.21995453422880254  0.4171358929789373  1.0000
