data_image0
_chemical_formula_structural       NC8NH4C12H10C6H6Zn2C4O8
_chemical_formula_sum              "N2 C30 H20 Zn2 O8"
_cell_length_a       13.859017981522156
_cell_length_b       13.024581838241813
_cell_length_c       10.681121600428288
_cell_angle_alpha    84.14087780974744
_cell_angle_beta     89.99986217780584
_cell_angle_gamma    93.73320105978404

_space_group_name_H-M_alt    "P 1"
_space_group_IT_number       1

loop_
  _space_group_symop_operation_xyz
  'x, y, z'

loop_
  _atom_site_type_symbol
  _atom_site_label
  _atom_site_symmetry_multiplicity
  _atom_site_fract_x
  _atom_site_fract_y
  _atom_site_fract_z
  _atom_site_occupancy
  N   N1        1.0  0.9776680719196201  0.1288706005691386  0.5842400973561375  1.0000
  C   C1        1.0  0.9050058778763065  0.12384185150975591  0.5311261273799559  1.0000
  C   C2        1.0  0.8146184398246946  0.11758701205828957  0.4650592517460886  1.0000
  C   C3        1.0  0.8136898443532182  0.10538945572412838  0.33622561266644846  1.0000
  C   C4        1.0  0.7258856762494107  0.09931580963022224  0.27206616715009635  1.0000
  C   C5        1.0  0.6388246437851667  0.10539068768439863  0.33622535938574316  1.0000
  C   C6        1.0  0.6393882455327737  0.11758770821486753  0.46505907084734166  1.0000
  C   C7        1.0  0.727376408901651  0.12368509516341517  0.5294662487698423  1.0000
  C   C8        1.0  0.549766100664613  0.12384249794585454  0.5311258987947303  1.0000
  N   N2        1.0  0.4777191699745175  0.12887082479676515  0.5842400091987798  1.0000
  H   H1        1.0  0.880691713589201  0.10058961592806304  0.28553094173138205  1.0000
  H   H2        1.0  0.725309295301576  0.08989390738543702  0.1725477188361617  1.0000
  H   H3        1.0  0.5712355794428154  0.10059183167059005  0.28553050932341884  1.0000
  H   H4        1.0  0.7279539438829482  0.1331259915879448  0.6291870295997974  1.0000
  C   C9        1.0  0.20915509473303495  0.8259648080113314  0.5934863747503742  1.0000
  C   C10       1.0  0.16629176361213843  0.76346192993824  0.5061395128155686  1.0000
  C   C11       1.0  0.19819537553773245  0.6651696848300133  0.49496827305246116  1.0000
  C   C12       1.0  0.27296222615492693  0.6273397174943183  0.571496157564851  1.0000
  C   C13       1.0  0.3165402763855858  0.6898811305228482  0.6577996130630321  1.0000
  C   C14       1.0  0.2847067648406798  0.7882046970033143  0.6690522287584766  1.0000
  C   C15       1.0  0.3078634752972711  0.5239056441610015  0.5582867119671859  1.0000
  C   C16       1.0  0.4048514083088146  0.5182384167138316  0.5224927200601477  1.0000
  C   C17       1.0  0.4403876074290495  0.4238137280633388  0.5008355595362135  1.0000
  C   C18       1.0  0.37963669593852273  0.3338130109867773  0.5143215404364916  1.0000
  C   C19       1.0  0.283385315608748  0.3376040997706651  0.5510403548817777  1.0000
  C   C20       1.0  0.24624092205945036  0.4317687023089887  0.5750048238736771  1.0000
  H   H5        1.0  0.19619615816476665  0.06281241734172946  0.7015003521713368  1.0000
  H   H6        1.0  0.10823461267453975  0.7905468536840881  0.4462045339303484  1.0000
  H   H7        1.0  0.16471093724492453  0.6185186573873466  0.42649902099521375  1.0000
  H   H8        1.0  0.37483830474675606  0.6622054660747344  0.7169558010115704  1.0000
  H   H9        1.0  0.31935197579997254  0.8345855468511906  0.7369021770411752  1.0000
  H   H10       1.0  0.4527615115998513  0.5876466459184303  0.5091092612230999  1.0000
  H   H11       1.0  0.5150429352424757  0.4205695080707185  0.47259233930100547  1.0000
  H   H12       1.0  0.407334694415069  0.260693879061544  0.49707764655365905  1.0000
  H   H13       1.0  0.2383326945284414  0.2661200330729185  0.5629603434800245  1.0000
  H   H14       1.0  0.00965394641009353  0.3467124956570573  0.6269532460212084  1.0000
  C   C21       1.0  0.227698019620308  0.12886673894212186  0.2165003576472566  1.0000
  C   C22       1.0  0.155123482062121  0.0714989452137651  0.1568280272942848  1.0000
  C   C23       1.0  0.1551234258683718  0.07149901135386516  0.02594588532362985  1.0000
  C   C24       1.0  0.2276979468628615  0.12886678950567454  0.9519907917810442  1.0000
  C   C25       1.0  0.30021257180273  0.18618704251338822  0.01166399214389413  1.0000
  C   C26       1.0  0.30021255847861505  0.18618702651866914  0.14255629129490122  1.0000
  H   H15       1.0  0.3010901493667164  0.18688134129881528  0.5079882101531319  1.0000
  H   H16       1.0  0.09823613319323621  0.02653135716617872  0.21123671837647162  1.0000
  H   H17       1.0  0.09823611601400443  0.02653140572021861  0.9827326876696789  1.0000
  H   H18       1.0  0.3571073527077233  0.23116055613133124  0.9572994556540868  1.0000
  H   H19       1.0  0.3571073018793501  0.23116051997175768  0.1857238242416388  1.0000
  H   H20       1.0  0.30109042851121837  0.18688098192310854  0.6460591954033141  1.0000
  Zn  Zn1       1.0  0.12197185449106573  0.1288679108201396  0.5842473843591338  1.0000
  Zn  Zn2       1.0  0.3334148748962904  0.12886509850082217  0.5842432251972642  1.0000
  C   C27       1.0  0.2274442747835017  0.12475751750596298  0.8130927304054512  1.0000
  C   C28       1.0  0.22794484322899636  0.1329767932735737  0.35539796231326015  1.0000
  C   C29       1.0  0.23922593009247728  0.31725886670669246  0.5735079088959414  1.0000
  C   C30       1.0  0.21616303990332902  0.940474204788555  0.594982888396929  1.0000
  O   O1        1.0  0.3082689283029909  0.13435059772316954  0.4020118261901973  1.0000
  O   O2        1.0  0.3076005021019823  0.12338080041709398  0.7664753730693574  1.0000
  O   O3        1.0  0.31711325606914675  0.27882807442295343  0.5730089018990168  1.0000
  O   O4        1.0  0.29875610263636676  0.978903331097114  0.5954782032407056  1.0000
  O   O5        1.0  0.156630554595933  0.2788296782259308  0.5730124063104909  1.0000
  O   O6        1.0  0.1471178764904033  0.12338364350644258  0.76647877290147  1.0000
  O   O7        1.0  0.14778630055520695  0.13435340486747727  0.4020137214963186  1.0000
  O   O8        1.0  0.13827347443298543  0.9789061308637007  0.5954801926614577  1.0000
