data_image0
_chemical_formula_structural       NC10NC2NH7C10IC2H9C6OCH8Zn2C4O8
_chemical_formula_sum              "N3 C35 H24 I1 O9 Zn2"
_cell_length_a       18.145345255705053
_cell_length_b       10.299770258652044
_cell_length_c       10.300312196595934
_cell_angle_alpha    85.55987726118238
_cell_angle_beta     90.5467156286432
_cell_angle_gamma    91.04748074238529

_space_group_name_H-M_alt    "P 1"
_space_group_IT_number       1

loop_
  _space_group_symop_operation_xyz
  'x, y, z'

loop_
  _atom_site_type_symbol
  _atom_site_label
  _atom_site_symmetry_multiplicity
  _atom_site_fract_x
  _atom_site_fract_y
  _atom_site_fract_z
  _atom_site_occupancy
  N   N1        1.0  0.694258982120148  0.44256163081034333  0.5775504446083313  1.0000
  C   C1        1.0  0.6362678232897305  0.3995062170386641  0.5576143076773021  1.0000
  C   C2        1.0  0.5642077971050028  0.34603055656265136  0.5328528147838243  1.0000
  C   C3        1.0  0.5501874597211099  0.2290310861638645  0.48013337913146303  1.0000
  C   C4        1.0  0.4744261816994086  0.21524233650365976  0.474246528980453  1.0000
  C   C5        1.0  0.44560143367727917  0.3250649219982493  0.5236495412102157  1.0000
  C   C6        1.0  0.36609887992757395  0.3528078628465834  0.5364401000834976  1.0000
  C   C7        1.0  0.3129606158256495  0.2513086105668405  0.5394209819945623  1.0000
  C   C8        1.0  0.2381239739591234  0.27763234918239443  0.5515333138911981  1.0000
  C   C9        1.0  0.215287307281783  0.40557291267601014  0.5606435615890963  1.0000
  C   C10       1.0  0.1382196457897976  0.43255489149409176  0.5730389648707328  1.0000
  N   N2        1.0  0.0762635822865789  0.45424626402617535  0.5830038680401748  1.0000
  C   C11       1.0  0.2675931538322711  0.5072181158365052  0.5575705363328116  1.0000
  C   C12       1.0  0.3424764785405188  0.4811609620141952  0.5455711663956431  1.0000
  N   N3        1.0  0.5010008677725162  0.40447299349592153  0.5592432715504754  1.0000
  H   H1        1.0  0.5902759496186287  0.1614453897803707  0.4493688845852266  1.0000
  H   H2        1.0  0.44425652850523795  0.13457454699124272  0.43658207145461314  1.0000
  H   H3        1.0  0.32905236526164783  0.15126061805144933  0.5340409482474957  1.0000
  H   H4        1.0  0.19810545728823356  0.19811747377998268  0.5540689593907071  1.0000
  H   H5        1.0  0.2504968059246554  0.6067367397217538  0.5640731471385503  1.0000
  H   H6        1.0  0.3814765044515552  0.5620131986788075  0.54160404393065  1.0000
  H   H7        1.0  0.4965867310273538  0.4929644547521381  0.6013937193684143  1.0000
  C   C13       1.0  0.8851953471649917  0.06703664572925971  0.5802731317824723  1.0000
  C   C14       1.0  0.8906583013544199  0.0767698251903717  0.4439648397186473  1.0000
  C   C15       1.0  0.8934970604490816  0.9645645805917521  0.3749064896547851  1.0000
  C   C16       1.0  0.8907987316313233  0.8414863251983521  0.4439844594334868  1.0000
  C   C17       1.0  0.8853342641628643  0.8297613865497349  0.5802925618968984  1.0000
  C   C18       1.0  0.8825635768283039  0.943094500822304  0.6476736564200938  1.0000
  C   C19       1.0  0.8992768463544065  0.9759148205067685  0.23070551566508662  1.0000
  C   C20       1.0  0.9464402909783514  0.894523722519985  0.16743657366221232  1.0000
  C   C21       1.0  0.9518060663280432  0.9054163244379385  0.03170234362854308  1.0000
  C   C22       1.0  0.9102226736281821  0.9974099219050602  0.9575958650205956  1.0000
  I   I1        1.0  0.9184278970295588  0.013523372935161152  0.7528592494778032  1.0000
  C   C23       1.0  0.863194445172829  0.07871092548008818  0.01934806660762712  1.0000
  C   C24       1.0  0.8576809643683928  0.06823915357325494  0.1550616596284009  1.0000
  H   H8        1.0  0.8830802296640465  0.3907805558614805  0.6322082904607108  1.0000
  H   H9        1.0  0.8937353305657973  0.1718753538100377  0.3913213700487475  1.0000
  H   H10       1.0  0.8919527725152028  0.7546892980865063  0.3910729496837171  1.0000
  H   H11       1.0  0.8783484882276726  0.9348175467291346  0.7528291684251873  1.0000
  H   H12       1.0  0.883284772306439  0.49784072781298544  0.6322367229514296  1.0000
  H   H13       1.0  0.9798568978990064  0.8236772589898196  0.22298846544076148  1.0000
  H   H14       1.0  0.9884385167144264  0.8425310495527052  0.984231658642654  1.0000
  H   H15       1.0  0.8307530006581825  0.14982647418463002  0.9622470411608437  1.0000
  H   H16       1.0  0.8202075408998564  0.1311191879144098  0.20073008504965764  1.0000
  C   C25       1.0  0.8852439911429597  0.448412598375686  0.19894042129036585  1.0000
  C   C26       1.0  0.8130455642386574  0.4956104156087116  0.19301878593275257  1.0000
  C   C27       1.0  0.776716950890404  0.519359381816402  0.07245980375333862  1.0000
  C   C28       1.0  0.8131307491869305  0.4955548191924324  0.9578783281379883  1.0000
  C   C29       1.0  0.8852856398122936  0.4483854682948328  0.961625264066262  1.0000
  C   C30       1.0  0.9209668310745397  0.4250596853840507  0.08269627969864524  1.0000
  O   O1        1.0  0.7046506445412314  0.5664710538168616  0.06224723112754617  1.0000
  C   C31       1.0  0.6608702600673433  0.5950916410119214  0.17007437018411742  1.0000
  H   H17       1.0  0.912753757227799  0.430429796134161  0.5286263617519902  1.0000
  H   H18       1.0  0.7853283494755798  0.5137297971481758  0.2821467256534782  1.0000
  H   H19       1.0  0.7845847914739538  0.5142161230446893  0.8656828375246572  1.0000
  H   H20       1.0  0.9766392438208349  0.38866535819647496  0.08645884628457767  1.0000
  H   H21       1.0  0.9125922414722181  0.43053494059440434  0.6356342175421208  1.0000
  H   H22       1.0  0.651903556077694  0.5058402272501963  0.23604847619615257  1.0000
  H   H23       1.0  0.606553078236796  0.6306000764288928  0.13371795439013656  1.0000
  H   H24       1.0  0.6881894663297943  0.6723458227782297  0.2237682598813238  1.0000
  Zn  Zn1       1.0  0.8044972615895779  0.4459300723163586  0.5791316904168018  1.0000
  Zn  Zn2       1.0  0.9660253009664904  0.45086714586749466  0.5814332815727852  1.0000
  C   C32       1.0  0.8852751708756297  0.44321688185159097  0.8174613297089633  1.0000
  C   C33       1.0  0.8852491558670286  0.4535820288533832  0.3431037949132123  1.0000
  C   C34       1.0  0.8853039366348773  0.6855902642855823  0.575114003578161  1.0000
  C   C35       1.0  0.8852203347091319  0.21120708443597103  0.5854511894527625  1.0000
  O   O2        1.0  0.9465499372967138  0.45718486490936977  0.39235978175441977  1.0000
  O   O3        1.0  0.946570433629747  0.4433601906795668  0.7699518234549698  1.0000
  O   O4        1.0  0.9465928360773469  0.6390797369198067  0.5742546312165799  1.0000
  O   O5        1.0  0.9465274797269124  0.26146532627808994  0.5880568758397671  1.0000
  O   O6        1.0  0.8239950277075635  0.6353318902223967  0.572508095357569  1.0000
  O   O7        1.0  0.8239726255370204  0.43961390428221003  0.7682052183949614  1.0000
  O   O8        1.0  0.8239521291595311  0.45343853331328376  0.3906116154017729  1.0000
  O   O9        1.0  0.8239296715903389  0.25771898538967664  0.5863088068479125  1.0000
