data_image0
_chemical_formula_structural       NC9NC5H8C6NCOC6H11C7OC3OC4H12Zn2C4O8
_chemical_formula_sum              "N3 C45 H31 O11 Zn2"
_cell_length_a       17.807436237873137
_cell_length_b       10.29965916528486
_cell_length_c       10.299374482448636
_cell_angle_alpha    85.5657401976444
_cell_angle_beta     89.37372472773511
_cell_angle_gamma    88.40731929758992

_space_group_name_H-M_alt    "P 1"
_space_group_IT_number       1

loop_
  _space_group_symop_operation_xyz
  'x, y, z'

loop_
  _atom_site_type_symbol
  _atom_site_label
  _atom_site_symmetry_multiplicity
  _atom_site_fract_x
  _atom_site_fract_y
  _atom_site_fract_z
  _atom_site_occupancy
  N   N1        1.0  0.707915616591021  0.3880394230664038  0.5575101088190331  1.0000
  C   C1        1.0  0.6473240171908309  0.3528533091532181  0.546474652799614  1.0000
  C   C2        1.0  0.5719547271209028  0.3090856583466519  0.5327477437456967  1.0000
  C   C3        1.0  0.5538701876782262  0.23769669862954254  0.42771820383809644  1.0000
  C   C4        1.0  0.4806904920448982  0.19509020848670278  0.414307593174325  1.0000
  C   C5        1.0  0.4245465579747995  0.223495167669578  0.5058939503861386  1.0000
  C   C6        1.0  0.34677541076937096  0.1783303361365267  0.49172405806927133  1.0000
  C   C7        1.0  0.28460845312009936  0.2600780361165944  0.5176897905771021  1.0000
  C   C8        1.0  0.2112864149905082  0.2172685111712367  0.5042927975261398  1.0000
  C   C9        1.0  0.1480697666307468  0.3017073957431964  0.5306232963899831  1.0000
  N   N2        1.0  0.0972565687645743  0.369590416871592  0.5517922891171578  1.0000
  C   C10       1.0  0.19954774966412475  0.09245332017669038  0.46490463982693503  1.0000
  C   C11       1.0  0.2608573366310428  0.01069177024176281  0.4389305129182542  1.0000
  C   C12       1.0  0.3340599115984573  0.05310681258310068  0.45212483507813445  1.0000
  C   C13       1.0  0.44332254728244863  0.2953784283968434  0.6111428845905493  1.0000
  C   C14       1.0  0.5165551098207515  0.3377945655001706  0.6243977782457808  1.0000
  H   H1        1.0  0.5962743529098697  0.21522847052583513  0.35599550545849246  1.0000
  H   H2        1.0  0.46778383961429826  0.14142846186739713  0.3313669085237061  1.0000
  H   H3        1.0  0.2931174918158565  0.3575332751272548  0.5465987081539347  1.0000
  H   H4        1.0  0.1430787767234611  0.05842075620612919  0.4542986041830652  1.0000
  H   H5        1.0  0.2516503150167354  0.9140568773052413  0.4088213949519782  1.0000
  H   H6        1.0  0.3806928593658961  0.9873681896420603  0.4330549481299968  1.0000
  H   H7        1.0  0.4016349320161262  0.3173073303254219  0.6841599628202071  1.0000
  H   H8        1.0  0.5299905137415982  0.3926770956141476  0.7062971796097097  1.0000
  C   C15       1.0  0.9025236206120841  0.9974572345591277  0.5545366573034199  1.0000
  C   C16       1.0  0.9030593105068353  0.006745090324283163  0.41770992282196495  1.0000
  C   C17       1.0  0.9044369599278889  0.8945354972673234  0.3488526494326627  1.0000
  C   C18       1.0  0.9032008033034705  0.7715480229044024  0.4180042354182159  1.0000
  C   C19       1.0  0.9026557239872822  0.7601622664608311  0.5547768830481061  1.0000
  C   C20       1.0  0.9025845662105938  0.8737122425588143  0.6222672120779169  1.0000
  N   N3        1.0  0.9038305546118435  0.9076700899154261  0.20879248101337702  1.0000
  C   C21       1.0  0.9390603711010042  0.8148906774100415  0.12854731837474012  1.0000
  O   O1        1.0  0.9908773175893919  0.7396055774294868  0.1747653731683967  1.0000
  C   C22       1.0  0.9172492749549911  0.8097602818294087  0.9904985029804513  1.0000
  C   C23       1.0  0.847790244199443  0.862919859690811  0.9451718262392799  1.0000
  C   C24       1.0  0.8276831830502939  0.8568901239141926  0.8149417582888537  1.0000
  C   C25       1.0  0.8763356098648224  0.7975179474928753  0.7287688602332656  1.0000
  C   C26       1.0  0.9451335612065325  0.7436024992169104  0.77272899758731  1.0000
  C   C27       1.0  0.9655274403664272  0.7492623362618821  0.9028503766399784  1.0000
  H   H9        1.0  0.9007960854013148  0.18723518911042958  0.8126462696218648  1.0000
  H   H10       1.0  0.9029827459046056  0.10137074841729254  0.36388694703296887  1.0000
  H   H11       1.0  0.9013448016544636  0.684857856932877  0.36522507363946627  1.0000
  H   H12       1.0  0.9021816551897359  0.8656864898713634  0.7277450364244884  1.0000
  H   H13       1.0  0.9014471552110712  0.4283929690934952  0.6072571941425433  1.0000
  H   H14       1.0  0.8824035115608669  0.9948292204125811  0.16316578988007913  1.0000
  H   H15       1.0  0.8084108410051649  0.9074674171675551  0.010233809720721741  1.0000
  H   H16       1.0  0.7741495168333306  0.8978683748571201  0.7809414924413254  1.0000
  H   H17       1.0  0.8606214556916076  0.7929291593853945  0.6280400889924183  1.0000
  H   H18       1.0  0.9827357774501686  0.6973437973740219  0.7059293584378025  1.0000
  H   H19       1.0  0.019249640895042674  0.7070895570340442  0.9346291205308961  1.0000
  C   C28       1.0  0.9026592881789502  0.37889395754178334  0.1732732509987409  1.0000
  C   C29       1.0  0.9811332615058569  0.3898394457833201  0.1697540816395242  1.0000
  C   C30       1.0  0.020618717926382375  0.3968358857677336  0.05069317942509821  1.0000
  C   C31       1.0  0.9809536784498742  0.38978408602748904  0.9345178479271063  1.0000
  C   C32       1.0  0.9025200583141939  0.37872556589041023  0.9360402675445385  1.0000
  C   C33       1.0  0.863805498762626  0.373686515398834  0.055917956447704587  1.0000
  C   C34       1.0  0.10356974789565299  0.4070309137191279  0.04694045087189713  1.0000
  O   O2        1.0  0.14041788436898694  0.3517440599692508  0.9605351746656638  1.0000
  C   C35       1.0  0.14471524758922816  0.4799608832537392  0.14112779678962162  1.0000
  C   C36       1.0  0.21800458703100623  0.4397710642704449  0.1782041083397472  1.0000
  C   C37       1.0  0.2581445797910251  0.5081314578764198  0.26584027057587445  1.0000
  O   O3        1.0  0.33082286606653755  0.46279635717226547  0.30005286830903466  1.0000
  C   C38       1.0  0.3779032442496438  0.5224347079564804  0.38777342819752697  1.0000
  C   C39       1.0  0.22458010272737525  0.6191059933018699  0.31628258018601807  1.0000
  C   C40       1.0  0.15216812785732436  0.660587420270601  0.2786832529096186  1.0000
  C   C41       1.0  0.1124616988230549  0.5919734783705494  0.19128168201236065  1.0000
  H   H20       1.0  0.7546973252961107  0.3562449239060934  0.38738777065787233  1.0000
  H   H21       1.0  0.01173133501241619  0.3914814649646118  0.25989698701658503  1.0000
  H   H22       1.0  0.011378928851398353  0.39419782469610887  0.8426792762831317  1.0000
  H   H23       1.0  0.8033077985832034  0.3652474922537208  0.05782726320087783  1.0000
  H   H24       1.0  0.8724600170886523  0.3733905584703112  0.6092507970340977  1.0000
  H   H25       1.0  0.2440435456193253  0.3542270747318401  0.13991642482407565  1.0000
  H   H26       1.0  0.4319711144334277  0.4665167346804666  0.3969211425634076  1.0000
  H   H27       1.0  0.35077492581157044  0.5219192919148883  0.4854059619023503  1.0000
  H   H28       1.0  0.38947078298468574  0.6238899465318958  0.3499743988690306  1.0000
  H   H29       1.0  0.2540293767522668  0.6741469476500568  0.38405896614313284  1.0000
  H   H30       1.0  0.1268348130648851  0.7465870111064271  0.31698965980012633  1.0000
  H   H31       1.0  0.0569136518357749  0.6273316454782503  0.16188367087770586  1.0000
  Zn  Zn1       1.0  0.8202710019967471  0.38271197155839703  0.5558675795534578  1.0000
  Zn  Zn2       1.0  0.9849011613792233  0.3749072801648043  0.5534454920693646  1.0000
  C   C42       1.0  0.9025438106575234  0.3735839605024744  0.7918593996055319  1.0000
  C   C43       1.0  0.9026301507352348  0.384036844536243  0.31745377355564885  1.0000
  C   C44       1.0  0.9026278410202614  0.6159961336549471  0.5495561806156231  1.0000
  C   C45       1.0  0.9025460639128258  0.14162311377570314  0.5597570621218568  1.0000
  O   O4        1.0  0.965096658469926  0.3827953391108623  0.36492290266905747  1.0000
  O   O5        1.0  0.96502778451008  0.36890090613767296  0.7425515879660242  1.0000
  O   O6        1.0  0.9650947976339806  0.5646518413075576  0.5468900371125669  1.0000
  O   O7        1.0  0.9650295891882867  0.1870444159156306  0.5605843569735365  1.0000
  O   O8        1.0  0.8401425180074917  0.5705748384723441  0.5487287154689946  1.0000
  O   O9        1.0  0.84007550516307  0.3748254635752991  0.7443901975658619  1.0000
  O   O10       1.0  0.8401443794500397  0.38871985163619643  0.36675995079337925  1.0000
  O   O11       1.0  0.840077310145947  0.1929689191310848  0.5624215024665451  1.0000
