data_image0
_chemical_formula_structural       NC8NC6H8C6BrH5C7F3H5Zn2C4O8
_chemical_formula_sum              "N2 C31 H18 Br1 F3 Zn2 O8"
_cell_length_a       17.457602349358154
_cell_length_b       10.302969083221269
_cell_length_c       9.272291681409872
_cell_angle_alpha    86.06047183095716
_cell_angle_beta     93.27365386630078
_cell_angle_gamma    91.68807063265206

_space_group_name_H-M_alt    "P 1"
_space_group_IT_number       1

loop_
  _space_group_symop_operation_xyz
  'x, y, z'

loop_
  _atom_site_type_symbol
  _atom_site_label
  _atom_site_symmetry_multiplicity
  _atom_site_fract_x
  _atom_site_fract_y
  _atom_site_fract_z
  _atom_site_occupancy
  N   N1        1.0  0.7166070532724649  0.4401039102391868  0.47474388343471263  1.0000
  C   C1        1.0  0.6554841533481927  0.3940988528200409  0.4629551989952794  1.0000
  C   C2        1.0  0.5794447232277563  0.3368743590714407  0.44830067183384936  1.0000
  C   C3        1.0  0.5212333511115899  0.3776915871605886  0.5314740321419269  1.0000
  C   C4        1.0  0.4466346064249632  0.3225901524358834  0.5175018340310398  1.0000
  C   C5        1.0  0.3848510681515288  0.3656892627172654  0.6055855770906144  1.0000
  C   C6        1.0  0.3100681977980997  0.3836540318012649  0.5436605748392496  1.0000
  C   C7        1.0  0.2518572801156541  0.42428835746996124  0.6269538170021993  1.0000
  C   C8        1.0  0.17562687004986452  0.44283901197206804  0.5625685602750148  1.0000
  N   N2        1.0  0.1143505375040657  0.4577473619118779  0.5108029816046685  1.0000
  C   C9        1.0  0.2679392240962594  0.44720551476456133  0.7727367667388176  1.0000
  C   C10       1.0  0.3419390322539949  0.4296330651865496  0.8350921940277161  1.0000
  C   C11       1.0  0.40014028386326034  0.3891828202137353  0.7523072482602384  1.0000
  C   C12       1.0  0.4315298100320681  0.2259815023014031  0.41876502807401206  1.0000
  C   C13       1.0  0.489731158362743  0.18544643350953405  0.33603586870899593  1.0000
  C   C14       1.0  0.5635474669042003  0.24066511522763046  0.35061878233465693  1.0000
  H   H1        1.0  0.533859630181691  0.45345615646417303  0.6054669771070889  1.0000
  H   H2        1.0  0.2972910347531537  0.36777813010597726  0.4303630822165998  1.0000
  H   H3        1.0  0.2233274730022526  0.4786033282094575  0.8380735606807408  1.0000
  H   H4        1.0  0.3542009031989887  0.4470627911084355  0.9479751831772117  1.0000
  H   H5        1.0  0.45682119883894273  0.374607332439439  0.8035081533460879  1.0000
  H   H6        1.0  0.3750000351485425  0.18056559947658782  0.40693623600421813  1.0000
  H   H7        1.0  0.47761361316559814  0.11078726970483732  0.2607121960049521  1.0000
  H   H8        1.0  0.6081614269602826  0.20840244723515555  0.28584958929769133  1.0000
  C   C15       1.0  0.9154824799829868  0.06767832223621431  0.49278004301567235  1.0000
  C   C16       1.0  0.995144163347898  0.06848947751045653  0.5242988445630212  1.0000
  C   C17       1.0  0.0346606453111813  0.951954002031058  0.5399336795733594  1.0000
  C   C18       1.0  0.9951442225637603  0.833407118385804  0.5242985763743835  1.0000
  C   C19       1.0  0.915482491418129  0.8301633393486864  0.4927799484731468  1.0000
  C   C20       1.0  0.8760363343365887  0.9479169110712944  0.47717281574147247  1.0000
  Br  Br1       1.0  0.14301424899292758  0.9547116712301599  0.5828050659301228  1.0000
  H   H9        1.0  0.8854985894956898  0.39467467239764575  0.48091601730929745  1.0000
  H   H10       1.0  0.02685597377438543  0.15929587772374254  0.5368460422021253  1.0000
  H   H11       1.0  0.02685606160572297  0.7442149423710203  0.5368454007476686  1.0000
  H   H12       1.0  0.8145981811901745  0.9463532237738457  0.45286449658801353  1.0000
  H   H13       1.0  0.8854983778305902  0.501640687556677  0.48091812848176274  1.0000
  C   C21       1.0  0.9138670696582023  0.44551662382542867  0.06927283927989959  1.0000
  C   C22       1.0  0.9654830603915415  0.3660989723691941  0.15417168755260424  1.0000
  C   C23       1.0  0.02126943995821829  0.2984997041220905  0.09043222355406  1.0000
  C   C24       1.0  0.027672704382248  0.3101024352427461  0.9401203971614409  1.0000
  C   C25       1.0  0.9745274909084058  0.38515116983258074  0.85391271383161  1.0000
  C   C26       1.0  0.9170978907439059  0.45232508901980584  0.9162871227579954  1.0000
  C   C27       1.0  0.08659385142145196  0.2340892101480037  0.8708768181983846  1.0000
  F   F1        1.0  0.15085546031321906  0.21501862665138582  0.9636218691762064  1.0000
  F   F2        1.0  0.10956499829391314  0.30007868587891395  0.7448869285663116  1.0000
  F   F3        1.0  0.054973666352955884  0.11438042876242169  0.8380511144264604  1.0000
  H   H14       1.0  0.8057906987033151  0.703069113573287  0.13956533095754442  1.0000
  H   H15       1.0  0.963711718957525  0.3582693513249686  0.27105778755474286  1.0000
  H   H16       1.0  0.059931208883750704  0.23788627091597572  0.15915061646147358  1.0000
  H   H17       1.0  0.9767156268986164  0.38871122395163704  0.7371232949063189  1.0000
  H   H18       1.0  0.7431714652576561  0.5689801490303712  0.7871767595121515  1.0000
  Zn  Zn1       1.0  0.831387262884073  0.4451920146122368  0.4851580872375047  1.0000
  Zn  Zn2       1.0  0.9995703586800129  0.45264870801782586  0.5004005851406474  1.0000
  C   C28       1.0  0.916485492831753  0.4458660076959747  0.7561831634676845  1.0000
  C   C29       1.0  0.9144739658264641  0.4519764355966842  0.2293758169083744  1.0000
  C   C30       1.0  0.915456618601352  0.6859910836944585  0.4870326292144831  1.0000
  C   C31       1.0  0.9155027829609876  0.21184979786593705  0.49852642284950016  1.0000
  O   O1        1.0  0.9785022540854927  0.45696851978702435  0.2888922872771771  1.0000
  O   O2        1.0  0.9801042812063365  0.44653239851666254  0.708234981167019  1.0000
  O   O3        1.0  0.9792725975871404  0.6404364080886731  0.4908939424944632  1.0000
  O   O4        1.0  0.9793338799027276  0.26306451608861803  0.5062332126147018  1.0000
  O   O5        1.0  0.8516236842686935  0.6347762039981935  0.47932545455434816  1.0000
  O   O6        1.0  0.8524553675911016  0.4408737536151952  0.6966664163298775  1.0000
  O   O7        1.0  0.8508533339074622  0.4513098157087223  0.27732198852156276  1.0000
  O   O8        1.0  0.8516849601339928  0.25740580359346077  0.4946630219850168  1.0000
