data_image0
_chemical_formula_structural       NC12NC2H8C7OC6H10C7OC3OC4H12Zn2C4O8
_chemical_formula_sum              "N2 C45 H30 O11 Zn2"
_cell_length_a       19.240039667572717
_cell_length_b       10.299379429549806
_cell_length_c       10.299374482448634
_cell_angle_alpha    85.52536088050722
_cell_angle_beta     89.98179719486372
_cell_angle_gamma    89.99618039744932

_space_group_name_H-M_alt    "P 1"
_space_group_IT_number       1

loop_
  _space_group_symop_operation_xyz
  'x, y, z'

loop_
  _atom_site_type_symbol
  _atom_site_label
  _atom_site_symmetry_multiplicity
  _atom_site_fract_x
  _atom_site_fract_y
  _atom_site_fract_z
  _atom_site_occupancy
  N   N1        1.0  0.6546701077569025  0.42170062448825685  0.5669014986154026  1.0000
  C   C1        1.0  0.5945217389505638  0.4217007084940743  0.5669014166461155  1.0000
  C   C2        1.0  0.5197037018285721  0.42170082581954094  0.5669012792954542  1.0000
  C   C3        1.0  0.48321469857954935  0.3572069758710056  0.6703395068937408  1.0000
  C   C4        1.0  0.4105439397123258  0.3570960673143203  0.6704260909949153  1.0000
  C   C5        1.0  0.37337146692666223  0.42170091844463653  0.5669010515733228  1.0000
  C   C6        1.0  0.4105746724884674  0.48630595652593894  0.463376206633833  1.0000
  C   C7        1.0  0.48324535017252435  0.4861948124264713  0.46346291332225925  1.0000
  C   C8        1.0  0.2961663765060639  0.4217008398015947  0.5669009561818902  1.0000
  C   C9        1.0  0.2589754822556647  0.3084232912722682  0.6088125927248909  1.0000
  C   C10       1.0  0.18630480559362791  0.3085302197149278  0.6087212268554714  1.0000
  C   C11       1.0  0.14983408957711056  0.4217007106064472  0.566901017139289  1.0000
  C   C12       1.0  0.0750160523839235  0.4217005967972898  0.566901265848432  1.0000
  N   N2        1.0  0.014867735497834999  0.42170055592141314  0.5669014742893208  1.0000
  C   C13       1.0  0.18631088442349908  0.53487127734276  0.5250807545040932  1.0000
  C   C14       1.0  0.2589815923847106  0.5349783859560213  0.5249892259716777  1.0000
  H   H1        1.0  0.51091761198424  0.30727427222500014  0.7511009895061121  1.0000
  H   H2        1.0  0.3834384622539743  0.3079612289927871  0.752302841865353  1.0000
  H   H3        1.0  0.3834936191663737  0.5354408219136921  0.38149940490376166  1.0000
  H   H4        1.0  0.5109722081875864  0.5361274157379343  0.3827017065499092  1.0000
  H   H5        1.0  0.2860666330884435  0.2192551274215242  0.6400123309444197  1.0000
  H   H6        1.0  0.15858763156596536  0.2202610419542012  0.6409536551931264  1.0000
  H   H7        1.0  0.1585982350017715  0.6231404305616819  0.49284834072592365  1.0000
  H   H8        1.0  0.2860769203739346  0.624146628998824  0.4937894429514849  1.0000
  C   C15       1.0  0.8347798169378711  0.040308661314299776  0.5670555404234225  1.0000
  C   C16       1.0  0.8768923089068341  0.030394701032918192  0.6788045014155766  1.0000
  C   C17       1.0  0.8974810053553985  0.9081549339606997  0.7360186429439433  1.0000
  C   C18       1.0  0.8768077575481564  0.7951726912282819  0.6785282107611142  1.0000
  C   C19       1.0  0.8347647027953614  0.8030825562224072  0.5667586239897282  1.0000
  C   C20       1.0  0.8138436149388306  0.9261243716003601  0.5118677459164096  1.0000
  C   C21       1.0  0.9425524039554295  0.8976035402808522  0.8532196296854637  1.0000
  O   O1        1.0  0.9866433444958335  0.806814298834096  0.8655761895832187  1.0000
  C   C22       1.0  0.9376015805244777  0.9899458359172958  0.9564074766462283  1.0000
  C   C23       1.0  0.9970395428908494  0.019394356737851167  0.02797225625719379  1.0000
  C   C24       1.0  0.99271807677658  0.10513161214280563  0.12646747105815695  1.0000
  C   C25       1.0  0.9290467470131408  0.1614187141965593  0.15522656912407232  1.0000
  C   C26       1.0  0.869501850091088  0.13166081638904978  0.0859059554818663  1.0000
  C   C27       1.0  0.8735442262870559  0.04600323375168158  0.9873230711767366  1.0000
  H   H9        1.0  0.7561882429740145  0.2664275099121094  0.3550178136359788  1.0000
  H   H10       1.0  0.8943682184594984  0.11797318394788237  0.7206427450317633  1.0000
  H   H11       1.0  0.8930706873532217  0.7008614293750939  0.7219667021730227  1.0000
  H   H12       1.0  0.7813783845611074  0.9329631951460464  0.42571711367423887  1.0000
  H   H13       1.0  0.8190974942626291  0.47871379781463413  0.5231897418730656  1.0000
  H   H14       1.0  0.04690312480656367  0.9769539756546579  0.006924290077226166  1.0000
  H   H15       1.0  0.03878073632214041  0.12788950758230633  0.18056513287051823  1.0000
  H   H16       1.0  0.9257964450432612  0.22767181949203819  0.23156983912546572  1.0000
  H   H17       1.0  0.8200851577303513  0.17453948874433078  0.10895380655919852  1.0000
  H   H18       1.0  0.8265211866539361  0.022559730196533012  0.9363852490641495  1.0000
  C   C28       1.0  0.8348366411873803  0.4217830997024637  0.18552451636595027  1.0000
  C   C29       1.0  0.9074339715492925  0.4364482819951337  0.18314742215160162  1.0000
  C   C30       1.0  0.9439622313131383  0.44531646869360153  0.06466012115051734  1.0000
  C   C31       1.0  0.9072678423022204  0.43638440745279694  0.9479085962923867  1.0000
  C   C32       1.0  0.8347078645890809  0.4216080962873237  0.9482896119182807  1.0000
  C   C33       1.0  0.798892438794801  0.41473399159551794  0.06760361138225623  1.0000
  C   C34       1.0  0.020701594702190677  0.45944329198854006  0.06211559663722288  1.0000
  O   O2        1.0  0.054801183634728634  0.40589809661694526  0.9762893020925892  1.0000
  C   C35       1.0  0.05875375161423956  0.5343290838941477  0.15685426408101621  1.0000
  C   C36       1.0  0.1265637852404422  0.49760907057017856  0.19503282805047342  1.0000
  C   C37       1.0  0.16368653174591416  0.5678772618602388  0.28320880883429217  1.0000
  O   O3        1.0  0.2309321830392643  0.5259825876430395  0.3185183425180189  1.0000
  C   C38       1.0  0.2744773185764289  0.587856918030037  0.4068865773277053  1.0000
  C   C39       1.0  0.13261475492838248  0.6772703155811988  0.3330808884744678  1.0000
  C   C40       1.0  0.06561617254293206  0.715323620184269  0.29439125111751535  1.0000
  C   C41       1.0  0.028894578230800324  0.6448224059171408  0.20645639352067094  1.0000
  H   H19       1.0  0.6979553973638688  0.39212045178829324  0.3974870854284816  1.0000
  H   H20       1.0  0.9357411345728847  0.4395404452954144  0.27373749415948656  1.0000
  H   H21       1.0  0.9354146208851873  0.44224032768379384  0.856512699955383  1.0000
  H   H22       1.0  0.7429252011511254  0.40342735602549107  0.0686324622397465  1.0000
  H   H23       1.0  0.8068991210068469  0.4148481386061782  0.6210634683640794  1.0000
  H   H24       1.0  0.15066883508045303  0.41329202246582813  0.15718713484321525  1.0000
  H   H25       1.0  0.3245076613951498  0.5344965758256257  0.41686602537809475  1.0000
  H   H26       1.0  0.24937995700658755  0.5860558781962395  0.5041219874352989  1.0000
  H   H27       1.0  0.2851606255921535  0.6898686512684225  0.3691853270041143  1.0000
  H   H28       1.0  0.15984950342436408  0.7337113535863589  0.40124986547140856  1.0000
  H   H29       1.0  0.04216385897005015  0.8001297466475525  0.33226568486454494  1.0000
  H   H30       1.0  0.9774985690230918  0.6775511116239032  0.17621949294438877  1.0000
  Zn  Zn1       1.0  0.7586153704019385  0.4216971355718673  0.5669089816390804  1.0000
  Zn  Zn2       1.0  0.9109224900445263  0.42169344828652866  0.5669045946687081  1.0000
  C   C42       1.0  0.8347307646709596  0.41646719477149285  0.8041127261707927  1.0000
  C   C43       1.0  0.8348087589105155  0.4269250277358858  0.32970097692223876  1.0000
  C   C44       1.0  0.8347648521355922  0.6589032332035141  0.5616393976066405  1.0000
  C   C45       1.0  0.8347746194933482  0.18448742889247718  0.5721743753363772  1.0000
  O   O4        1.0  0.8925991596251354  0.4286436403670193  0.3780862515262755  1.0000
  O   O5        1.0  0.8925379437007417  0.4147448038802362  0.7557237484797072  1.0000
  O   O6        1.0  0.8925646903631661  0.6105149706453163  0.5599248196219158  1.0000
  O   O7        1.0  0.8925723610068631  0.23287348291632018  0.5738850830037927  1.0000
  O   O8        1.0  0.7769654474646576  0.6105171009447494  0.5599284932986609  1.0000
  O   O9        1.0  0.7769387007798249  0.41474849459373037  0.7557273523011311  1.0000
  O   O10       1.0  0.7769999170149408  0.42864728618003944  0.3780882939087207  1.0000
  O   O11       1.0  0.7769731183775725  0.23287711941763312  0.5738872227611775  1.0000
