data_image0
_chemical_formula_structural       NC10NC5H10C12NCOCH13C13F3H9Zn2C4O8
_chemical_formula_sum              "N3 C46 H32 O9 F3 Zn2"
_cell_length_a       19.4436361288709
_cell_length_b       10.299155265289647
_cell_length_c       10.2985328690268
_cell_angle_alpha    85.56203192291568
_cell_angle_beta     89.71035499971406
_cell_angle_gamma    89.39615277754326

_space_group_name_H-M_alt    "P 1"
_space_group_IT_number       1

loop_
  _space_group_symop_operation_xyz
  'x, y, z'

loop_
  _atom_site_type_symbol
  _atom_site_label
  _atom_site_symmetry_multiplicity
  _atom_site_fract_x
  _atom_site_fract_y
  _atom_site_fract_z
  _atom_site_occupancy
  N   N1        1.0  0.647284846436043  0.40897195769706457  0.56160847762882  1.0000
  C   C1        1.0  0.5884484873786563  0.4188764829913752  0.575990914429269  1.0000
  C   C2        1.0  0.5151186810265436  0.43122876080881345  0.5939813175811883  1.0000
  C   C3        1.0  0.47293093488397697  0.3992170237321658  0.4993088633466915  1.0000
  C   C4        1.0  0.3970247066041858  0.4096567842199397  0.5046345689857092  1.0000
  C   C5        1.0  0.3573022265332529  0.38492114944547967  0.6117217809951303  1.0000
  C   C6        1.0  0.2811794578775553  0.38883635213257  0.5987603677134321  1.0000
  C   C7        1.0  0.24061490758792642  0.44651426447323794  0.6925228674741435  1.0000
  C   C8        1.0  0.1689496101978426  0.45015089890697607  0.681977191574938  1.0000
  C   C9        1.0  0.1368542201676997  0.3957136180636221  0.5779556698937345  1.0000
  C   C10       1.0  0.06305964856280191  0.3994114798484201  0.5672546838107403  1.0000
  N   N2        1.0  0.0037338181782132977  0.4023843667026317  0.5586518004491969  1.0000
  C   C11       1.0  0.1766940667740075  0.33732861347626164  0.4845766226005405  1.0000
  C   C12       1.0  0.24837577697003582  0.3336377179642758  0.4948705162402928  1.0000
  C   C13       1.0  0.38545760977800286  0.34447462972644655  0.7428372102792757  1.0000
  C   C14       1.0  0.4441174481327695  0.3876058822149373  0.7900718467480405  1.0000
  C   C15       1.0  0.48829663609673213  0.48546150002075916  0.7156726867322563  1.0000
  H   H1        1.0  0.49502615288304364  0.3700859278248659  0.4090028843166735  1.0000
  H   H2        1.0  0.3723115432651655  0.4321408660300675  0.41146310522388074  1.0000
  H   H3        1.0  0.2644852093076449  0.4898189474239687  0.7733658600129627  1.0000
  H   H4        1.0  0.1386033690633732  0.4954784160213952  0.7548915736580039  1.0000
  H   H5        1.0  0.1523518784939088  0.29421964629483055  0.4040680865578589  1.0000
  H   H6        1.0  0.2780569392805754  0.286066738332256  0.4226531173289265  1.0000
  H   H7        1.0  0.35451233014018513  0.28026128312207343  0.8071061206488224  1.0000
  H   H8        1.0  0.4592850135236207  0.3535490111397356  0.888022840799968  1.0000
  H   H9        1.0  0.4581662174044105  0.5761791022036907  0.6903947102025105  1.0000
  H   H10       1.0  0.5315832990195796  0.5110576497691612  0.7787556855430966  1.0000
  C   C16       1.0  0.8255894471259687  0.024279235706090807  0.5602482126491701  1.0000
  C   C17       1.0  0.8138335387056513  0.03416614671026231  0.4254111184296611  1.0000
  C   C18       1.0  0.8078064272129623  0.922042540283932  0.35692869167734087  1.0000
  C   C19       1.0  0.8136690688951227  0.7989093472826782  0.425104676352843  1.0000
  C   C20       1.0  0.8254358205663561  0.787067020479493  0.5600232768927464  1.0000
  C   C21       1.0  0.8313266290957847  0.9002702967210465  0.6267644043550009  1.0000
  C   C22       1.0  0.7953709446602023  0.9334753519261745  0.21428732044281973  1.0000
  C   C23       1.0  0.830247670567066  0.02692332570149759  0.13257474855529106  1.0000
  C   C24       1.0  0.8185507215210701  0.037551372803926945  0.9983396662950915  1.0000
  C   C25       1.0  0.772170820747729  0.9540536202837467  0.9429699197002676  1.0000
  C   C26       1.0  0.7364539581003289  0.8624374433792791  0.024621296041690277  1.0000
  C   C27       1.0  0.7481759556553744  0.8515529055053586  0.15881883246056214  1.0000
  N   N3        1.0  0.7582603249893529  0.9645206520341002  0.8055146438796785  1.0000
  C   C28       1.0  0.8084756653032884  0.0005069595418936047  0.706873539270418  1.0000
  O   O1        1.0  0.8715742676779609  0.0018814275146628104  0.7342105172606573  1.0000
  C   C29       1.0  0.7865266002603404  0.027328074950992112  0.5685060397979309  1.0000
  H   H11       1.0  0.830132621018572  0.34795209787952125  0.6121064548992888  1.0000
  H   H12       1.0  0.808389191509215  0.1293001617258822  0.37364302315588177  1.0000
  H   H13       1.0  0.8099665077490734  0.7121668086865335  0.3725032652813593  1.0000
  H   H14       1.0  0.8403965223079659  0.8919294076563168  0.730766608206801  1.0000
  H   H15       1.0  0.8480567884975485  0.5574242901718883  0.8145408343649528  1.0000
  H   H16       1.0  0.8669766409836053  0.09130195117312011  0.17236521166381635  1.0000
  H   H17       1.0  0.8449334701663936  0.11250597002642924  0.9385362367171806  1.0000
  H   H18       1.0  0.6996589369693961  0.798763893105641  0.9839642843477208  1.0000
  H   H19       1.0  0.7195831882729466  0.7802556882087457  0.21947359900484842  1.0000
  H   H20       1.0  0.709815452178119  0.9365403733760501  0.7748408663701349  1.0000
  H   H21       1.0  0.7368780189353784  0.08169030060468342  0.5644639081845669  1.0000
  H   H22       1.0  0.780159775123094  0.9338258951653723  0.5233316253494569  1.0000
  H   H23       1.0  0.8256782057559456  0.08668327038977242  0.5127821339569918  1.0000
  C   C30       1.0  0.825492878664012  0.4055515213051235  0.17873847015626707  1.0000
  C   C31       1.0  0.894468107223783  0.363382376617095  0.18039158055333093  1.0000
  C   C32       1.0  0.9294183483206788  0.34213363086488857  0.06405833359040547  1.0000
  C   C33       1.0  0.8945086600342174  0.3636372629320004  0.9450904918541476  1.0000
  C   C34       1.0  0.8255323620904077  0.4057947216801372  0.9415330445744541  1.0000
  C   C35       1.0  0.7914649667412982  0.426477459774081  0.05885082891483284  1.0000
  C   C36       1.0  0.0023415877269248324  0.2975629771607631  0.06674049942605764  1.0000
  C   C37       1.0  0.04982189889674759  0.3512900015116274  0.9747888104060989  1.0000
  C   C38       1.0  0.11845242309052308  0.3094451696328726  0.9773345441162132  1.0000
  C   C39       1.0  0.1408518312898297  0.2116278854890412  0.07064913877434864  1.0000
  C   C40       1.0  0.09376928272427622  0.15971269033869762  0.16417431595135734  1.0000
  C   C41       1.0  0.025143229033042447  0.2015904970253306  0.16173945633782916  1.0000
  C   C42       1.0  0.2154306109985502  0.1699600436681774  0.07632600622524865  1.0000
  F   F1        1.0  0.25068725917671575  0.24862891967229173  0.1554947244374001  1.0000
  F   F2        1.0  0.24471953519292078  0.1805927490072725  0.9532225413503691  1.0000
  F   F3        1.0  0.22182602025314754  0.04171121745397156  0.12619704401758036  1.0000
  H   H24       1.0  0.6952862779977755  0.4860516891698033  0.3828753061101031  1.0000
  H   H25       1.0  0.9214055410659834  0.3487239470961938  0.2722513467381099  1.0000
  H   H26       1.0  0.9209266549004995  0.34576621491871795  0.8552458396386129  1.0000
  H   H27       1.0  0.7383041708548745  0.4589728079684552  0.05684362331386095  1.0000
  H   H28       1.0  0.6950662929555493  0.48471603165848864  0.7275432566507893  1.0000
  H   H29       1.0  0.03413340914985241  0.42734982700763324  0.9021671860389788  1.0000
  H   H30       1.0  0.15410144662031813  0.35401598400750456  0.9065401512569982  1.0000
  H   H31       1.0  0.11000706544509442  0.08653446362516683  0.23923340468667215  1.0000
  H   H32       1.0  0.9897417395102458  0.1579692055452584  0.23355119008139513  1.0000
  Zn  Zn1       1.0  0.7501483223143987  0.40706745198882344  0.5607627581842162  1.0000
  Zn  Zn2       1.0  0.9008703365048804  0.4042782673000962  0.5595082049962254  1.0000
  C   C43       1.0  0.8255244085069157  0.4005746783111237  0.7973500672363629  1.0000
  C   C44       1.0  0.8254958958685736  0.41077264930890456  0.32292100923711925  1.0000
  C   C45       1.0  0.8254610320625551  0.6428822801818521  0.5548902801882348  1.0000
  C   C46       1.0  0.8255592211999503  0.16846348798687988  0.5653808664172345  1.0000
  O   O2        1.0  0.8826951285022485  0.41146076032275164  0.3708338917504927  1.0000
  O   O3        1.0  0.8827196973518128  0.3977686607372328  0.7484846342967552  1.0000
  O   O4        1.0  0.8826677490820465  0.5934351283450807  0.552696646832068  1.0000
  O   O5        1.0  0.8827470253338889  0.21579430292656987  0.5666217822586233  1.0000
  O   O6        1.0  0.7682715820513631  0.5955514173155732  0.5536491813431037  1.0000
  O   O7        1.0  0.768323530000087  0.3998865101122445  0.7494370990970894  1.0000
  O   O8        1.0  0.7682989611245503  0.4135785639395837  0.37178479504696205  1.0000
  O   O9        1.0  0.76835085796029  0.21791209728495933  0.5675727829329353  1.0000
