data_image0
_chemical_formula_structural       NC6NC2H4C6ClH5C10H5Zn2C4O8
_chemical_formula_sum              "N2 C28 H14 Cl1 Zn2 O8"
_cell_length_a       14.927258858638513
_cell_length_b       9.276545438789551
_cell_length_c       9.275153671780862
_cell_angle_alpha    85.73418776908572
_cell_angle_beta     89.40940071634567
_cell_angle_gamma    89.40960950127158

_space_group_name_H-M_alt    "P 1"
_space_group_IT_number       1

loop_
  _space_group_symop_operation_xyz
  'x, y, z'

loop_
  _atom_site_type_symbol
  _atom_site_label
  _atom_site_symmetry_multiplicity
  _atom_site_fract_x
  _atom_site_fract_y
  _atom_site_fract_z
  _atom_site_occupancy
  N   N1        1.0  0.8436703995146917  0.5739904601080708  0.41042484128705037  1.0000
  C   C1        1.0  0.7661439084616612  0.5739904316287271  0.4104248518617009  1.0000
  C   C2        1.0  0.6697114005002394  0.5739905465862811  0.41042480205657306  1.0000
  C   C3        1.0  0.6236244772621116  0.5499781298320485  0.2836927510685614  1.0000
  C   C4        1.0  0.5299131666115083  0.5499781551233678  0.28369261759154885  1.0000
  C   C5        1.0  0.48189533752636354  0.573990369104025  0.41042482058620466  1.0000
  C   C6        1.0  0.38546276257342427  0.5739904840645278  0.4104247707751527  1.0000
  N   N2        1.0  0.3079362715203944  0.5739904555851842  0.4104247813498034  1.0000
  C   C7        1.0  0.5279821937729745  0.5980027858612065  0.5371568715682923  1.0000
  C   C8        1.0  0.6216935044235773  0.598002760569887  0.5371570050453053  1.0000
  H   H1        1.0  0.6600718504978139  0.5312951154282373  0.18508794191197178  1.0000
  H   H2        1.0  0.4949681937528891  0.5312953129308506  0.18508793709161897  1.0000
  H   H3        1.0  0.4915348868969995  0.6166857902253379  0.6357617888314399  1.0000
  H   H4        1.0  0.6566384759497569  0.6166857003618993  0.6357617956593722  1.0000
  C   C9        1.0  0.07851285155358623  0.15055469720475065  0.4101871272293998  1.0000
  C   C10       1.0  0.0796979294257732  0.23386556556754587  0.27709836766293017  1.0000
  C   C11       1.0  0.07271435726574674  0.1684529875490932  0.1469063092349434  1.0000
  C   C12       1.0  0.06437347285352146  0.018864132622613994  0.1478000375056272  1.0000
  C   C13       1.0  0.0645860437007322  0.9340085971545602  0.27844595111220105  1.0000
  C   C14       1.0  0.07310242014334345  0.9974151736741631  0.4106749933200864  1.0000
  Cl  Cl1       1.0  0.07306664185806942  0.27465311197622144  0.9822905046105116  1.0000
  H   H5        1.0  0.12288873676382478  0.41409387933530795  0.6368849593425034  1.0000
  H   H6        1.0  0.08391373027775195  0.35057882497319603  0.27424356222518537  1.0000
  H   H7        1.0  0.05857878333641733  0.9678847606188712  0.04707568716774068  1.0000
  H   H8        1.0  0.06022323633460871  0.8177413462525495  0.27579449770554687  1.0000
  H   H9        1.0  0.04158964182783409  0.6992763140839511  0.6438367740269058  1.0000
  C   C15       1.0  0.0785259379450376  0.5729012262173021  0.9870008055033465  1.0000
  C   C16       1.0  0.10126574871938931  0.700334557878985  0.05081791936717517  1.0000
  C   C17       1.0  0.11562682690411302  0.8291251232228066  0.9658997179461086  1.0000
  C   C18       1.0  0.10733107448883206  0.8320864745425278  0.8159609048008556  1.0000
  C   C19       1.0  0.08631207852301721  0.7062614583551357  0.7505263144676926  1.0000
  C   C20       1.0  0.07308933710588894  0.5750685825435917  0.8338613314160841  1.0000
  C   C21       1.0  0.13787768321164084  0.9589304645958111  0.033083559598635175  1.0000
  C   C22       1.0  0.15650828744712958  0.06760563948956966  0.08935785101288785  1.0000
  C   C23       1.0  0.17832379545436916  0.1948594830303918  0.15526062543078936  1.0000
  C   C24       1.0  0.19695079805939386  0.303513879796613  0.21153225376677276  1.0000
  H   H10       1.0  0.10578410762728652  0.7004075631701248  0.16743335338098997  1.0000
  H   H11       1.0  0.11799014385564638  0.9314997597841088  0.7493114995562049  1.0000
  H   H12       1.0  0.08247388440349179  0.7107761921951596  0.6336972387978609  1.0000
  H   H13       1.0  0.08658430910282694  0.22045059478532503  0.7571582234231715  1.0000
  H   H14       1.0  0.21330682821457014  0.39892134877108887  0.260943666264982  1.0000
  Zn  Zn1       1.0  0.977647480657851  0.5739866163507742  0.4104331535140102  1.0000
  Zn  Zn2       1.0  0.17395920078363514  0.5739825186779804  0.41042829054743596  1.0000
  C   C25       1.0  0.0741516508731313  0.5689145626371532  0.673783225126759  1.0000
  C   C26       1.0  0.07745716175404138  0.579056392076349  0.14707836145444841  1.0000
  C   C27       1.0  0.07415736581360499  0.8373257783471121  0.40483682206957444  1.0000
  C   C28       1.0  0.07745139040067511  0.31064344415299705  0.4160248403902853  1.0000
  O   O1        1.0  0.1515977855918141  0.5811142762210737  0.2008000024638008  1.0000
  O   O2        1.0  0.1490070898812349  0.5668524796006233  0.6200574775339859  1.0000
  O   O3        1.0  0.14901069085687146  0.7835979346677105  0.40288135511347445  1.0000
  O   O4        1.0  0.1515941182564493  0.3643688311936659  0.41797601677775403  1.0000
  O   O5        1.0  1.2496193518844734e-05  0.7836003038380376  0.4028854272777682  1.0000
  O   O6        1.0  8.884639257633214e-06  0.5668565809872917  0.6200614738137037  1.0000
  O   O7        1.0  0.0025995918597609973  0.5811183229229838  0.20080226510636548  1.0000
  O   O8        1.0  0.0025959238926074294  0.36437286785884515  0.41797838752095307  1.0000
