data_image0
_chemical_formula_structural       NC12NC2H8C7OC6OCH11C6SCOC6H10Zn2C4O8
_chemical_formula_sum              "N2 C45 H29 O11 S1 Zn2"
_cell_length_a       17.80743265337812
_cell_length_b       10.299359160628079
_cell_length_c       10.302041481415108
_cell_angle_alpha    85.54689826212588
_cell_angle_beta     91.53022125456708
_cell_angle_gamma    89.45809633783337

_space_group_name_H-M_alt    "P 1"
_space_group_IT_number       1

loop_
  _space_group_symop_operation_xyz
  'x, y, z'

loop_
  _atom_site_type_symbol
  _atom_site_label
  _atom_site_symmetry_multiplicity
  _atom_site_fract_x
  _atom_site_fract_y
  _atom_site_fract_z
  _atom_site_occupancy
  N   N1        1.0  0.7077894690422124  0.4071465766673812  0.6018417608637325  1.0000
  C   C1        1.0  0.6569785455463863  0.4367273061819825  0.5331628681758114  1.0000
  C   C2        1.0  0.5937647411793965  0.4735235853653388  0.447734971382733  1.0000
  C   C3        1.0  0.6055076992346051  0.527584678844093  0.32115173553046694  1.0000
  C   C4        1.0  0.544200829300841  0.5628765935369004  0.2381190664767068  1.0000
  C   C5        1.0  0.47099677888123115  0.544371089468594  0.2810099190582518  1.0000
  C   C6        1.0  0.4582770061166354  0.49019104531583735  0.4080611731482089  1.0000
  C   C7        1.0  0.520441193388596  0.4549023897142459  0.49107733477326626  1.0000
  C   C8        1.0  0.3805044062740375  0.4705705038468768  0.4538115082803567  1.0000
  C   C9        1.0  0.361721254606894  0.4977181019807637  0.5808300559652959  1.0000
  C   C10       1.0  0.288487266636677  0.4792541595224178  0.6237614676081544  1.0000
  C   C11       1.0  0.2330933799319782  0.43338808287049346  0.5405120719477436  1.0000
  C   C12       1.0  0.15772262231056988  0.41437087041934867  0.5848440126349361  1.0000
  N   N2        1.0  0.0971298706139636  0.399082310627624  0.6204838432021595  1.0000
  C   C13       1.0  0.2511849852208318  0.40607140098604183  0.41403634545659135  1.0000
  C   C14       1.0  0.3243661282818461  0.4245502082702599  0.3708491080503453  1.0000
  H   H1        1.0  0.6619776776540582  0.5424193836767932  0.2867246958462051  1.0000
  H   H2        1.0  0.5534111223244546  0.6050047131362826  0.14036826478589237  1.0000
  H   H3        1.0  0.4243659423838331  0.574027469413797  0.21543826247326092  1.0000
  H   H4        1.0  0.5119289734586  0.41138897165002847  0.5887035356852126  1.0000
  H   H5        1.0  0.40340434747556253  0.5348778871509442  0.6463929143661031  1.0000
  H   H6        1.0  0.2750462642776861  0.5010699011017319  0.7217505520348522  1.0000
  H   H7        1.0  0.2087852890409475  0.37017879626934613  0.3488865142320017  1.0000
  H   H8        1.0  0.3372783811080606  0.4011987943970819  0.27316308488161023  1.0000
  C   C15       1.0  0.9023748622585445  0.02173793093161991  0.6111272401947949  1.0000
  C   C16       1.0  0.8402400447065497  0.028334561320832563  0.5237737999730645  1.0000
  C   C17       1.0  0.8094395318471738  0.9146663366796443  0.47864800640704647  1.0000
  C   C18       1.0  0.8404189840192308  0.7930692551072869  0.524037417830961  1.0000
  C   C19       1.0  0.9025516740842544  0.7844807907213791  0.6112099361937711  1.0000
  C   C20       1.0  0.9332755518243548  0.8994069405184658  0.6540470401316805  1.0000
  C   C21       1.0  0.7433094773721783  0.9237786273822244  0.3875675137167822  1.0000
  O   O1        1.0  0.6955678837274674  0.01363622359630634  0.39684557660074016  1.0000
  C   C22       1.0  0.7313376090386547  0.8310230745433692  0.2859690598635527  1.0000
  C   C23       1.0  0.7924454452060145  0.7764303456683999  0.22485391767266383  1.0000
  C   C24       1.0  0.7803740215231116  0.6903264543186732  0.12821529430038225  1.0000
  C   C25       1.0  0.7073927289241397  0.6579355972268718  0.08996582978247769  1.0000
  C   C26       1.0  0.6460320716703826  0.7135687851373684  0.14975739677948652  1.0000
  C   C27       1.0  0.658034797309943  0.7997329729456442  0.2464391420728691  1.0000
  O   O2        1.0  0.6982973114122423  0.5709299531129057  0.992653387309815  1.0000
  C   C28       1.0  0.627502443469783  0.5295671326650688  0.9444054608028689  1.0000
  H   H9        1.0  0.8160804337632789  0.12217425385960268  0.4896394965896518  1.0000
  H   H10       1.0  0.8154805360553877  0.7049589979284729  0.4923985893538301  1.0000
  H   H11       1.0  0.9812042979985416  0.8935139709369506  0.7212963307572173  1.0000
  H   H12       1.0  0.9261940802902745  0.4536845513510239  0.6450528684861323  1.0000
  H   H13       1.0  0.8495602637456303  0.8013274732410721  0.25071465963285067  1.0000
  H   H14       1.0  0.8280537947378654  0.6489076087109268  0.08232761086932427  1.0000
  H   H15       1.0  0.5888859195645534  0.6909498573555298  0.12225090137334214  1.0000
  H   H16       1.0  0.609935195859667  0.8411150785554854  0.2912561940360172  1.0000
  H   H17       1.0  0.6368832303462613  0.46100346395111896  0.8683966624267292  1.0000
  H   H18       1.0  0.594493071398366  0.6146135745740572  0.9003242782141135  1.0000
  H   H19       1.0  0.5959632364908505  0.4786232320177334  0.024413081593468666  1.0000
  C   C29       1.0  0.9024773791684719  0.4032383628644842  0.22988222590750285  1.0000
  C   C30       1.0  0.9369469353500163  0.5256256568308273  0.22063166624233485  1.0000
  C   C31       1.0  0.9544319647631819  0.5859909999399378  0.09908946400867415  1.0000
  C   C32       1.0  0.9370181418570381  0.5252203101262076  0.9855296244730507  1.0000
  C   C33       1.0  0.9024491712417295  0.4029803823358577  0.9924549410403243  1.0000
  C   C34       1.0  0.8854131547207965  0.34256718267717345  0.11521206528288185  1.0000
  S   S1        1.0  0.9991365143678731  0.7416015556214062  0.08872265898975251  1.0000
  C   C35       1.0  0.09166423036422255  0.669882757233015  0.09571460938918275  1.0000
  O   O3        1.0  0.12105958165439758  0.646100614491699  0.9900595713090258  1.0000
  C   C36       1.0  0.13306551116597065  0.6376818239468807  0.22121840777367985  1.0000
  C   C37       1.0  0.19969312478005996  0.5625767272820696  0.22459371208721013  1.0000
  C   C38       1.0  0.2388418127312737  0.530868397413258  0.3424172628176223  1.0000
  C   C39       1.0  0.2121602295940601  0.5737695408139427  0.458081410412618  1.0000
  C   C40       1.0  0.14634001771199467  0.6486990996326754  0.4561250167209896  1.0000
  C   C41       1.0  0.10696717967677705  0.680786215513024  0.33859017581673156  1.0000
  H   H20       1.0  0.8373957364346164  0.17267516296642982  0.4546208978595075  1.0000
  H   H21       1.0  0.9504539814940137  0.5742747950732523  0.3075974915152542  1.0000
  H   H22       1.0  0.9508435373192152  0.5735313166139403  0.8922249602637425  1.0000
  H   H23       1.0  0.8588413277611633  0.24821504682807635  0.12142311618464863  1.0000
  H   H24       1.0  0.8895111460788254  0.35633064551827703  0.6677716257162496  1.0000
  H   H25       1.0  0.22138586864240883  0.5276687196129966  0.13631038037604326  1.0000
  H   H26       1.0  0.2898958071840734  0.47282514662746444  0.3440092242632047  1.0000
  H   H27       1.0  0.24253364075045192  0.5490886990549455  0.5491954519317168  1.0000
  H   H28       1.0  0.12581350042221073  0.6821958819156602  0.5458180917707831  1.0000
  H   H29       1.0  0.056483518554770074  0.7397597318315021  0.34025287269889737  1.0000
  Zn  Zn1       1.0  0.8201447009780918  0.40481593380539954  0.6072289480710498  1.0000
  Zn  Zn2       1.0  0.9847746333364884  0.40140235623870435  0.6151072456043165  1.0000
  C   C42       1.0  0.9024516082884043  0.39785541656744183  0.8483117021746271  1.0000
  C   C43       1.0  0.902469524155038  0.4083644748093225  0.37402470514792796  1.0000
  C   C44       1.0  0.9025145704333594  0.6403080200138667  0.6060200350751785  1.0000
  C   C45       1.0  0.9024065054691472  0.16591031217091556  0.6163164386136173  1.0000
  O   O4        1.0  0.9649430879813418  0.4087837440558067  0.42539001018062467  1.0000
  O   O5        1.0  0.9649283536315237  0.39484434131723783  0.8029254688070232  1.0000
  O   O6        1.0  0.9649783541007816  0.5906279018382692  0.6072731932126578  1.0000
  O   O7        1.0  0.9648930313407975  0.2130001940229358  0.6210421857340829  1.0000
  O   O8        1.0  0.8400262467936668  0.5932180971874708  0.6012940052459776  1.0000
  O   O9        1.0  0.8399762466852292  0.3974360970247239  0.7969462117787964  1.0000
  O   O10       1.0  0.839990981132313  0.41137545503346895  0.41940919208726957  1.0000
  O   O11       1.0  0.8399409244829397  0.21559189567874015  0.6150614649863293  1.0000
