data_image0
_chemical_formula_structural       NC9NC5H8C7F3H5C12H10Zn2C4O8
_chemical_formula_sum              "N2 C37 H23 F3 Zn2 O8"
_cell_length_a       17.807436237873137
_cell_length_b       9.272718291674593
_cell_length_c       10.299141136925904
_cell_angle_alpha    85.97515333800408
_cell_angle_beta     89.41385425082623
_cell_angle_gamma    87.96869977406762

_space_group_name_H-M_alt    "P 1"
_space_group_IT_number       1

loop_
  _space_group_symop_operation_xyz
  'x, y, z'

loop_
  _atom_site_type_symbol
  _atom_site_label
  _atom_site_symmetry_multiplicity
  _atom_site_fract_x
  _atom_site_fract_y
  _atom_site_fract_z
  _atom_site_occupancy
  N   N1        1.0  0.7011345739277726  0.5414390011405297  0.5675947639760726  1.0000
  C   C1        1.0  0.640695509674539  0.5023685368915989  0.5563026739283268  1.0000
  C   C2        1.0  0.5655159565224224  0.4537691820363529  0.5422565404048612  1.0000
  C   C3        1.0  0.5477072832323316  0.3745066639699421  0.43670459287864594  1.0000
  C   C4        1.0  0.4747122713019318  0.3271966597043141  0.42298322580739195  1.0000
  C   C5        1.0  0.4184788262336717  0.35872998040762427  0.5147784826046351  1.0000
  C   C6        1.0  0.34090347091144346  0.308579204309396  0.5002791752177309  1.0000
  C   C7        1.0  0.2783822622639177  0.39935136428596024  0.5268411509398698  1.0000
  C   C8        1.0  0.2052458194505867  0.3518159044039477  0.5131319222358244  1.0000
  C   C9        1.0  0.14166305861884984  0.44557638353434176  0.5400782827849984  1.0000
  N   N2        1.0  0.0905555321001096  0.5209533216574873  0.561742385720406  1.0000
  C   C10       1.0  0.1940481413088862  0.21322183550729257  0.4728334053208147  1.0000
  C   C11       1.0  0.2557120376674323  0.12243429698017569  0.4462629340970657  1.0000
  C   C12       1.0  0.3287306953275437  0.16953173263734625  0.4597666130582005  1.0000
  C   C13       1.0  0.4369768327263168  0.4385413618021719  0.6205534310124803  1.0000
  C   C14       1.0  0.5100254977077976  0.4856400076955681  0.634117690710132  1.0000
  H   H1        1.0  0.5901825449426072  0.34956384783026917  0.36481667068  1.0000
  H   H2        1.0  0.46201135867311843  0.2676168631252067  0.33964977384063144  1.0000
  H   H3        1.0  0.2864681496730974  0.5075652650164979  0.5564608351298057  1.0000
  H   H4        1.0  0.137726730274036  0.17543226062510597  0.46197915061058015  1.0000
  H   H5        1.0  0.24692401826329968  0.015131434171834933  0.4154490024035764  1.0000
  H   H6        1.0  0.3756492557957143  0.0965357948148846  0.4402172860789979  1.0000
  H   H7        1.0  0.3952210542676133  0.4628851824050757  0.6937318299527793  1.0000
  H   H8        1.0  0.523249290371372  0.5465754826929516  0.7164187336083829  1.0000
  C   C15       1.0  0.8974844029172773  0.1077280422709941  0.561775049044581  1.0000
  C   C16       1.0  0.8516608939298735  0.1914757809975232  0.4727106960820271  1.0000
  C   C17       1.0  0.8005229012579358  0.1266559752540415  0.3939736259239872  1.0000
  C   C18       1.0  0.7971992426672956  0.9755400679088663  0.40161642510639717  1.0000
  C   C19       1.0  0.843078289467626  0.8908311108208353  0.48786962268350226  1.0000
  C   C20       1.0  0.8942129118305786  0.9546528308489336  0.567573233064006  1.0000
  C   C21       1.0  0.7533307651585495  0.21807529966196726  0.29666748616691874  1.0000
  F   F1        1.0  0.7340334313149414  0.35049676661259177  0.3441575292934691  1.0000
  F   F2        1.0  0.6877327999295264  0.15013309713896675  0.27051942772512794  1.0000
  F   F3        1.0  0.7938402386930539  0.24075755357225237  0.18229535568333732  1.0000
  H   H9        1.0  0.986767180418986  0.18164778400831746  0.8407162994365148  1.0000
  H   H10       1.0  0.8546588552504517  0.30828855539061806  0.466620973509942  1.0000
  H   H11       1.0  0.7596266840955097  0.922441062375468  0.33972794583826205  1.0000
  H   H12       1.0  0.8400118575651213  0.7742228543104318  0.4896630776965776  1.0000
  H   H13       1.0  0.0555563287976113  0.8302088134203601  0.7214621644893513  1.0000
  C   C22       1.0  0.8957627793039669  0.5313180025168638  0.18328324708408794  1.0000
  C   C23       1.0  0.974190728452771  0.5427196268879046  0.18039477941021564  1.0000
  C   C24       1.0  0.014045250757623192  0.5483696324180991  0.061794306534060706  1.0000
  C   C25       1.0  0.9744117160894362  0.5424641979402534  0.9451240984531197  1.0000
  C   C26       1.0  0.8959345710363347  0.5310628705289626  0.9460650228293531  1.0000
  C   C27       1.0  0.8570933295162786  0.5255575986362702  0.06558384562619701  1.0000
  C   C28       1.0  0.09701412285394229  0.560433220387506  0.05978337441832182  1.0000
  C   C29       1.0  0.14203788231183265  0.4792253355909188  0.9763480844998701  1.0000
  C   C30       1.0  0.2201257188285959  0.49075988937765813  0.9746945431592775  1.0000
  C   C31       1.0  0.25409325866908783  0.5832680522342946  0.055982375615187596  1.0000
  C   C32       1.0  0.21004164469898343  0.6644343604679398  0.13915843994448185  1.0000
  C   C33       1.0  0.13193272116249743  0.6532623896355472  0.14128456879782503  1.0000
  H   H14       1.0  0.8655900356732226  0.5270058089987966  0.5118655296337964  1.0000
  H   H15       1.0  0.004580509010633446  0.5452366826300821  0.2707184047515807  1.0000
  H   H16       1.0  0.004728690996788521  0.5487642173523506  0.8532962538412949  1.0000
  H   H17       1.0  0.7965998454906363  0.5167672822404161  0.06709590288991851  1.0000
  H   H18       1.0  0.7477606998348848  0.5104608248049984  0.740492667995551  1.0000
  H   H19       1.0  0.11696234772222658  0.405500110910702  0.9137040508567233  1.0000
  H   H20       1.0  0.25434190965986536  0.42761219735018097  0.9105351999680701  1.0000
  H   H21       1.0  0.3145465358972708  0.5920560570646858  0.05451968538292152  1.0000
  H   H22       1.0  0.23641427446362528  0.7363896108524846  0.20185163753673055  1.0000
  H   H23       1.0  0.09879171875434034  0.7185240589126345  0.20533836538451533  1.0000
  Zn  Zn1       1.0  0.8135130658623545  0.5355234262281041  0.5659133789120347  1.0000
  Zn  Zn2       1.0  0.9781770697787443  0.5268571382249752  0.5634343675366267  1.0000
  C   C34       1.0  0.8959225938177451  0.5253663921614355  0.801843605385528  1.0000
  C   C35       1.0  0.8957693329495257  0.5370158971189669  0.3275042539227351  1.0000
  C   C36       1.0  0.8948262706668396  0.794567957303054  0.5613018073134808  1.0000
  C   C37       1.0  0.8968656066201288  0.2678126023681908  0.5680461102221275  1.0000
  O   O1        1.0  0.9582606880468368  0.5356330602875841  0.3749653263253494  1.0000
  O   O2        1.0  0.9584074117452946  0.5201706291744194  0.7525006393941347  1.0000
  O   O3        1.0  0.9575212748567665  0.7375543414277949  0.5582614585252665  1.0000
  O   O4        1.0  0.9591467686849181  0.3182493613397588  0.5692044107304852  1.0000
  O   O5        1.0  0.83254331076443  0.7441312060722711  0.5601433365573203  1.0000
  O   O6        1.0  0.833429440941509  0.5267492263870042  0.7543824600379883  1.0000
  O   O7        1.0  0.8332827171355097  0.5422116077680694  0.3768455851338339  1.0000
  O   O8        1.0  0.8341687978322869  0.3248278984736448  0.5710847668418468  1.0000
