data_image0
_chemical_formula_structural       NC5N2C2NH4C6ClH5C10H5Zn2C4O8
_chemical_formula_sum              "N4 C27 H14 Cl1 Zn2 O8"
_cell_length_a       13.87973921873968
_cell_length_b       9.276545438789551
_cell_length_c       9.275153671780863
_cell_angle_alpha    85.73418776908572
_cell_angle_beta     89.40940373860386
_cell_angle_gamma    89.40960813042831

_space_group_name_H-M_alt    "P 1"
_space_group_IT_number       1

loop_
  _space_group_symop_operation_xyz
  'x, y, z'

loop_
  _atom_site_type_symbol
  _atom_site_label
  _atom_site_symmetry_multiplicity
  _atom_site_fract_x
  _atom_site_fract_y
  _atom_site_fract_z
  _atom_site_occupancy
  N   N1        1.0  0.9073431599088837  0.5739904220955212  0.4104249157361071  1.0000
  C   C1        1.0  0.8344562082719448  0.598377944168031  0.35378422026424716  1.0000
  C   C2        1.0  0.7439333131606863  0.6286696294616394  0.28343035556154517  1.0000
  C   C3        1.0  0.6571994663688926  0.598164827994897  0.35663212038271397  1.0000
  C   C4        1.0  0.5710539121774748  0.6286695649442477  0.2834303954383295  1.0000
  C   C5        1.0  0.4799790882452457  0.5983777992231482  0.3537841169222584  1.0000
  N   N2        1.0  0.40664772900727064  0.5739903974475632  0.4104249047250432  1.0000
  N   N3        1.0  0.5732466487298777  0.6869473997940951  0.14466777341372872  1.0000
  C   C6        1.0  0.658314789415273  0.7173883547691317  0.075510440580455  1.0000
  C   C7        1.0  0.6589600127308372  0.7775030515794482  0.9217513991338026  1.0000
  N   N4        1.0  0.7428495476386114  0.6869473531644009  0.14466778414045356  1.0000
  H   H1        1.0  0.6567578843556674  0.5515340492421799  0.4673671368250758  1.0000
  H   H2        1.0  0.7236490073375734  0.8453082342406278  0.8993886611839468  1.0000
  H   H3        1.0  0.6600794555631401  0.6873878606255976  0.8494567526671459  1.0000
  H   H4        1.0  0.5936442065240434  0.845306168839515  0.8993878937316545  1.0000
  C   C8        1.0  0.15990943773052346  0.15055464861110246  0.41018722240195093  1.0000
  C   C9        1.0  0.16118395477166447  0.23386551692050264  0.27709846294005797  1.0000
  C   C10       1.0  0.1536733245127686  0.16845293921670268  0.146906403895811  1.0000
  C   C11       1.0  0.1447029441090273  0.01886408466603152  0.14780013143046  1.0000
  C   C12       1.0  0.14493155791878487  0.9340085491884002  0.2784460450557922  1.0000
  C   C13       1.0  0.15409067493516623  0.9974151253242882  0.4106750880151989  1.0000
  Cl  Cl1       1.0  0.1540521964221886  0.2746530636279578  0.9822905993024666  1.0000
  H   H5        1.0  0.20763442124727738  0.41409382874225237  0.6368850584309711  1.0000
  H   H6        1.0  0.16571792688776776  0.35057877613620403  0.27424365787433347  1.0000
  H   H7        1.0  0.13847092281236373  0.9678847129233755  0.04707578058122563  1.0000
  H   H8        1.0  0.14023948454044952  0.817741298482961  0.2757945912641451  1.0000
  H   H9        1.0  0.12019959155621884  0.6992762671539209  0.6438368659411968  1.0000
  C   C14       1.0  0.1599235117667559  0.5729011776230639  0.987000900677053  1.0000
  C   C15       1.0  0.18437952181001394  0.7003345082601785  0.05081801654753894  1.0000
  C   C16       1.0  0.19982444682732  0.8291250729569449  0.9658998163937551  1.0000
  C   C17       1.0  0.19090260458343875  0.8320864246504407  0.8159610025164499  1.0000
  C   C18       1.0  0.16829728119090867  0.7062614094100843  0.7505264103284821  1.0000
  C   C19       1.0  0.1540766045060604  0.5750685341943056  0.8338614261100421  1.0000
  C   C20       1.0  0.2237546004564681  0.9589304133274119  0.033083660009792355  1.0000
  C   C21       1.0  0.24379127749025287  0.06760558738174673  0.0893579530680875  1.0000
  C   C22       1.0  0.2672532265899157  0.19485942993964533  0.15526072941108238  1.0000
  C   C23       1.0  0.2872860301741076  0.3035138258666059  0.2115323593907921  1.0000
  H   H10       1.0  0.18923888638112113  0.7004075133477384  0.16743345096007348  1.0000
  H   H11       1.0  0.20236612598532333  0.9314997094117649  0.749311598212401  1.0000
  H   H12       1.0  0.16416941421494613  0.7107761434230422  0.6336973343199507  1.0000
  H   H13       1.0  0.1685900573208412  0.22045054582800772  0.7571583193079827  1.0000
  H   H14       1.0  0.3048764684460912  0.39892129410414207  0.2609437733323268  1.0000
  Zn  Zn1       1.0  0.05143164307687242  0.5739865723017323  0.4104332397857735  1.0000
  Zn  Zn2       1.0  0.2625592310170677  0.573982465783886  0.4104283941425788  1.0000
  C   C24       1.0  0.1552190922962435  0.5689145142400038  0.67378331991446  1.0000
  C   C25       1.0  0.1587740738263801  0.5790563435302658  0.14707845653384233  1.0000
  C   C26       1.0  0.15522523854974635  0.8373257299497053  0.40483691685777934  1.0000
  C   C27       1.0  0.15876786690244016  0.3106433956071737  0.41602493546916874  1.0000
  O   O1        1.0  0.23851017449943623  0.5811142243344989  0.20080010408567683  1.0000
  O   O2        1.0  0.2357239560499666  0.5668524278307752  0.6200575789272478  1.0000
  O   O3        1.0  0.23572782879531218  0.7835978828977004  0.40288145650705465  1.0000
  O   O4        1.0  0.23850623038611893  0.36436877930725636  0.4179761183993067  1.0000
  O   O5        1.0  0.07548457166037847  0.7836002587813138  0.40288551552311525  1.0000
  O   O6        1.0  0.07548068753802717  0.5668565359307307  0.6200615620587322  1.0000
  O   O7        1.0  0.07826691836608801  0.5811182777496955  0.20080235358000875  1.0000
  O   O8        1.0  0.07826297357330002  0.36437282268572174  0.41797847599427274  1.0000
