data_image0
_chemical_formula_structural       NC14NH8C6H6C12H10Zn2C4O8
_chemical_formula_sum              "N2 C36 H24 Zn2 O8"
_cell_length_a       17.45760127107867
_cell_length_b       10.68111822825955
_cell_length_c       14.389300134226545
_cell_angle_alpha    83.1335448611894
_cell_angle_beta     86.9942696228219
_cell_angle_gamma    89.76106141281505

_space_group_name_H-M_alt    "P 1"
_space_group_IT_number       1

loop_
  _space_group_symop_operation_xyz
  'x, y, z'

loop_
  _atom_site_type_symbol
  _atom_site_label
  _atom_site_symmetry_multiplicity
  _atom_site_fract_x
  _atom_site_fract_y
  _atom_site_fract_z
  _atom_site_occupancy
  N   N1        1.0  0.7189707262267601  0.4325419087620664  0.9209459477460333  1.0000
  C   C1        1.0  0.6579753717535203  0.397756070633784  0.9468264302683953  1.0000
  C   C2        1.0  0.5820946483456695  0.35448355381165086  0.9790135114147727  1.0000
  C   C3        1.0  0.5233651008951351  0.3585253883767089  0.915977242645178  1.0000
  C   C4        1.0  0.4489183497988501  0.31680760583546386  0.946893678034664  1.0000
  C   C5        1.0  0.4344934227510997  0.2710476327489284  0.04201430144594487  1.0000
  C   C6        1.0  0.493210175956499  0.2670818434918838  0.10468707080822616  1.0000
  C   C7        1.0  0.5668709652312027  0.3086742265628782  0.07338447583263731  1.0000
  C   C8        1.0  0.3865862123580158  0.3209792124766842  0.8801897063324384  1.0000
  C   C9        1.0  0.31212402368411984  0.3591024684261384  0.9067488309238003  1.0000
  C   C10       1.0  0.2533945683543685  0.36294473133584715  0.8437233276347087  1.0000
  C   C11       1.0  0.26863373303501636  0.328666004515528  0.753723309203532  1.0000
  C   C12       1.0  0.34230979283414376  0.2907174666536596  0.7267618189065373  1.0000
  C   C13       1.0  0.4010265297126774  0.2868443802465486  0.7894295286574313  1.0000
  C   C14       1.0  0.1774977708402026  0.40247371398653664  0.8713913973387912  1.0000
  N   N2        1.0  0.11648966145749  0.4342496256172062  0.8936392348702256  1.0000
  H   H1        1.0  0.5354772167138353  0.3956814307621097  0.8432758374118496  1.0000
  H   H2        1.0  0.3780906666617759  0.23677803290449911  0.06766870197801134  1.0000
  H   H3        1.0  0.4816126140214901  0.23135718779490455  0.17765602267185646  1.0000
  H   H4        1.0  0.6118890559570982  0.3051207699877978  0.12267354686870113  1.0000
  H   H5        1.0  0.2999992351894666  0.3873880975870612  0.9758786318938797  1.0000
  H   H6        1.0  0.22361575129100864  0.3312746519742884  0.7044857902730448  1.0000
  H   H7        1.0  0.3539194581126667  0.2639063177689138  0.6572058163869589  1.0000
  H   H8        1.0  0.45744192044552023  0.2555599569889915  0.7673527227288939  1.0000
  C   C15       1.0  0.9177338784196163  0.06564554958505985  0.9072963378776904  1.0000
  C   C16       1.0  0.9516438567223929  0.9870356650671  0.9791013184337416  1.0000
  C   C17       1.0  0.9516438448586393  0.8561534292825965  0.9791012765700864  1.0000
  C   C18       1.0  0.9177338656704662  0.8011359511779128  0.90729637910689  1.0000
  C   C19       1.0  0.883851957821013  0.8797310507810874  0.8355507330199441  1.0000
  C   C20       1.0  0.8838519696310208  0.010623306762621132  0.8355507700954394  1.0000
  H   H9        1.0  0.8834415058955946  0.37628443252801125  0.834682460937427  1.0000
  H   H10       1.0  0.9782241429159099  0.026600164310170097  0.03538541903440874  1.0000
  H   H11       1.0  0.9782240485565891  0.7980961362526571  0.035385409026865045  1.0000
  H   H12       1.0  0.8572682058933397  0.840212513884547  0.7792592831225749  1.0000
  H   H13       1.0  0.8572681857629836  0.06863695326632004  0.7792592769149536  1.0000
  H   H14       1.0  0.8834417874937958  0.5143550972983763  0.8346821890766125  1.0000
  C   C21       1.0  0.9168563648547308  0.44907360405044083  0.6332314986984582  1.0000
  C   C22       1.0  0.9586153779945968  0.5234381427710604  0.5608198084985971  1.0000
  C   C23       1.0  0.9603022512358551  0.49249106365431805  0.4690592611110975  1.0000
  C   C24       1.0  0.9203216398803326  0.38648682010639723  0.4476979217526676  1.0000
  C   C25       1.0  0.8786236628813552  0.3121408153402807  0.520197864108731  1.0000
  C   C26       1.0  0.876884323150032  0.3431438964697738  0.6119496521562298  1.0000
  C   C27       1.0  0.9221368581096392  0.35354457658754695  0.35019160095896057  1.0000
  C   C28       1.0  0.9168663946622919  0.44829425635354797  0.2739140148049446  1.0000
  C   C29       1.0  0.9186113515808425  0.41770784326029065  0.18136123852651828  1.0000
  C   C30       1.0  0.9257262218250732  0.29075884958962583  0.16576393896817732  1.0000
  C   C31       1.0  0.9309441131480329  0.19632232429974053  0.24109074027054755  1.0000
  C   C32       1.0  0.9291509622952331  0.22719975161370476  0.3327347202086792  1.0000
  H   H15       1.0  0.8716550992627766  0.42853722214580636  0.8685402783541367  1.0000
  H   H16       1.0  0.9902078701995536  0.6054770572716534  0.5750431728962404  1.0000
  H   H17       1.0  0.9937778994192167  0.5506407277212406  0.41498300661743404  1.0000
  H   H18       1.0  0.8464608489669675  0.23081688819248214  0.5057454282989045  1.0000
  H   H19       1.0  0.8440245793648233  0.28417696951733135  0.6661367303528021  1.0000
  H   H20       1.0  0.9103500968846336  0.5457217959775643  0.2868042222347488  1.0000
  H   H21       1.0  0.9104939416989722  0.5538353133205002  0.9547343353795383  1.0000
  H   H22       1.0  0.9272756520261322  0.26426177824136743  0.09537424342252421  1.0000
  H   H23       1.0  0.9366158947404996  0.09877764267225064  0.22836703776177947  1.0000
  H   H24       1.0  0.9342798597995452  0.15241464229350643  0.38988713396054125  1.0000
  Zn  Zn1       1.0  0.8336861187836003  0.433031060949775  0.9130711994481869  1.0000
  Zn  Zn2       1.0  0.001774270267996141  0.43374979919084933  0.9015215930562626  1.0000
  C   C33       1.0  0.918277924154684  0.4186477308356385  0.07775308163883399  1.0000
  C   C34       1.0  0.9171843007075433  0.44813471201531596  0.7368396763461509  1.0000
  C   C35       1.0  0.9177180046213119  0.6623253832782647  0.903577585670778  1.0000
  C   C36       1.0  0.9177441630435366  0.2044555518969411  0.9110152260124644  1.0000
  O   O1        1.0  0.9810829364652071  0.4480869052738589  0.7672285118023452  1.0000
  O   O2        1.0  0.9819543052184352  0.41924011390909466  0.03859809351215804  1.0000
  O   O3        1.0  0.9815013063206814  0.6160128407730143  0.8979502072834951  1.0000
  O   O4        1.0  0.9815358777818085  0.25131419112744197  0.9078763319953107  1.0000
  O   O5        1.0  0.8539244539095354  0.6154666687695565  0.9067164644455434  1.0000
  O   O6        1.0  0.854377452644416  0.4186954493377594  0.04736430091235366  1.0000
  O   O7        1.0  0.8535060803495335  0.44754226127170127  0.7759935971226297  1.0000
  O   O8        1.0  0.8539590218870349  0.25076953416415604  0.9166414872876976  1.0000
