data_image0
_chemical_formula_structural       NC8NC6H8C7OC4NC3H8C7OC3FC3H8Zn2C4O8
_chemical_formula_sum              "N3 C45 H24 O10 F1 Zn2"
_cell_length_a       17.457602349358154
_cell_length_b       10.299371701877257
_cell_length_c       10.29938172300155
_cell_angle_alpha    85.59571719418345
_cell_angle_beta     92.85910674266745
_cell_angle_gamma    91.69730494660953

_space_group_name_H-M_alt    "P 1"
_space_group_IT_number       1

loop_
  _space_group_symop_operation_xyz
  'x, y, z'

loop_
  _atom_site_type_symbol
  _atom_site_label
  _atom_site_symmetry_multiplicity
  _atom_site_fract_x
  _atom_site_fract_y
  _atom_site_fract_z
  _atom_site_occupancy
  N   N1        1.0  0.7228102849210641  0.4524851350840165  0.6270454430576224  1.0000
  C   C1        1.0  0.6617293201830292  0.40655708247326244  0.6164135256297727  1.0000
  C   C2        1.0  0.5857420160011834  0.3494283018603676  0.6031969641929675  1.0000
  C   C3        1.0  0.5272049299179532  0.38960941189208353  0.6781077553333892  1.0000
  C   C4        1.0  0.452655827194394  0.3345990567201147  0.6655063768565852  1.0000
  C   C5        1.0  0.3905273320259399  0.3770244520214605  0.7448397002033538  1.0000
  C   C6        1.0  0.3159920511623526  0.39547864673674704  0.6890836617416668  1.0000
  C   C7        1.0  0.2574549246197245  0.43547585840653374  0.7641023393075814  1.0000
  C   C8        1.0  0.18148192722384454  0.45453534139594587  0.7061310911453215  1.0000
  N   N2        1.0  0.12041255312846172  0.4698527860440114  0.6595223563952022  1.0000
  C   C9        1.0  0.27296085571041595  0.4572621474902056  0.8953856514376289  1.0000
  C   C10       1.0  0.3467114078440733  0.4391970395834426  0.9515294204145615  1.0000
  C   C11       1.0  0.40523687090642674  0.39937999972713695  0.8769685209969662  1.0000
  C   C12       1.0  0.4379326277550707  0.23872980395301144  0.5765610690848741  1.0000
  C   C13       1.0  0.49645795727325936  0.1988274769159184  0.5020503741615763  1.0000
  C   C14       1.0  0.5702222130464495  0.25395034858439125  0.5152017336871457  1.0000
  H   H1        1.0  0.539545595927283  0.46482098112907067  0.7447641931470083  1.0000
  H   H2        1.0  0.3036627489895741  0.3804822497040575  0.587055478270196  1.0000
  H   H3        1.0  0.22809317009874192  0.48816004079523295  0.9542315505792258  1.0000
  H   H4        1.0  0.3585272259740639  0.4557510058139335  0.05318490430764411  1.0000
  H   H5        1.0  0.46171310289860906  0.3843999354515695  0.9230688951681211  1.0000
  H   H6        1.0  0.38144500916005575  0.19339141183930364  0.5658932454402326  1.0000
  H   H7        1.0  0.4846314213343854  0.12473206592068296  0.434196032061487  1.0000
  H   H8        1.0  0.615089764583711  0.22218288564745706  0.45686664146468736  1.0000
  C   C15       1.0  0.9215749778858618  0.07979688603925107  0.6431539317283846  1.0000
  C   C16       1.0  0.9253258309788528  0.0892664631293527  0.5067987438856771  1.0000
  C   C17       1.0  0.9263465263633658  0.9768356752077562  0.4378914142509769  1.0000
  C   C18       1.0  0.9253352673906964  0.8539986412127786  0.5071169028121465  1.0000
  C   C19       1.0  0.9216551911540045  0.8425313160255625  0.6434256892937007  1.0000
  C   C20       1.0  0.9195944902622599  0.9560239472070546  0.710623204600748  1.0000
  C   C21       1.0  0.9311128893617782  0.9867263473342879  0.2940342663208888  1.0000
  O   O1        1.0  0.9680472949550402  0.9025787195916491  0.24210660911564671  1.0000
  C   C22       1.0  0.8939665546929472  0.09199596953880818  0.20908989324294544  1.0000
  C   C23       1.0  0.9268448331481474  0.13804555071380076  0.09180810480708601  1.0000
  C   C24       1.0  0.891721364746391  0.2363942764122187  0.010150290975439624  1.0000
  C   C25       1.0  0.9260883840196169  0.28369237588825924  0.8908040098442678  1.0000
  N   N3        1.0  0.9537179352523362  0.3217103560403658  0.7948671885604014  1.0000
  C   C26       1.0  0.8231470084491602  0.2885876509340364  0.04471986922759186  1.0000
  C   C27       1.0  0.7896213842996311  0.24229871880516085  0.16020927377150307  1.0000
  C   C28       1.0  0.8245245757073043  0.14423784271768203  0.24183769762321128  1.0000
  H   H9        1.0  0.9283171702915639  0.18430725581276142  0.4541577459130932  1.0000
  H   H10       1.0  0.9266907363139107  0.7672066888469156  0.45421665057008326  1.0000
  H   H11       1.0  0.9167032763110454  0.9479197219464909  0.8157433702448853  1.0000
  H   H12       1.0  0.9208871986244267  0.5106938962810268  0.6958869492005231  1.0000
  H   H13       1.0  0.9800548918362707  0.09827054226072486  0.06457828282356637  1.0000
  H   H14       1.0  0.7955002113418234  0.36458074893519377  0.9822236040146364  1.0000
  H   H15       1.0  0.7362805217852356  0.28208390233571223  0.18627543335237418  1.0000
  H   H16       1.0  0.7967919870806356  0.10833976398565426  0.3297265843510999  1.0000
  C   C29       1.0  0.9216796589155171  0.4610657911335574  0.2619273850453032  1.0000
  C   C30       1.0  0.9459445174875967  0.33167098451524857  0.27272526688506477  1.0000
  C   C31       1.0  0.9590165717765166  0.26690046368834186  0.16103089164743567  1.0000
  C   C32       1.0  0.9458711701949636  0.33196091531743877  0.037453327645455614  1.0000
  C   C33       1.0  0.9215504811473345  0.46126239460823215  0.024652259439073673  1.0000
  C   C34       1.0  0.9097888486293221  0.5251790227785669  0.1375060449572043  1.0000
  C   C35       1.0  0.9838620379451022  0.12981702416782737  0.17225756871459552  1.0000
  O   O2        1.0  0.9602245343610877  0.055540271353137445  0.0861200869368468  1.0000
  C   C36       1.0  0.035528304383325215  0.0770006408477537  0.28110383387372084  1.0000
  C   C37       1.0  0.029334007760598583  0.9447689643989039  0.3258251360297715  1.0000
  C   C38       1.0  0.07838692443017403  0.8937044081802317  0.4273698411100477  1.0000
  F   F1        1.0  0.07157979459070109  0.7663396465822794  0.4704384383368731  1.0000
  C   C39       1.0  0.13442744420717667  0.9737760393537904  0.48444225295158433  1.0000
  C   C40       1.0  0.1417264493742858  0.10485052016786689  0.4397457079361506  1.0000
  C   C41       1.0  0.09282571140681006  0.15633349481510872  0.33828455214214115  1.0000
  H   H17       1.0  0.874761844508526  0.7045870314752678  0.448825822038335  1.0000
  H   H18       1.0  0.9538875029367838  0.28062737201946986  0.3681617860384152  1.0000
  H   H19       1.0  0.9553749943429138  0.28182646944084855  0.9511862351987634  1.0000
  H   H20       1.0  0.8910820906821518  0.624932459811218  0.12837759778794267  1.0000
  H   H21       1.0  0.986108352433306  0.88136444543352  0.2829000453897512  1.0000
  H   H22       1.0  0.1724244466301985  0.9342272744061586  0.562948275898312  1.0000
  H   H23       1.0  0.18555392026907458  0.16653358604393942  0.4833582722957969  1.0000
  H   H24       1.0  0.10037926759380472  0.2576225462763764  0.3036759220427392  1.0000
  Zn  Zn1       1.0  0.8375497092403513  0.4574935831896855  0.6364250758069849  1.0000
  Zn  Zn2       1.0  0.005673111639131312  0.4648336927674084  0.6501533521985923  1.0000
  C   C42       1.0  0.921572663322808  0.45605146316245637  0.8804789271592947  1.0000
  C   C43       1.0  0.9216519936097398  0.4662775316150358  0.40609977880676057  1.0000
  C   C44       1.0  0.9216369545244802  0.6983567819884975  0.6381989185808622  1.0000
  C   C45       1.0  0.9215876448634915  0.2239706499860925  0.6483798513822048  1.0000
  O   O3        1.0  0.9854446633124294  0.4708065068714367  0.45969515851057086  1.0000
  O   O4        1.0  0.9853817658903362  0.45709248140960934  0.8373026173972686  1.0000
  O   O5        1.0  0.9854328215392337  0.6527570535284493  0.6416597265483233  1.0000
  O   O6        1.0  0.985393550311868  0.2751419415131131  0.6553379473052838  1.0000
  O   O7        1.0  0.8578292131953497  0.647185331940574  0.631240476008676  1.0000
  O   O8        1.0  0.8577781577187639  0.45152232012122906  0.8268832981689926  1.0000
  O   O9        1.0  0.8578410554515092  0.4652362999263872  0.4492742778962104  1.0000
  O   O10       1.0  0.8577899424303467  0.26957172530413986  0.6449171640535383  1.0000
