data_image0
_chemical_formula_structural       NC10NC5H10C7OC3OC4H12C7OC3NC3H11Zn2C4O8
_chemical_formula_sum              "N3 C46 H33 O11 Zn2"
_cell_length_a       19.4436361288709
_cell_length_b       10.299371110280154
_cell_length_c       10.29874937815843
_cell_angle_alpha    85.57454226300094
_cell_angle_beta     89.71352480550038
_cell_angle_gamma    89.43124194409341

_space_group_name_H-M_alt    "P 1"
_space_group_IT_number       1

loop_
  _space_group_symop_operation_xyz
  'x, y, z'

loop_
  _atom_site_type_symbol
  _atom_site_label
  _atom_site_symmetry_multiplicity
  _atom_site_fract_x
  _atom_site_fract_y
  _atom_site_fract_z
  _atom_site_occupancy
  N   N1        1.0  0.6476949958617569  0.40943345580097223  0.5624544733764738  1.0000
  C   C1        1.0  0.588862286484055  0.4193315810698054  0.5768430773182123  1.0000
  C   C2        1.0  0.5155370334506143  0.43167585610181336  0.5948411722078164  1.0000
  C   C3        1.0  0.47333598347258493  0.3997037776399852  0.5001483525244887  1.0000
  C   C4        1.0  0.3974332943633558  0.41014066426823237  0.5054804701982951  1.0000
  C   C5        1.0  0.3577061746722143  0.38536470577179305  0.6125535655060772  1.0000
  C   C6        1.0  0.2815842651988791  0.3892847205208485  0.5995944224866125  1.0000
  C   C7        1.0  0.2410412815982357  0.44692142248233735  0.6933929258547762  1.0000
  C   C8        1.0  0.1693768289966098  0.4505619385362898  0.6828493721097229  1.0000
  C   C9        1.0  0.1372605981095031  0.3961696662953072  0.5787937301442871  1.0000
  C   C10       1.0  0.06346688621209752  0.39987146629568104  0.5680949021444632  1.0000
  N   N2        1.0  0.004141746991856005  0.4028475192103152  0.5594937537698879  1.0000
  C   C11       1.0  0.1770786616036864  0.3378257737276036  0.4853782516397134  1.0000
  C   C12       1.0  0.24875950160341412  0.33413109977021005  0.49566998778455185  1.0000
  C   C13       1.0  0.3858525948943142  0.34486957064739726  0.7436455165249665  1.0000
  C   C14       1.0  0.4445278447066635  0.387979015186142  0.7909068706883672  1.0000
  C   C15       1.0  0.488736316247813  0.48585664460690087  0.7165666957475745  1.0000
  H   H1        1.0  0.4954189648538522  0.370610406717135  0.40982380335147744  1.0000
  H   H2        1.0  0.3727244787600644  0.4326597581714285  0.4123218756284149  1.0000
  H   H3        1.0  0.2649281025146153  0.4901910516217057  0.7742630438437139  1.0000
  H   H4        1.0  0.1390475124135636  0.4958573731134618  0.7557920415285673  1.0000
  H   H5        1.0  0.1527200278181386  0.294751714103662  0.40484271246272807  1.0000
  H   H6        1.0  0.2784230364340786  0.2865920952013925  0.42342294016568033  1.0000
  H   H7        1.0  0.3548885826379316  0.2806356974903206  0.80787585941878  1.0000
  H   H8        1.0  0.45968747339721067  0.35388611136032205  0.888837983622274  1.0000
  H   H9        1.0  0.45863441239196534  0.5765774486321864  0.6913437943338816  1.0000
  H   H10       1.0  0.5320332219475187  0.5114260512148697  0.7796658651190082  1.0000
  C   C16       1.0  0.8258752809343208  0.024769897829909578  0.56085968395584  1.0000
  C   C17       1.0  0.8179394553187156  0.034216623217290465  0.42493099695715175  1.0000
  C   C18       1.0  0.8131599513861069  0.9218087098912714  0.35654698229713166  1.0000
  C   C19       1.0  0.8179736202522775  0.7989480821435091  0.4252418208800435  1.0000
  C   C20       1.0  0.8259680457434496  0.7875009823694346  0.5610997825200712  1.0000
  C   C21       1.0  0.8296925465714492  0.9010132740779259  0.6281617641805992  1.0000
  C   C22       1.0  0.8054975348207304  0.9316425235157818  0.21285356688892443  1.0000
  O   O1        1.0  0.8336861503843097  0.8460889430904135  0.14859201702903335  1.0000
  C   C23       1.0  0.7658489024089393  0.03845088712716005  0.14206708857445305  1.0000
  C   C24       1.0  0.7850631699945654  0.0832678614444733  0.014756059576854996  1.0000
  C   C25       1.0  0.7478556115076761  0.1829751360634488  0.9456794650956258  1.0000
  O   O2        1.0  0.7698041661660922  0.22438884888627622  0.8193905084191392  1.0000
  C   C26       1.0  0.7370126767541971  0.32448748588789433  0.7382222025696086  1.0000
  C   C27       1.0  0.6901648014621403  0.23789436421395485  0.004650822696581794  1.0000
  C   C28       1.0  0.6702442843770003  0.19280074349730492  0.1304505529735469  1.0000
  C   C29       1.0  0.7075738362982305  0.09337258636023574  0.19877390404149864  1.0000
  H   H11       1.0  0.8419005601095948  0.21426301967067346  0.8171374431455973  1.0000
  H   H12       1.0  0.816232046266058  0.12918760986042943  0.3719117593174359  1.0000
  H   H13       1.0  0.8148069971798917  0.7121512180914841  0.3725419933436789  1.0000
  H   H14       1.0  0.835810929327744  0.8929267315805404  0.7329528183736556  1.0000
  H   H15       1.0  0.8296112292176036  0.45564566541864543  0.6131600246105415  1.0000
  H   H16       1.0  0.8295292207322525  0.04155452988113218  0.9690107108867481  1.0000
  H   H17       1.0  0.7650617714556412  0.3370692632479433  0.6441117844923374  1.0000
  H   H18       1.0  0.738029843413213  0.41792094796371215  0.7852360964567286  1.0000
  H   H19       1.0  0.6831102729130482  0.29725195710187435  0.7189043208655872  1.0000
  H   H20       1.0  0.6602856009106475  0.31495046716805064  0.9540069795720836  1.0000
  H   H21       1.0  0.625518189418621  0.23468039987345016  0.1749762441129752  1.0000
  H   H22       1.0  0.6904243104303919  0.058532095848960575  0.29530175592117036  1.0000
  C   C30       1.0  0.8258899419045882  0.40616402520227224  0.17957894000848507  1.0000
  C   C31       1.0  0.8634731317077864  0.5223349820972487  0.16928399203363909  1.0000
  C   C32       1.0  0.8817874620928934  0.5818927052554357  0.046845458968239446  1.0000
  C   C33       1.0  0.8634758711160309  0.5223837931633695  0.9340399552887019  1.0000
  C   C34       1.0  0.8259533580907309  0.40610682085421534  0.9423805053247789  1.0000
  C   C35       1.0  0.8072405305783074  0.34891830211976793  0.06557181000973977  1.0000
  C   C36       1.0  0.9220327003125091  0.7039177066623652  0.03586981268109901  1.0000
  O   O3        1.0  0.9650108766054806  0.7214665108851841  0.9441717117467415  1.0000
  C   C37       1.0  0.9135229924856055  0.8060262828292657  0.12886237561964453  1.0000
  C   C38       1.0  0.8491809913480723  0.8297892318445919  0.18610820091356062  1.0000
  C   C39       1.0  0.8414993801884746  0.9274336995388711  0.2729030687078724  1.0000
  N   N3        1.0  0.776019632253407  0.9504952899901018  0.33112600158105465  1.0000
  C   C40       1.0  0.8982624532125901  0.002636417327489767  0.3018533440075848  1.0000
  C   C41       1.0  0.962062703374126  0.9808341394185551  0.24415330039094355  1.0000
  C   C42       1.0  0.9697047163557339  0.8835020755042419  0.1577356645565211  1.0000
  H   H23       1.0  0.7557876161378195  0.18562758014094902  0.40646385006403346  1.0000
  H   H24       1.0  0.8791858057769257  0.56589070151849  0.25671347784802045  1.0000
  H   H25       1.0  0.8779865870586497  0.5676378838074323  0.8395274905974643  1.0000
  H   H26       1.0  0.7782739473123552  0.259369003847697  0.07275553906317356  1.0000
  H   H27       1.0  0.7553036372614053  0.1861594813682852  0.750853530935391  1.0000
  H   H28       1.0  0.8047963594367652  0.7736017883403363  0.1624158635608628  1.0000
  H   H29       1.0  0.7333638232350514  0.8950110842299751  0.31023453001650947  1.0000
  H   H30       1.0  0.7697266912857798  0.023130322268178467  0.3956888943267533  1.0000
  H   H31       1.0  0.8929866897646349  0.0783486304027892  0.3686541076807279  1.0000
  H   H32       1.0  0.005712871322992589  0.03949498220095293  0.2664458710134283  1.0000
  H   H33       1.0  0.01966902260596015  0.8679341334464589  0.1143155707373056  1.0000
  Zn  Zn1       1.0  0.7505578300338424  0.4075294248176484  0.5616075853274087  1.0000
  Zn  Zn2       1.0  0.9012789039332368  0.40474094166493146  0.5603513205524291  1.0000
  C   C43       1.0  0.8259392223440648  0.4009439804313686  0.798193062481622  1.0000
  C   C44       1.0  0.8258991577023335  0.4113279942180217  0.3237659576727281  1.0000
  C   C45       1.0  0.8259465348083322  0.6433290161480012  0.5558788094419396  1.0000
  C   C46       1.0  0.8258917936235033  0.16894139913853223  0.566080279894372  1.0000
  O   O4        1.0  0.8831001119745577  0.41199718880360525  0.37167969024711334  1.0000
  O   O5        1.0  0.8831320755629857  0.3981574119553605  0.7493254798253566  1.0000
  O   O6        1.0  0.8831372095281301  0.5938864078377015  0.5536550129341731  1.0000
  O   O7        1.0  0.8830949265715518  0.21626820317034626  0.5673500601870944  1.0000
  O   O8        1.0  0.7687417559618215  0.5960021642652202  0.5546088461146144  1.0000
  O   O9        1.0  0.7687366221775338  0.40027472869872316  0.7502792442457065  1.0000
  O   O10       1.0  0.7687046584994871  0.41411446040702016  0.3726318931216712  1.0000
  O   O11       1.0  0.7686994731006368  0.21838546547766607  0.5683023604347253  1.0000
