data_image0
_chemical_formula_structural       NC8NC6H8C12NCOCH13C12NH11Zn2C4O8
_chemical_formula_sum              "N4 C44 H32 O9 Zn2"
_cell_length_a       17.457602349358154
_cell_length_b       10.299155265289647
_cell_length_c       10.299774167527172
_cell_angle_alpha    85.56091470143106
_cell_angle_beta     92.86883644785563
_cell_angle_gamma    91.66712233072684

_space_group_name_H-M_alt    "P 1"
_space_group_IT_number       1

loop_
  _space_group_symop_operation_xyz
  'x, y, z'

loop_
  _atom_site_type_symbol
  _atom_site_label
  _atom_site_symmetry_multiplicity
  _atom_site_fract_x
  _atom_site_fract_y
  _atom_site_fract_z
  _atom_site_occupancy
  N   N1        1.0  0.7221926321292907  0.4525127343130859  0.6261153810523685  1.0000
  C   C1        1.0  0.6611257446133215  0.40658167437054454  0.6155146351596537  1.0000
  C   C2        1.0  0.5851559515729251  0.34944915333592647  0.6023368469644117  1.0000
  C   C3        1.0  0.5266131697128424  0.3896354857774038  0.6772182272095375  1.0000
  C   C4        1.0  0.45208094141172495  0.3346215338252445  0.6646541801213954  1.0000
  C   C5        1.0  0.38994645639245773  0.37705245264806675  0.7439564420728337  1.0000
  C   C6        1.0  0.31539946238071426  0.3955054847888893  0.6881898364829953  1.0000
  C   C7        1.0  0.2568567116083109  0.43550791276956385  0.763179223058968  1.0000
  C   C8        1.0  0.18087157788714683  0.454566179789355  0.7051970737757336  1.0000
  N   N2        1.0  0.11979244830566795  0.46988264644431604  0.6585795788012407  1.0000
  C   C9        1.0  0.2723687026881708  0.45730061453169113  0.8944436314665127  1.0000
  C   C10       1.0  0.3461308787465094  0.4392367064332488  0.9505976937888425  1.0000
  C   C11       1.0  0.40466195279637657  0.3994144784971747  0.8760659495078955  1.0000
  C   C12       1.0  0.43738039114533234  0.23874336707939547  0.5757761162746855  1.0000
  C   C13       1.0  0.4959113648497863  0.19883584914073782  0.5012946320914251  1.0000
  C   C14       1.0  0.5696587645785587  0.25396234565085263  0.5144085667749705  1.0000
  H   H1        1.0  0.5389357518152558  0.4648539248742795  0.7438220125232491  1.0000
  H   H2        1.0  0.3030648123249359  0.3805042130893064  0.586175045524006  1.0000
  H   H3        1.0  0.2274967625450554  0.4882025727489106  0.9532668741299827  1.0000
  H   H4        1.0  0.35795149336906584  0.45579562035717336  0.052238751956796274  1.0000
  H   H5        1.0  0.46114777769163473  0.38443539114252046  0.9221748740494433  1.0000
  H   H6        1.0  0.3809066516420402  0.19340199943478936  0.5651390695834915  1.0000
  H   H7        1.0  0.4841024237695383  0.12473358385154823  0.4334922324470147  1.0000
  H   H8        1.0  0.6145309090268658  0.22219078898915273  0.45609669798556585  1.0000
  C   C15       1.0  0.9210818866465137  0.07980412576223127  0.6424734754054024  1.0000
  C   C16       1.0  0.9079858334327142  0.08890427598393201  0.5064856295726927  1.0000
  C   C17       1.0  0.9012715643053639  0.9763772906955571  0.43741314278548454  1.0000
  C   C18       1.0  0.907802414993993  0.8536364299870001  0.5061628837078231  1.0000
  C   C19       1.0  0.9209105529741999  0.8425815907186242  0.6422333028180263  1.0000
  C   C20       1.0  0.9274730033990171  0.9561791282314213  0.7095511710260516  1.0000
  C   C21       1.0  0.8874184684012623  0.9869778614958763  0.29355449966674985  1.0000
  C   C22       1.0  0.9263318751371424  0.08277198599656432  0.21531820561799117  1.0000
  C   C23       1.0  0.9133015118943532  0.09261722001038986  0.07993815270586047  1.0000
  C   C24       1.0  0.8615742459348021  0.006003598621892704  0.019966781214988405  1.0000
  C   C25       1.0  0.8217237200919257  0.9119848058599314  0.09805840298295965  1.0000
  C   C26       1.0  0.8347820283241391  0.9018847655548862  0.2334034039871635  1.0000
  N   N3        1.0  0.846075198293672  0.015539122442171493  0.8811469903435579  1.0000
  C   C27       1.0  0.9021001322435187  0.05490293144496962  0.7875085555773923  1.0000
  O   O1        1.0  0.9724797395154388  0.06051765390600016  0.8211121261201786  1.0000
  C   C28       1.0  0.8776346130096997  0.08025227922875457  0.6469778638985536  1.0000
  H   H9        1.0  0.9261430029010654  0.4037810448033176  0.694776468131165  1.0000
  H   H10       1.0  0.9019194959980871  0.1836736628733779  0.4541832222953064  1.0000
  H   H11       1.0  0.9036790503559987  0.7666463517447472  0.45320035021376004  1.0000
  H   H12       1.0  0.9375768456550185  0.9484452398306935  0.814441203784914  1.0000
  H   H13       1.0  0.9461108794228409  0.6144528855626014  0.898965799585617  1.0000
  H   H14       1.0  0.9672960201475593  0.1496182182443324  0.25875329233923616  1.0000
  H   H15       1.0  0.942737583022107  0.16934652953756069  0.02276411860215366  1.0000
  H   H16       1.0  0.7806860085040611  0.8458392311075288  0.053750316255268604  1.0000
  H   H17       1.0  0.8028806940331382  0.8286642765076744  0.2912090547185966  1.0000
  H   H18       1.0  0.7920414504965905  0.984303568502913  0.8456631974324078  1.0000
  H   H19       1.0  0.8222548316073275  0.13127766144600161  0.6380026600865447  1.0000
  H   H20       1.0  0.8705384691623147  0.9863233056606643  0.601176617856442  1.0000
  H   H21       1.0  0.9213131343242981  0.1422402961906617  0.5951516712447806  1.0000
  C   C29       1.0  0.9210223352620867  0.4610794526101914  0.2610034723470074  1.0000
  C   C30       1.0  0.8458961263046296  0.40849183930912486  0.25770476885016547  1.0000
  C   C31       1.0  0.8078021937519968  0.3819599311377124  0.13888324064242896  1.0000
  C   C32       1.0  0.8458433674034788  0.4087208529277134  0.022395681438778455  1.0000
  C   C33       1.0  0.920970064875985  0.46130626090535737  0.02370328112145459  1.0000
  C   C34       1.0  0.9581387363066692  0.48719158616557934  0.14349209435809285  1.0000
  C   C35       1.0  0.728323018624605  0.3263258508793141  0.13644675199490308  1.0000
  C   C36       1.0  0.7067838282518744  0.22692358328143247  0.23001600188386284  1.0000
  C   C37       1.0  0.6319744528616965  0.17461615898239002  0.22758876590369503  1.0000
  C   C38       1.0  0.5775209134010734  0.2207665923243849  0.13182362116813628  1.0000
  C   C39       1.0  0.5985539270156118  0.3197565565588991  0.03837252210999908  1.0000
  C   C40       1.0  0.6733402426731288  0.37216424293575345  0.04053156512370059  1.0000
  N   N4        1.0  0.5010082975030479  0.16720861864998238  0.1294778637733438  1.0000
  H   H22       1.0  0.9496619201429322  0.4810646413354789  0.5897191123028518  1.0000
  H   H23       1.0  0.8164455844135735  0.38970077768664546  0.3475909932742436  1.0000
  H   H24       1.0  0.8171160224390756  0.38678873962889154  0.9307257970647163  1.0000
  H   H25       1.0  0.016095314408721913  0.5277596290836442  0.1452689189889469  1.0000
  H   H26       1.0  0.9495852142244483  0.48139826564801697  0.6967429717368246  1.0000
  H   H27       1.0  0.7480618220993812  0.18845566890250987  0.30404812771196554  1.0000
  H   H28       1.0  0.616515230014051  0.09788841616324095  0.3001674117602  1.0000
  H   H29       1.0  0.5569560333458184  0.3565450597347258  0.9640447170153815  1.0000
  H   H30       1.0  0.6879023963771649  0.44971935572842114  0.9682114340878125  1.0000
  H   H31       1.0  0.4600161590711438  0.20097690360595918  0.058455753882363126  1.0000
  H   H32       1.0  0.4847887817629868  0.09339315375715884  0.19874642308809043  1.0000
  Zn  Zn1       1.0  0.8369313507500384  0.45752183504395033  0.6354913464491367  1.0000
  Zn  Zn2       1.0  0.005053717098750801  0.46486290036261074  0.6492142487551218  1.0000
  C   C41       1.0  0.9209794055722883  0.4560892732245747  0.8795382059228449  1.0000
  C   C42       1.0  0.9210074977906363  0.4662971811101946  0.40516766607923405  1.0000
  C   C43       1.0  0.9209393230659497  0.6983986731618945  0.637103475168441  1.0000
  C   C44       1.0  0.9210475232743671  0.22398621828445808  0.6476024618774427  1.0000
  O   O2        1.0  0.9848040813248414  0.47082852837975103  0.45875825814352095  1.0000
  O   O3        1.0  0.9847838082557253  0.4571286447738503  0.8363626056635212  1.0000
  O   O4        1.0  0.9847505809568549  0.652796512490126  0.6405947746839673  1.0000
  O   O5        1.0  0.9848372512595207  0.27516066742034195  0.6545259870676337  1.0000
  O   O6        1.0  0.8571477592173561  0.6472240654824857  0.6301796034468408  1.0000
  O   O7        1.0  0.8571809861669212  0.45155775815089355  0.8259473646928056  1.0000
  O   O8        1.0  0.8572012594042059  0.46525759603588185  0.4483414558682876  1.0000
  O   O9        1.0  0.8572344293311639  0.2695897258158726  0.6441092821580576  1.0000
