data_image0
_chemical_formula_structural       NC6NC2H4C6NCH9C6OCH7Zn2C4O8
_chemical_formula_sum              "N3 C26 H20 O9 Zn2"
_cell_length_a       14.927258858638513
_cell_length_b       9.273386996610927
_cell_length_c       9.273891588657152
_cell_angle_alpha    85.97842517681073
_cell_angle_beta     89.68012649256188
_cell_angle_gamma    89.39858807063658

_space_group_name_H-M_alt    "P 1"
_space_group_IT_number       1

loop_
  _space_group_symop_operation_xyz
  'x, y, z'

loop_
  _atom_site_type_symbol
  _atom_site_label
  _atom_site_symmetry_multiplicity
  _atom_site_fract_x
  _atom_site_fract_y
  _atom_site_fract_z
  _atom_site_occupancy
  N   N1        1.0  0.8388902605746005  0.56449905772306  0.4075050111290821  1.0000
  C   C1        1.0  0.7613637695554016  0.5644990292979142  0.40750502176338516  1.0000
  C   C2        1.0  0.6649312614368018  0.5644991439906817  0.40750497172014016  1.0000
  C   C3        1.0  0.618480096733544  0.5396557529359836  0.2808740978246762  1.0000
  C   C4        1.0  0.5247687856936082  0.5396557773772246  0.2808739643412327  1.0000
  C   C5        1.0  0.47711519853659884  0.5644989665400297  0.4075049906392915  1.0000
  C   C6        1.0  0.38068262342646453  0.5644990812357091  0.40750494059011794  1.0000
  N   N2        1.0  0.30315613240726574  0.5644990528105631  0.4075049512244207  1.0000
  C   C7        1.0  0.5235662962483217  0.5893423575976402  0.5341358645288266  1.0000
  C   C8        1.0  0.6172776072882575  0.5893423331563987  0.53413599801227  1.0000
  H   H1        1.0  0.6546440692018909  0.5203261928464986  0.18234801019937064  1.0000
  H   H2        1.0  0.48954041242072877  0.5203263904160527  0.18234800493963288  1.0000
  H   H3        1.0  0.48740239045385625  0.6086719083411338  0.6326620602425667  1.0000
  H   H4        1.0  0.6525059795365209  0.6086718184771898  0.6326620672686802  1.0000
  C   C9        1.0  0.07377979022035655  0.14085145017291856  0.40821328233457255  1.0000
  C   C10       1.0  0.08996900303413626  0.22315062410910347  0.2778877031099116  1.0000
  C   C11       1.0  0.09772341250626855  0.15747123721309064  0.14755406838894958  1.0000
  C   C12       1.0  0.0894107097841639  0.0071404200951914465  0.1442136846284301  1.0000
  C   C13       1.0  0.07480179918013175  0.923874245051812  0.2740865418695744  1.0000
  C   C14       1.0  0.06827520072425468  0.9881356326964092  0.40680921347204424  1.0000
  N   N3        1.0  0.09641730301408802  0.9364003186371532  0.011189183172595873  1.0000
  C   C15       1.0  0.11183684085502815  0.01302713768392838  0.8705329860296809  1.0000
  H   H5        1.0  0.09124762647761989  0.4051322743077577  0.6448533388770653  1.0000
  H   H6        1.0  0.09454445834181402  0.33978055454684264  0.27611934280101713  1.0000
  H   H7        1.0  0.10936602501212983  0.2251895666158228  0.049647031751550955  1.0000
  H   H8        1.0  0.07058140157722798  0.807452650230701  0.2718127063597056  1.0000
  H   H9        1.0  0.1000215821664055  0.8599426742276404  0.7578738085154811  1.0000
  H   H10       1.0  0.0900733093034749  0.8240601767748645  0.01417809770823686  1.0000
  H   H11       1.0  0.05638959538069033  0.09137463971009603  0.8454895075376955  1.0000
  H   H12       1.0  0.17667694755223504  0.0705809818958094  0.8707655701062748  1.0000
  H   H13       1.0  0.11439602632883018  0.9348202792227389  0.7852022733031918  1.0000
  C   C16       1.0  0.07251990578226254  0.5606727641975824  0.9842422333249385  1.0000
  C   C17       1.0  0.14548742296587514  0.6216073907572237  0.05271494983024594  1.0000
  C   C18       1.0  0.21330350422326613  0.6933146639311556  0.9727863685343348  1.0000
  C   C19       1.0  0.20839388831774372  0.7044488057352325  0.8213273048067814  1.0000
  C   C20       1.0  0.1373141200222815  0.6426406495016088  0.7515138378887585  1.0000
  C   C21       1.0  0.06953508408097564  0.5683142832140651  0.8307802108564245  1.0000
  O   O1        1.0  0.283836058562589  0.7524730468575329  0.047894936472146835  1.0000
  C   C22       1.0  0.357113039182251  0.8283974066217205  0.9806927409969299  1.0000
  H   H14       1.0  0.8600126773760238  0.4720654986035045  0.09540632295778996  1.0000
  H   H15       1.0  0.259641115514436  0.7595380059500192  0.7563138734323641  1.0000
  H   H16       1.0  0.1365429778685967  0.6500759168056918  0.6344203402401456  1.0000
  H   H17       1.0  0.9278617975236886  0.502939739806421  0.5554459082794487  1.0000
  H   H18       1.0  0.33243171560399465  0.9260234211161591  0.916135380855856  1.0000
  H   H19       1.0  0.3949310295418107  0.7567984160361649  0.9103987231108067  1.0000
  H   H20       1.0  0.4027462921494054  0.8628807057006603  0.06547913838142662  1.0000
  Zn  Zn1       1.0  0.9728673662192487  0.5644952657772113  0.4075133288245709  1.0000
  Zn  Zn2       1.0  0.16917907272664767  0.5644911346406829  0.407508476835704  1.0000
  C   C23       1.0  0.07013463362185429  0.5611226803372293  0.6707759490596796  1.0000
  C   C24       1.0  0.0719139367171216  0.5678655415902789  0.14424599500197788  1.0000
  C   C25       1.0  0.0693313411872008  0.8279290525932301  0.4013308337949073  1.0000
  C   C26       1.0  0.07271717315399091  0.3010574367509353  0.41369118998646126  1.0000
  O   O2        1.0  0.14620987838515376  0.5702716417972518  0.19794288819871908  1.0000
  O   O3        1.0  0.14483474338282432  0.5587123526128213  0.6170749601996165  1.0000
  O   O4        1.0  0.14418506501262507  0.7741618859867199  0.39949612079338626  1.0000
  O   O5        1.0  0.14685949008147225  0.35482211776934514  0.41552161951651423  1.0000
  O   O6        1.0  0.9951868818728904  0.7741642826514614  0.3995001861378322  1.0000
  O   O7        1.0  0.9958365492493394  0.5587164818638171  0.6170789458184225  1.0000
  O   O8        1.0  0.9972116907480482  0.5702757051321226  0.19794514095281013  1.0000
  O   O9        1.0  0.997861302126713  0.3548261717611356  0.41552398035311244  1.0000
