data_image0
_chemical_formula_structural       NC8NH4C6BrH5C6ClH5Zn2C4O8
_chemical_formula_sum              "N2 C24 H14 Br1 Cl1 Zn2 O8"
_cell_length_a       13.859017124695912
_cell_length_b       9.276564384272257
_cell_length_c       10.302974078461048
_cell_angle_alpha    85.51203645114332
_cell_angle_beta     89.99985762628332
_cell_angle_gamma    90.58596084768166

_space_group_name_H-M_alt    "P 1"
_space_group_IT_number       1

loop_
  _space_group_symop_operation_xyz
  'x, y, z'

loop_
  _atom_site_type_symbol
  _atom_site_label
  _atom_site_symmetry_multiplicity
  _atom_site_fract_x
  _atom_site_fract_y
  _atom_site_fract_z
  _atom_site_occupancy
  N   N1        1.0  0.9193955315460505  0.578230209719035  0.5667643667312982  1.0000
  C   C1        1.0  0.8468846440123649  0.5553718981748017  0.5161949135862676  1.0000
  C   C2        1.0  0.7566854187223667  0.5269395036154938  0.45329301278553347  1.0000
  C   C3        1.0  0.669259857112915  0.5546582122237165  0.514614451524035  1.0000
  C   C4        1.0  0.5814551072541754  0.5269407293967103  0.45329249007143635  1.0000
  C   C5        1.0  0.5812582766442276  0.47149703843244634  0.33063026604652834  1.0000
  C   C6        1.0  0.6685020068339517  0.4438848652113634  0.2695448700617027  1.0000
  C   C7        1.0  0.7561236194352198  0.4714946890558007  0.33063132918738414  1.0000
  C   C8        1.0  0.49164481163714463  0.5553728246962271  0.5161944643119944  1.0000
  N   N2        1.0  0.419446659342921  0.5782305323179102  0.5667641719237726  1.0000
  H   H1        1.0  0.6695534175030143  0.5975737951361321  0.6095579510172406  1.0000
  H   H2        1.0  0.5138136090072973  0.4496813942868745  0.2823635794179584  1.0000
  H   H3        1.0  0.6682091121225356  0.4010569444814829  0.17479364661918062  1.0000
  H   H4        1.0  0.8232697951630944  0.449676944254832  0.28236554417316406  1.0000
  C   C9        1.0  0.166518633821219  0.15474941864405878  0.5670962679483273  1.0000
  C   C10       1.0  0.15415350947708717  0.23824870776116766  0.44843854890010215  1.0000
  C   C11       1.0  0.15076818007793946  0.1732598455255798  0.3308891490136223  1.0000
  C   C12       1.0  0.15972653696836558  0.023852691396238683  0.3297654475408778  1.0000
  C   C13       1.0  0.17039183066155197  0.9386600721576289  0.44662886206018865  1.0000
  C   C14       1.0  0.17233271633803215  0.0017002253333635571  0.5664434808573899  1.0000
  Br  Br1       1.0  0.1558047299197514  0.9354949269811531  0.1684671323345488  1.0000
  H   H5        1.0  0.13822424022709168  0.4173017826408248  0.7781632740333857  1.0000
  H   H6        1.0  0.14939183996088934  0.3549050971722645  0.44621595827616134  1.0000
  H   H7        1.0  0.14209747862063196  0.2394800792753442  0.24045743171326683  1.0000
  H   H8        1.0  0.17485625296209406  0.8224200931264412  0.4438298241471362  1.0000
  H   H9        1.0  0.22556056721837447  0.7037675854384408  0.7686444090122488  1.0000
  C   C15       1.0  0.16942568163125338  0.5782248559973968  0.1855274028998819  1.0000
  C   C16       1.0  0.15161349637120167  0.4284448537132243  0.19487651290659394  1.0000
  C   C17       1.0  0.14277562531689125  0.3541280961407569  0.08255849510728042  1.0000
  C   C18       1.0  0.15161354008467143  0.428444935156276  0.9597686138727046  1.0000
  C   C19       1.0  0.16942567865906666  0.5782247815580794  0.9480124220306725  1.0000
  C   C20       1.0  0.17824496235607976  0.6523846993090843  0.0615450432858915  1.0000
  Cl  Cl1       1.0  0.1205239775014808  0.1670172907387133  0.09574129728794079  1.0000
  H   H10       1.0  0.1761357807448205  0.6346443976579905  0.5093086936141122  1.0000
  H   H11       1.0  0.14452918746667343  0.3688738491368293  0.2891201019925729  1.0000
  H   H12       1.0  0.14452925475089162  0.3688738285593933  0.8739191359345022  1.0000
  H   H13       1.0  0.19198221097034976  0.7678995326679293  0.053406404008469854  1.0000
  H   H14       1.0  0.17613559705294524  0.634644384896339  0.616281063142635  1.0000
  Zn  Zn1       1.0  0.06369946190747933  0.5782264526074521  0.5667718146503358  1.0000
  Zn  Zn2       1.0  0.27514264059085636  0.5782225256821627  0.5667673812176031  1.0000
  C   C21       1.0  0.16938407590838778  0.5724798497111605  0.8038908274736919  1.0000
  C   C22       1.0  0.1694603480336572  0.5839709480970634  0.3296484943676976  1.0000
  C   C23       1.0  0.17122876110917717  0.8416085171759278  0.5613934505525315  1.0000
  C   C24       1.0  0.1676155787883029  0.31484054803716677  0.5721459418413577  1.0000
  O   O1        1.0  0.24971352357145027  0.5858916074774876  0.3780151716108593  1.0000
  O   O2        1.0  0.24961137306099393  0.5705551219785502  0.75552041247401  1.0000
  O   O3        1.0  0.2510998979948904  0.7878799245729068  0.5597020637680434  1.0000
  O   O4        1.0  0.24822492655713857  0.36856681520055656  0.5738334229679991  1.0000
  O   O5        1.0  0.09061710378602816  0.7878821630919681  0.5597057728946229  1.0000
  O   O6        1.0  0.08912859074152737  0.570559093095651  0.7555240510427719  1.0000
  O   O7        1.0  0.08923074097121828  0.5858955283413876  0.3780172493352596  1.0000
  O   O8        1.0  0.08774214388215283  0.3685707257499411  0.5738355980359091  1.0000
