data_image0
_chemical_formula_structural       NC12NC2H8C12ClH9C13NH12Zn2C4O8
_chemical_formula_sum              "N3 C43 H29 Cl1 Zn2 O8"
_cell_length_a       19.240039667572717
_cell_length_b       10.299768534541528
_cell_length_c       10.299780419254978
_cell_angle_alpha    85.57457807328838
_cell_angle_beta     89.9865849046833
_cell_angle_gamma    90.01670575511149

_space_group_name_H-M_alt    "P 1"
_space_group_IT_number       1

loop_
  _space_group_symop_operation_xyz
  'x, y, z'

loop_
  _atom_site_type_symbol
  _atom_site_label
  _atom_site_symmetry_multiplicity
  _atom_site_fract_x
  _atom_site_fract_y
  _atom_site_fract_z
  _atom_site_occupancy
  N   N1        1.0  0.6548784510745043  0.42095425282287335  0.5675903256785431  1.0000
  C   C1        1.0  0.5947300822805978  0.4209543367858135  0.5675902437497558  1.0000
  C   C2        1.0  0.5199120451749443  0.4209544540410613  0.5675901064573596  1.0000
  C   C3        1.0  0.4834153124433844  0.3565118293581382  0.6709942268403438  1.0000
  C   C4        1.0  0.4107445361933277  0.35640096763168083  0.6710807590814272  1.0000
  C   C5        1.0  0.3735798102805885  0.42095454655680914  0.5675898787901037  1.0000
  C   C6        1.0  0.4107907627598723  0.48550831250784054  0.4640991930429677  1.0000
  C   C7        1.0  0.48346142302143263  0.485397215310354  0.4641858477657264  1.0000
  C   C8        1.0  0.29637471984063923  0.42095446787611496  0.5675897833735639  1.0000
  C   C9        1.0  0.259163986998534  0.30770372462746365  0.6094519137620722  1.0000
  C   C10       1.0  0.18649332674204896  0.307810604355105  0.6093605984786817  1.0000
  C   C11       1.0  0.1500424328896492  0.42095433871748544  0.5675898442735212  1.0000
  C   C12       1.0  0.0752243956857873  0.42095422502863095  0.5675900929175524  1.0000
  N   N2        1.0  0.015076078801201997  0.42095418424979547  0.5675903013261933  1.0000
  C   C13       1.0  0.1865390499123244  0.5340981488954779  0.5258190371843439  1.0000
  C   C14       1.0  0.2592097743063398  0.5342052087076994  0.5257275593238417  1.0000
  H   H1        1.0  0.5111122718331806  0.3066190915648359  0.7517292524366841  1.0000
  H   H2        1.0  0.3836333076499844  0.3073065438133112  0.7529312966780564  1.0000
  H   H3        1.0  0.3837154605256806  0.5346027633675654  0.3822486046015736  1.0000
  H   H4        1.0  0.5111942350445133  0.5352898529007433  0.38345109794779436  1.0000
  H   H5        1.0  0.2862394413020064  0.21855585124175686  0.6406128157664629  1.0000
  H   H6        1.0  0.15876067480088568  0.21956212136957357  0.6415544818972974  1.0000
  H   H7        1.0  0.1588418784000449  0.6223466073474889  0.49362516831408043  1.0000
  H   H8        1.0  0.28632079883804473  0.6233531612597205  0.49456661255454987  1.0000
  C   C15       1.0  0.8349150503394647  0.03958883512533818  0.5675881747259748  1.0000
  C   C16       1.0  0.8395095959176138  0.0491253603343742  0.4311248506015952  1.0000
  C   C17       1.0  0.8419045051295218  0.9368182278581916  0.36198518752212205  1.0000
  C   C18       1.0  0.8396423377190716  0.81383764617653  0.43114033989787437  1.0000
  C   C19       1.0  0.8350461571133506  0.8023095919169203  0.5676036019753851  1.0000
  C   C20       1.0  0.8327087641310325  0.9157421372495537  0.6350633241962738  1.0000
  C   C21       1.0  0.8467660754446609  0.9479607443341753  0.2176183667370668  1.0000
  C   C22       1.0  0.807235353818751  0.04148491008170763  0.14315762773111554  1.0000
  C   C23       1.0  0.811873127384325  0.05177677092300903  0.0072834577073965815  1.0000
  C   C24       1.0  0.8559747148162489  0.9690662391466209  0.9441782383404749  1.0000
  C   C25       1.0  0.8954942346822365  0.8758539947829087  0.0171278188763031  1.0000
  C   C26       1.0  0.8909798852248021  0.8651698858146518  0.15301663154034162  1.0000
  Cl  Cl1       1.0  0.8617160499024955  0.9822249509844486  0.7737002392655745  1.0000
  H   H9        1.0  0.8331286412400011  0.3634086991836872  0.6195841658214427  1.0000
  H   H10       1.0  0.842195760614592  0.14412645602674434  0.37839442561861425  1.0000
  H   H11       1.0  0.8405147294300679  0.7269925409653798  0.3781963687243317  1.0000
  H   H12       1.0  0.8291635798270424  0.9076169583276369  0.7403384969660256  1.0000
  H   H13       1.0  0.8333224696237547  0.4704631187888326  0.6196073937213988  1.0000
  H   H14       1.0  0.772088251150285  0.10547082705404631  0.18989918145548226  1.0000
  H   H15       1.0  0.7810214572510065  0.12387869875582025  0.9511740075802821  1.0000
  H   H16       1.0  0.9298664346157136  0.8118211016716803  0.9686968566855004  1.0000
  H   H17       1.0  0.9227136931621643  0.7933609474979892  0.20763183770767893  1.0000
  C   C27       1.0  0.835027912309515  0.42086436171870023  0.18624175519570518  1.0000
  C   C28       1.0  0.8853655801474518  0.5198925887054591  0.1775821865402352  1.0000
  C   C29       1.0  0.9108185013471793  0.5701662597247206  0.05605039635473808  1.0000
  C   C30       1.0  0.8852701532106277  0.5200648197655615  0.9422820141839262  1.0000
  C   C31       1.0  0.8349333106211836  0.4210340734566034  0.9489500294357374  1.0000
  C   C32       1.0  0.8100921514717814  0.37199181453702024  0.07138426669445398  1.0000
  C   C33       1.0  0.9640737747009182  0.6749270455204144  0.04798089274549322  1.0000
  C   C34       1.0  0.9593933960691907  0.7795037313633052  0.9521567180274922  1.0000
  C   C35       1.0  0.00954098836396522  0.8780194212354977  0.9446471904614887  1.0000
  C   C36       1.0  0.06494289694096822  0.8743163533973629  0.03332157815795255  1.0000
  C   C37       1.0  0.07028950180257532  0.7694608326724003  0.12808897459015545  1.0000
  C   C38       1.0  0.02015627586534974  0.6709204440485259  0.13577127232347275  1.0000
  C   C39       1.0  0.11984449129275919  0.9785331398007681  0.022868244590934953  1.0000
  N   N3        1.0  0.1731190497726427  0.9458815118440131  0.9299896939281181  1.0000
  H   H18       1.0  0.8158751419862301  0.3830831080988568  0.5169982740785495  1.0000
  H   H19       1.0  0.9042123921495121  0.5593980760776704  0.26545286493638476  1.0000
  H   H20       1.0  0.905424775379532  0.5572194596342483  0.848475266841681  1.0000
  H   H21       1.0  0.7712591642153356  0.29559500015164275  0.07729616550991537  1.0000
  H   H22       1.0  0.9165303057585144  0.7858500909394159  0.8838551497046496  1.0000
  H   H23       1.0  0.005078193961653988  0.9574187690291689  0.8698095409921451  1.0000
  H   H24       1.0  0.11341078655185988  0.7637667261652228  0.19586403171824562  1.0000
  H   H25       1.0  0.025830244177050373  0.5905039477553822  0.2091430133901629  1.0000
  H   H26       1.0  0.09584560649657914  0.07355874417861273  0.9895896423488552  1.0000
  H   H27       1.0  0.14381488989040744  0.9898433689190594  0.1197251541154305  1.0000
  H   H28       1.0  0.20820506422751303  0.023572236930130323  0.9200517509626098  1.0000
  H   H29       1.0  0.20098879982746443  0.8655789043390023  0.9707605299275534  1.0000
  Zn  Zn1       1.0  0.7588237133859638  0.42095076753057953  0.5675978067166911  1.0000
  Zn  Zn2       1.0  0.9111308321250977  0.42094707851854896  0.5675934185627944  1.0000
  C   C40       1.0  0.8349487331902616  0.41582839231942215  0.8047817594063386  1.0000
  C   C41       1.0  0.8350074757756372  0.42607109232223556  0.330409593319988  1.0000
  C   C42       1.0  0.8350184338936717  0.6581380169954136  0.5624257514892876  1.0000
  C   C43       1.0  0.8349377228236744  0.18375990737474665  0.5727656704428342  1.0000
  O   O1        1.0  0.892800373920616  0.4278114530269379  0.37879197138749104  1.0000
  O   O2        1.0  0.8927534138994314  0.4140842519432956  0.7563956769801208  1.0000
  O   O3        1.0  0.8928089187630123  0.6097523386120092  0.5606914859279802  1.0000
  O   O4        1.0  0.89274481709861  0.23214337562794876  0.5744960650704178  1.0000
  O   O5        1.0  0.7772096764375076  0.6097544704238511  0.560695160203734  1.0000
  O   O6        1.0  0.7771541718475361  0.4140879440293057  0.7563992820447463  1.0000
  O   O7        1.0  0.7772011321008728  0.4278150995099094  0.3787940151109369  1.0000
  O   O8        1.0  0.7771455752623486  0.2321470128438667  0.5744982061577445  1.0000
