data_image0
_chemical_formula_structural       NC10NC5H10C7OC3NC3H11C7OC6H10Zn2C4O8
_chemical_formula_sum              "N3 C45 H31 O10 Zn2"
_cell_length_a       19.4436361288709
_cell_length_b       10.298746005989749
_cell_length_c       10.299382801718286
_cell_angle_alpha    85.57508548997963
_cell_angle_beta     89.6852200800954
_cell_angle_gamma    89.42734808848357

_space_group_name_H-M_alt    "P 1"
_space_group_IT_number       1

loop_
  _space_group_symop_operation_xyz
  'x, y, z'

loop_
  _atom_site_type_symbol
  _atom_site_label
  _atom_site_symmetry_multiplicity
  _atom_site_fract_x
  _atom_site_fract_y
  _atom_site_fract_z
  _atom_site_occupancy
  N   N1        1.0  0.6480232857402042  0.40915914195529113  0.562208759301101  1.0000
  C   C1        1.0  0.5891864416113268  0.41906195873357827  0.5765936842061334  1.0000
  C   C2        1.0  0.5158560178966372  0.4314120991872428  0.5945871865727895  1.0000
  C   C3        1.0  0.4736810062584036  0.3994118340585535  0.49991009746296133  1.0000
  C   C4        1.0  0.3977765455441036  0.4098510079421376  0.5052391208956657  1.0000
  C   C5        1.0  0.35802213769302227  0.38510198247519867  0.6123100089616837  1.0000
  C   C6        1.0  0.281903498347585  0.38901881218301676  0.5993508974847355  1.0000
  C   C7        1.0  0.24133380412311314  0.4466855394435889  0.6931271789129967  1.0000
  C   C8        1.0  0.16967199614169082  0.45032350072275334  0.682583535455904  1.0000
  C   C9        1.0  0.13758505916658925  0.39589869371800873  0.578550104150495  1.0000
  C   C10       1.0  0.063794030565315  0.3995979019413359  0.567851183156072  1.0000
  N   N2        1.0  0.0044710485354508035  0.4025718712432071  0.5592499600069256  1.0000
  C   C11       1.0  0.17742975754149004  0.33752482205652723  0.485156997862767  1.0000
  C   C12       1.0  0.24910802107360172  0.3338326304187912  0.4954488576594132  1.0000
  C   C13       1.0  0.38613550773448546  0.3446389983758634  0.7434018559800462  1.0000
  C   C14       1.0  0.444796801643095  0.3877647118677581  0.7906484158981496  1.0000
  C   C15       1.0  0.4890213664153655  0.4856301813996083  0.7162891437574532  1.0000
  H   H1        1.0  0.4957887751661644  0.3702916905385285  0.4096001942290981  1.0000
  H   H2        1.0  0.37309143786736904  0.43234674689992275  0.4120822005175091  1.0000
  H   H3        1.0  0.2651978231001202  0.4899805348121429  0.7739797802543238  1.0000
  H   H4        1.0  0.13932189120277316  0.49564232298765765  0.755508802690542  1.0000
  H   H5        1.0  0.15309383077297473  0.29442550249125676  0.40463889863014396  1.0000
  H   H6        1.0  0.2787922406199351  0.28627024432287906  0.4232197304300893  1.0000
  H   H7        1.0  0.355156871841932  0.28041727961372037  0.8076434996084825  1.0000
  H   H8        1.0  0.4599318763146792  0.35369551480939476  0.8885804334166554  1.0000
  H   H9        1.0  0.45892288916824464  0.5763515215763768  0.6910450564483629  1.0000
  H   H10       1.0  0.532300770499779  0.5112187160612134  0.7793767404546067  1.0000
  C   C16       1.0  0.8262175923331928  0.024463972281629116  0.560712459702152  1.0000
  C   C17       1.0  0.8584140885725723  0.03235350580840257  0.4379416538443859  1.0000
  C   C18       1.0  0.8739710719228974  0.919232706306292  0.3751798020574784  1.0000
  C   C19       1.0  0.8584146130929333  0.797116886971678  0.43789251267694174  1.0000
  C   C20       1.0  0.8262833062965307  0.787256958216327  0.5607574685772454  1.0000
  C   C21       1.0  0.8102231502365234  0.9014953558970361  0.6212347283649537  1.0000
  C   C22       1.0  0.9085547734638977  0.9273617736182288  0.24607795477839448  1.0000
  O   O1        1.0  0.9505537408425371  0.83860318968856  0.22051722703716606  1.0000
  C   C23       1.0  0.8954947529324696  0.03612305853436328  0.14598124690956807  1.0000
  C   C24       1.0  0.8303704394281047  0.0967165238826335  0.13441444410324313  1.0000
  C   C25       1.0  0.8183354678368896  0.1985929972758305  0.038608101080516155  1.0000
  N   N3        1.0  0.7521099907701454  0.26004916696365493  0.02795380957777583  1.0000
  C   C26       1.0  0.871467592119551  0.23948254673654068  0.9530334057156522  1.0000
  C   C27       1.0  0.9359644270250589  0.17873558463900577  0.9627493565989915  1.0000
  C   C28       1.0  0.9479459547582743  0.07728451914753466  0.05825193714013044  1.0000
  H   H11       1.0  0.7663357095480527  0.2168343431447646  0.7935437190517001  1.0000
  H   H12       1.0  0.8720999772744438  0.12660920105867618  0.3916065337007142  1.0000
  H   H13       1.0  0.8708275777833446  0.7096874679049525  0.3900918854180895  1.0000
  H   H14       1.0  0.7854088547077196  0.894661810993665  0.7158706539415243  1.0000
  H   H15       1.0  0.765829941292022  0.5613038270951155  0.7931049488455911  1.0000
  H   H16       1.0  0.7887074331845008  0.06409369799015165  0.1987225019414427  1.0000
  H   H17       1.0  0.7121365796049114  0.23034498333445733  0.09123638723103111  1.0000
  H   H18       1.0  0.7425812744408609  0.3358280062857968  0.9567949510888871  1.0000
  H   H19       1.0  0.8628132314816628  0.31798084494553214  0.8786185664123627  1.0000
  H   H20       1.0  0.976785142881995  0.21033795644726316  0.8961159948818388  1.0000
  H   H21       1.0  0.9983881382618809  0.03171155638474587  0.06436074695590865  1.0000
  C   C29       1.0  0.8263190580861018  0.4057859568736012  0.1793646093005772  1.0000
  C   C30       1.0  0.8985761975956427  0.4053141622802786  0.1774612257597961  1.0000
  C   C31       1.0  0.9350205214882445  0.40358799964422226  0.059443009686372734  1.0000
  C   C32       1.0  0.8984085972858392  0.40534529873368985  0.9422170499365535  1.0000
  C   C33       1.0  0.8261818234158536  0.4059349611299022  0.9421052913435642  1.0000
  C   C34       1.0  0.7905559903179843  0.40580711897615235  0.061241397114697456  1.0000
  C   C35       1.0  0.011314787763074822  0.40447391537874877  0.05718136423177778  1.0000
  O   O2        1.0  0.041624504910911186  0.46462787293720087  0.9624065475287368  1.0000
  C   C36       1.0  0.05322436553536214  0.3371104982310549  0.16233567300281074  1.0000
  C   C37       1.0  0.11787573236193637  0.38637984748200555  0.19290345917060026  1.0000
  C   C38       1.0  0.15810817367764085  0.3226970530313049  0.29082015254311044  1.0000
  C   C39       1.0  0.1345314608519408  0.20881936347649105  0.3583729615281621  1.0000
  C   C40       1.0  0.07079200400128394  0.1580860746077479  0.3277745005113566  1.0000
  C   C41       1.0  0.03036359842141123  0.22139374564594277  0.22996147184149196  1.0000
  H   H22       1.0  0.6899591927419896  0.4086881676954855  0.39012124124224395  1.0000
  H   H23       1.0  0.9265963017044198  0.40774707003255656  0.2678276618919124  1.0000
  H   H24       1.0  0.9264355224675717  0.40499871707549673  0.8510329363825707  1.0000
  H   H25       1.0  0.7348511800510498  0.4061716358359893  0.06190452716133921  1.0000
  H   H26       1.0  0.7984355777465147  0.407266554333003  0.614520613122358  1.0000
  H   H27       1.0  0.1369784673578225  0.4747074842769605  0.14181471613997942  1.0000
  H   H28       1.0  0.20762051854739583  0.3616692222510941  0.3142842445490359  1.0000
  H   H29       1.0  0.1657716577802104  0.15961059367819064  0.4340541363411533  1.0000
  H   H30       1.0  0.052808763271648296  0.06928180135058291  0.3794826857758496  1.0000
  H   H31       1.0  0.9816768424487969  0.17912386836814242  0.2063041095576324  1.0000
  Zn  Zn1       1.0  0.7508864100039156  0.4072547277222776  0.5613624257012195  1.0000
  Zn  Zn2       1.0  0.9016079129514227  0.40446567897400126  0.560106974201006  1.0000
  C   C42       1.0  0.8262058042852855  0.400732697470217  0.7979307110897433  1.0000
  C   C43       1.0  0.8262901646624474  0.4109893175541176  0.3235388026666519  1.0000
  C   C44       1.0  0.8262682835881561  0.643071884390016  0.5555738104046657  1.0000
  C   C45       1.0  0.8262276337819568  0.16864857116375978  0.5658957729269172  1.0000
  O   O3        1.0  0.8834784921541758  0.4116715172419311  0.3714485413718944  1.0000
  O   O4        1.0  0.8834116100553601  0.3979326944374817  0.7490677398397231  1.0000
  O   O5        1.0  0.8834612915829346  0.5936246672044598  0.5533628343236479  1.0000
  O   O6        1.0  0.8834287592138793  0.2159795546986603  0.5671533499418818  1.0000
  O   O7        1.0  0.7690655123076084  0.5957408529507965  0.5543160503819371  1.0000
  O   O8        1.0  0.7690158309238034  0.4000504406075554  0.750020886744418  1.0000
  O   O9        1.0  0.7690827133453416  0.4137892178463193  0.3724001268669259  1.0000
  O   O10       1.0  0.7690329803839169  0.21809724603251884  0.5681050328045949  1.0000
