data_image0
_chemical_formula_structural       NC8NC6H8C6NCOCH9C6SCNH5Zn2C4O8
_chemical_formula_sum              "N4 C33 H22 O9 S1 Zn2"
_cell_length_a       17.457602349358154
_cell_length_b       10.300268703208214
_cell_length_c       10.302218930750287
_cell_angle_alpha    85.55128926110262
_cell_angle_beta     92.89432631333469
_cell_angle_gamma    91.66828978603887

_space_group_name_H-M_alt    "P 1"
_space_group_IT_number       1

loop_
  _space_group_symop_operation_xyz
  'x, y, z'

loop_
  _atom_site_type_symbol
  _atom_site_label
  _atom_site_symmetry_multiplicity
  _atom_site_fract_x
  _atom_site_fract_y
  _atom_site_fract_z
  _atom_site_occupancy
  N   N1        1.0  0.7218703306247117  0.4529404656779621  0.6267889397683388  1.0000
  C   C1        1.0  0.6607997926790995  0.40702012518595443  0.6161766660624175  1.0000
  C   C2        1.0  0.5848254610639786  0.349900934125849  0.602984537216357  1.0000
  C   C3        1.0  0.5263026762767966  0.3900484563912583  0.6778641419172151  1.0000
  C   C4        1.0  0.4517661097362348  0.3350472840013332  0.6652862633380137  1.0000
  C   C5        1.0  0.3896527997806721  0.37743711796888246  0.7445866074668579  1.0000
  C   C6        1.0  0.31509189854444186  0.3959127712909831  0.6888354857411048  1.0000
  C   C7        1.0  0.2565691687625589  0.4358763645223441  0.7638230234150617  1.0000
  C   C8        1.0  0.1805695726944765  0.454958168042087  0.705856935719736  1.0000
  N   N2        1.0  0.11947881529534962  0.4702935588027617  0.6592523523667614  1.0000
  C   C9        1.0  0.2721152232283406  0.4576073506836036  0.8950700783534314  1.0000
  C   C10       1.0  0.3458914136712762  0.43952059706302277  0.9512087006600685  1.0000
  C   C11       1.0  0.4044025876121479  0.3997369751774127  0.8766787752862816  1.0000
  C   C12       1.0  0.43704084342436483  0.2392214377017512  0.5763962041408113  1.0000
  C   C13       1.0  0.49555192815562643  0.1993525143410415  0.5019165048126676  1.0000
  C   C14       1.0  0.5693038092535844  0.25446596999301785  0.5150442045112933  1.0000
  H   H1        1.0  0.5386438487895404  0.46522724995893494  0.744477902455333  1.0000
  H   H2        1.0  0.3027308148514867  0.3809592118224528  0.5868347478802214  1.0000
  H   H3        1.0  0.2272589782594271  0.4884789080191512  0.9538917311411942  1.0000
  H   H4        1.0  0.3577383979304414  0.4560317641631437  0.05283622923520881  1.0000
  H   H5        1.0  0.4608999169399012  0.3847391480576843  0.9227749789087369  1.0000
  H   H6        1.0  0.3805634562027035  0.19389072922409015  0.5657478088074546  1.0000
  H   H7        1.0  0.4837241124046628  0.1252902873569719  0.43410467336475445  1.0000
  H   H8        1.0  0.614160371792588  0.22272469772046244  0.456733578603268  1.0000
  C   C15       1.0  0.9207561848427219  0.08027291297455807  0.6430349816446951  1.0000
  C   C16       1.0  0.9336651569022338  0.09024407872529272  0.5091250251649966  1.0000
  C   C17       1.0  0.9412166247078297  0.9780138067292108  0.44201051188311163  1.0000
  C   C18       1.0  0.9334916011629292  0.85507698006851  0.5091432452270017  1.0000
  C   C19       1.0  0.9206002838385021  0.8429514299231786  0.6430181226542651  1.0000
  C   C20       1.0  0.9145894712866292  0.9561678097455037  0.7093596770702378  1.0000
  N   N3        1.0  0.9532385149662452  0.9865801858845279  0.30448649717649356  1.0000
  C   C21       1.0  0.9982656617874296  0.08766421035496454  0.2383986928629067  1.0000
  O   O1        1.0  0.041597449283153454  0.1625411579699112  0.3018919184727355  1.0000
  C   C22       1.0  0.9982701034109724  0.09857375412116534  0.09295551163757865  1.0000
  H   H9        1.0  0.9147325312889333  0.40388192914442045  0.6935516175452738  1.0000
  H   H10       1.0  0.9363271707925795  0.18521798710636972  0.4565234209970974  1.0000
  H   H11       1.0  0.9382441975518142  0.7689307060919779  0.45638475261539324  1.0000
  H   H12       1.0  0.9046540773248422  0.9476689446557554  0.8126477765777125  1.0000
  H   H13       1.0  0.9145810115250401  0.5109233956083086  0.6933471189509399  1.0000
  H   H14       1.0  0.9320962490841133  0.9102418132020738  0.2505926944045993  1.0000
  H   H15       1.0  0.9395440405576477  0.07898159319225441  0.05135095474904028  1.0000
  H   H16       1.0  0.01728379090369448  0.19806959939164703  0.05664939591818041  1.0000
  H   H17       1.0  0.03786342599573311  0.026581980468630695  0.060447698524632276  1.0000
  C   C23       1.0  0.9206066953270583  0.4616698628491247  0.26174555021343426  1.0000
  C   C24       1.0  0.9928781005131584  0.4043161901914758  0.27142528801582677  1.0000
  C   C25       1.0  0.028806246136924958  0.3753672885582857  0.159261894309769  1.0000
  C   C26       1.0  0.9930652029839278  0.4041635221247164  0.03628631833963625  1.0000
  C   C27       1.0  0.9207497728018006  0.46155444523235345  0.024307563509150306  1.0000
  C   C28       1.0  0.8849045987171285  0.4899444336814494  0.13763720783339783  1.0000
  S   S1        1.0  0.12119282915313902  0.3026655829091591  0.1730673969010077  1.0000
  C   C29       1.0  0.0810977325285536  0.14312569242161666  0.1820574256142724  1.0000
  N   N4        1.0  0.054788802556247296  0.03853881426472406  0.18794924731781015  1.0000
  H   H18       1.0  0.8931126084689368  0.4835584500905874  0.5853926611100266  1.0000
  H   H19       1.0  0.02151559749976695  0.38166877786186154  0.36583541553255694  1.0000
  H   H20       1.0  0.02183094517343399  0.38141140413369745  0.9504396967177304  1.0000
  H   H21       1.0  0.8291642558137581  0.5341599307608502  0.1293249325975987  1.0000
  H   H22       1.0  0.7844794297077915  0.5698571000522934  0.7945044757044579  1.0000
  Zn  Zn1       1.0  0.836611552635473  0.4579447098946522  0.6361646762129771  1.0000
  Zn  Zn2       1.0  0.004737583205571603  0.46527866584639443  0.6498872462339367  1.0000
  C   C30       1.0  0.9207220838494422  0.45640285331864083  0.8801669931149942  1.0000
  C   C31       1.0  0.920628887611637  0.4668222410032479  0.40588520658283955  1.0000
  C   C32       1.0  0.9206248431420568  0.6987895482599042  0.6378470201497435  1.0000
  C   C33       1.0  0.920726071281246  0.22443398334732098  0.6482052441226647  1.0000
  O   O2        1.0  0.9844392891082269  0.47132895886696247  0.4594674359247355  1.0000
  O   O3        1.0  0.9845154495141214  0.4574614587235635  0.8369995031621229  1.0000
  O   O4        1.0  0.9844360665721485  0.6531917425636129  0.6413243403063034  1.0000
  O   O5        1.0  0.9845186146600076  0.2755986818286853  0.655142496745543  1.0000
  O   O6        1.0  0.8568304638078723  0.6476246914110569  0.6309094210117007  1.0000
  O   O7        1.0  0.8569098464144566  0.4518959677843669  0.8265845146032764  1.0000
  O   O8        1.0  0.8568336857759166  0.4657634229131998  0.44905088633027024  1.0000
  O   O9        1.0  0.8569130113447248  0.2700331365718463  0.6447260444964207  1.0000
