data_image0
_chemical_formula_structural       NC8NH4C6NCH9C6ClH5Zn2C4O8
_chemical_formula_sum              "N3 C25 H18 Cl1 Zn2 O8"
_cell_length_a       13.859017124695912
_cell_length_b       9.273386996610926
_cell_length_c       10.302974078461046
_cell_angle_alpha    85.46621229036245
_cell_angle_beta     89.99985762628332
_cell_angle_gamma    89.39861590222965

_space_group_name_H-M_alt    "P 1"
_space_group_IT_number       1

loop_
  _space_group_symop_operation_xyz
  'x, y, z'

loop_
  _atom_site_type_symbol
  _atom_site_label
  _atom_site_symmetry_multiplicity
  _atom_site_fract_x
  _atom_site_fract_y
  _atom_site_fract_z
  _atom_site_occupancy
  N   N1        1.0  0.8975035012741865  0.5788750212793725  0.5656240639878876  1.0000
  C   C1        1.0  0.8253096871593271  0.5560073706010619  0.5150711264279741  1.0000
  C   C2        1.0  0.7355048548029838  0.5275633595256164  0.4521897685982963  1.0000
  C   C3        1.0  0.6476947999781499  0.5552933930620008  0.5134911800180479  1.0000
  C   C4        1.0  0.5602745263316711  0.5275645858076454  0.4521892449985477  1.0000
  C   C5        1.0  0.5608467691772301  0.4720982424238162  0.32956708014404623  1.0000
  C   C6        1.0  0.6484735148030453  0.44447478780133237  0.2685016345040314  1.0000
  C   C7        1.0  0.7357121445570199  0.4720958920872948  0.3295681449823729  1.0000
  C   C8        1.0  0.4700698419320938  0.5560082975010325  0.5150706764842714  1.0000
  N   N2        1.0  0.3975546245962067  0.5788753440100507  0.5656238689472777  1.0000
  H   H1        1.0  0.6473930674670824  0.5982265098321583  0.6084036721483044  1.0000
  H   H2        1.0  0.49370471185601555  0.4502736851428508  0.2813161557526418  1.0000
  H   H3        1.0  0.6487746970084983  0.4016293690295172  0.1737813550867866  1.0000
  H   H4        1.0  0.803160959739332  0.4502692332926756  0.28131812372308485  1.0000
  C   C9        1.0  0.1505008126733942  0.1552212102558585  0.566261938506448  1.0000
  C   C10       1.0  0.1674429463596232  0.23869683259768992  0.44887642062173333  1.0000
  C   C11       1.0  0.17530009839964533  0.1741939600000184  0.331483649666928  1.0000
  C   C12       1.0  0.16633397378692563  0.023893289450672914  0.3284749361798627  1.0000
  C   C13       1.0  0.15109223142898798  0.9394547539538232  0.445452682498303  1.0000
  C   C14       1.0  0.14456660178495825  0.002518062708436901  0.5649972817599997  1.0000
  N   N3        1.0  0.17337544956509388  0.9543539918572855  0.20865847569496498  1.0000
  C   C15       1.0  0.18944935033896892  0.032250512089489584  0.08196807031732246  1.0000
  H   H5        1.0  0.1702137304510265  0.4173659235969227  0.7794059266385046  1.0000
  H   H6        1.0  0.172364358398212  0.3553427295394832  0.44728363993778086  1.0000
  H   H7        1.0  0.18746829769418838  0.2427960953529411  0.2432978288342571  1.0000
  H   H8        1.0  0.14653789382454008  0.8230536813927924  0.44340461810405674  1.0000
  H   H9        1.0  0.1800931871171354  0.8711561067112145  0.8812045568445745  1.0000
  H   H10       1.0  0.1665538168685654  0.8419868642455138  0.21135062194981738  1.0000
  H   H11       1.0  0.12963317047775713  0.11082403410983009  0.059411183454986194  1.0000
  H   H12       1.0  0.25928816246809405  0.08980230924244292  0.08217754111328568  1.0000
  H   H13       1.0  0.19188173992775925  0.9548139270759172  0.005109869170241149  1.0000
  C   C16       1.0  0.14753372562221645  0.5788696653703842  0.18438710402464187  1.0000
  C   C17       1.0  0.13179917664357133  0.4290284680359684  0.1938444330645861  1.0000
  C   C18       1.0  0.12399217212347358  0.3546813471463406  0.08158011060199755  1.0000
  C   C19       1.0  0.13179921922732388  0.42902854951229474  0.9587365339718527  1.0000
  C   C20       1.0  0.14753372368259599  0.5788695909006534  0.9468721232092165  1.0000
  C   C21       1.0  0.15532431641021427  0.653059807889365  0.060351162447602746  1.0000
  Cl  Cl1       1.0  0.10433598559807611  0.16749409458871442  0.0948981040642638  1.0000
  H   H14       1.0  0.15346121500853793  0.6353122581501797  0.508127630496912  1.0000
  H   H15       1.0  0.12554119220519544  0.36943312475906154  0.2881310633872156  1.0000
  H   H16       1.0  0.12554125977484865  0.36943310417321906  0.8729300973440122  1.0000
  H   H17       1.0  0.1674592295646964  0.7686218367077071  0.05212906140359453  1.0000
  H   H18       1.0  0.15346103149368281  0.6353122453833138  0.6151000000346549  1.0000
  Zn  Zn1       1.0  0.04180748375146037  0.5788712626327603  0.565631514621513  1.0000
  Zn  Zn2       1.0  0.2532507169062108  0.5788673341030616  0.565627084026062  1.0000
  C   C22       1.0  0.14757181033408906  0.5731223118686117  0.8027546794798563  1.0000
  C   C23       1.0  0.1474886865282885  0.5846181051292134  0.32850404382653126  1.0000
  C   C24       1.0  0.14568334374315484  0.842360936217318  0.560062851739068  1.0000
  C   C25       1.0  0.14937709310792283  0.3153777474774978  0.5711959433716537  1.0000
  O   O1        1.0  0.22771522011420453  0.5865395492261922  0.3768693333550568  1.0000
  O   O2        1.0  0.22782580587171375  0.5711967977572563  0.7543856551342749  1.0000
  O   O3        1.0  0.226299763521368  0.7886103919259968  0.5584102849322787  1.0000
  O   O4        1.0  0.22924119024101985  0.36912596537909237  0.5728446062007724  1.0000
  O   O5        1.0  0.06581693826144175  0.7886126313596409  0.5584139924414837  1.0000
  O   O6        1.0  0.06734296846787836  0.5712007704968214  0.7543892908338263  1.0000
  O   O7        1.0  0.06723238312667812  0.5865434716920241  0.3768714082465552  1.0000
  O   O8        1.0  0.06875835332181479  0.3691298775261953  0.5728467784432323  1.0000
