data_image0
_chemical_formula_structural       NC9NC5H8C9H10C7F3H4Zn2C4O8
_chemical_formula_sum              "N2 C34 H22 F3 Zn2 O8"
_cell_length_a       17.807436237873137
_cell_length_b       9.272676604525724
_cell_length_c       9.272721663655245
_cell_angle_alpha    86.12112079025516
_cell_angle_beta     89.9168972107098
_cell_angle_gamma    88.94495835625186

_space_group_name_H-M_alt    "P 1"
_space_group_IT_number       1

loop_
  _space_group_symop_operation_xyz
  'x, y, z'

loop_
  _atom_site_type_symbol
  _atom_site_label
  _atom_site_symmetry_multiplicity
  _atom_site_fract_x
  _atom_site_fract_y
  _atom_site_fract_z
  _atom_site_occupancy
  N   N1        1.0  0.7076244020519267  0.5322079245416933  0.404627901928412  1.0000
  C   C1        1.0  0.6467819531332054  0.49307674662938705  0.39222111202235527  1.0000
  C   C2        1.0  0.5711006337947261  0.4444018705574549  0.3767884127529484  1.0000
  C   C3        1.0  0.5520588408237584  0.3645045242060013  0.2598677742542621  1.0000
  C   C4        1.0  0.47857513436334254  0.3171207058832075  0.24479135091644297  1.0000
  C   C5        1.0  0.4230822172359912  0.3492149207992945  0.34659774116518455  1.0000
  C   C6        1.0  0.34498905400159247  0.2989861830284841  0.33066707798144734  1.0000
  C   C7        1.0  0.2834066681905917  0.3899014240098966  0.3598548789124292  1.0000
  C   C8        1.0  0.2097795910693384  0.34229227829356934  0.34479267992393536  1.0000
  C   C9        1.0  0.14716410062406338  0.4361975147546659  0.3743973058147141  1.0000
  N   N2        1.0  0.0968341980601881  0.5116908345257325  0.39819859065899244  1.0000
  C   C10       1.0  0.1971497767530685  0.20348134089279576  0.3005133084807221  1.0000
  C   C11       1.0  0.2578746711684257  0.11255067238412918  0.2713161268922677  1.0000
  C   C12       1.0  0.3313790444906681  0.1597206244000291  0.28615157854325024  1.0000
  C   C13       1.0  0.4428193332272801  0.42966238190523337  0.46376413334799776  1.0000
  C   C14       1.0  0.5163540286522116  0.4768339189362292  0.4786668376908556  1.0000
  H   H1        1.0  0.593951969486877  0.33912251151648487  0.18014062334312464  1.0000
  H   H2        1.0  0.46492727676708273  0.2570390054766394  0.15247234563262618  1.0000
  H   H3        1.0  0.29260150278050256  0.498273230636008  0.39237945338853586  1.0000
  H   H4        1.0  0.14043854509237544  0.1656334615237236  0.2885883516212543  1.0000
  H   H5        1.0  0.24797979548193166  0.005082295468443077  0.23746267538143861  1.0000
  H   H6        1.0  0.3775517236540684  0.08662083731114367  0.26469021401418025  1.0000
  H   H7        1.0  0.4016468489416837  0.4544535295831773  0.5449259592142779  1.0000
  H   H8        1.0  0.5305316151626873  0.538264586844625  0.5698351630404032  1.0000
  C   C15       1.0  0.9000962632193311  0.09856303110707133  0.3996064431471062  1.0000
  C   C16       1.0  0.8705938045852442  0.164891494367166  0.5195162890794878  1.0000
  C   C17       1.0  0.8479791883637049  0.08264074975362591  0.6428365258639515  1.0000
  C   C18       1.0  0.8541380536998813  0.9316100571313797  0.6503960381940908  1.0000
  C   C19       1.0  0.8824048271967693  0.8638907942910683  0.5293956314401445  1.0000
  C   C20       1.0  0.9043695384081691  0.9453243397991381  0.4032324165698661  1.0000
  C   C21       1.0  0.8289112391385564  0.8501060278535072  0.7893302928790952  1.0000
  C   C22       1.0  0.7908871113108583  0.7059349395470773  0.7756012691377028  1.0000
  C   C23       1.0  0.8704751124342666  0.7095274980072671  0.8352998725033196  1.0000
  H   H9        1.0  0.9156656290161903  0.3952334841236982  0.1630576118860907  1.0000
  H   H10       1.0  0.8666304040232744  0.28162216759965086  0.5194431405666449  1.0000
  H   H11       1.0  0.8261556361313553  0.13774943970081924  0.733799129294009  1.0000
  H   H12       1.0  0.8859939252174309  0.7473088205776561  0.5306753585227315  1.0000
  H   H13       1.0  0.9222012994815086  0.8655743604768475  0.04986332028347283  1.0000
  H   H14       1.0  0.808077285520225  0.9118400746064712  0.8804643072772969  1.0000
  H   H15       1.0  0.7868862894676917  0.666274611794505  0.6657395046123791  1.0000
  H   H16       1.0  0.7477519386616029  0.67989646250052  0.859502359824005  1.0000
  H   H17       1.0  0.9147972709260574  0.6719226450661484  0.7617873344482275  1.0000
  H   H18       1.0  0.8738534545922807  0.6855828475311451  0.9541110041707221  1.0000
  C   C24       1.0  0.900234016813856  0.5197099823878129  0.9779990068290861  1.0000
  C   C25       1.0  0.9316021442197325  0.4000966293455541  0.059688364378671865  1.0000
  C   C26       1.0  0.9695959688278486  0.28871223952695707  0.9926783687794666  1.0000
  C   C27       1.0  0.9739108879978723  0.29512574194170127  0.8414862563342176  1.0000
  C   C28       1.0  0.9420825203225879  0.4117607691590446  0.7588230950630566  1.0000
  C   C29       1.0  0.9042317768236026  0.5241774256038803  0.824839814050875  1.0000
  C   C30       1.0  0.0010936581413705224  0.15955439036141494  0.08194897724550176  1.0000
  F   F1        1.0  0.02659695733541833  0.20012438965184545  0.21394357332029518  1.0000
  F   F2        1.0  0.060657039414338636  0.09676300804257809  0.011584808224045954  1.0000
  F   F3        1.0  0.9454332693503752  0.058682164730175845  0.10545107821580313  1.0000
  H   H19       1.0  0.8543616975855352  0.8655454803493513  0.056474946826485344  1.0000
  H   H20       1.0  0.0012419686511220265  0.2089679375216023  0.7867571857804814  1.0000
  H   H21       1.0  0.9453030181106006  0.4120522440719181  0.6421172920135572  1.0000
  H   H22       1.0  0.7706866708677038  0.7744586214092226  0.7068165562320718  1.0000
  Zn  Zn1       1.0  0.8199419605444255  0.5262833324742904  0.4027808640701324  1.0000
  Zn  Zn2       1.0  0.9845166180199272  0.517603736622092  0.4000574320558654  1.0000
  C   C31       1.0  0.9034454377237218  0.5175893662158468  0.6647442186281634  1.0000
  C   C32       1.0  0.9010149478393742  0.526299428000562  0.1380941970694196  1.0000
  C   C33       1.0  0.9035307873366099  0.7852383332636386  0.3968012708277051  1.0000
  C   C34       1.0  0.9009295336898268  0.2586487321112583  0.4060372152548234  1.0000
  O   O1        1.0  0.9637322285065357  0.5252107547877019  0.19079005021101644  1.0000
  O   O2        1.0  0.9656365066336836  0.5120893371560684  0.6099809238781033  1.0000
  O   O3        1.0  0.9657045926769386  0.7282193152424581  0.3936151181405807  1.0000
  O   O4        1.0  0.9636640858467768  0.3090807894065093  0.4071557488103776  1.0000
  O   O5        1.0  0.8407944365562946  0.7348062826533226  0.395682548237416  1.0000
  O   O6        1.0  0.8407263588884167  0.5186780363718944  0.6120482845117898  1.0000
  O   O7        1.0  0.8388220723738883  0.5317993946135953  0.192855677060787  1.0000
  O   O8        1.0  0.8387539301693518  0.3156694194906551  0.4092214837201058  1.0000
