data_image0
_chemical_formula_structural       NC6NC2H4C10H5C6BrH3Zn2C4O8
_chemical_formula_sum              "N2 C28 H12 Br1 Zn2 O8"
_cell_length_a       14.927258858638513
_cell_length_b       9.275150299802178
_cell_length_c       9.275428193871798
_cell_angle_alpha    85.84136921910526
_cell_angle_beta     89.94092403990386
_cell_angle_gamma    89.48389287567745

_space_group_name_H-M_alt    "P 1"
_space_group_IT_number       1

loop_
  _space_group_symop_operation_xyz
  'x, y, z'

loop_
  _atom_site_type_symbol
  _atom_site_label
  _atom_site_symmetry_multiplicity
  _atom_site_fract_x
  _atom_site_fract_y
  _atom_site_fract_z
  _atom_site_occupancy
  N   N1        1.0  0.8358494727496032  0.5621103942845604  0.40168353933474954  1.0000
  C   C1        1.0  0.7583229817340635  0.5621103658739446  0.4016835500802447  1.0000
  C   C2        1.0  0.6618904735805857  0.5621104804968289  0.40168349959046346  1.0000
  C   C3        1.0  0.6150593162970831  0.5370653544470423  0.27519008678865653  1.0000
  C   C4        1.0  0.5213480049034717  0.5370653786796329  0.2751899532464517  1.0000
  C   C5        1.0  0.4740744105694073  0.5621103030619989  0.4016835192178254  1.0000
  C   C6        1.0  0.3776418354243811  0.562110417687786  0.40168346872210603  1.0000
  N   N2        1.0  0.30011534440884113  0.5621103892771702  0.4016834794676014  1.0000
  C   C7        1.0  0.5209055008613616  0.5871554291146883  0.5281769320136942  1.0000
  C   C8        1.0  0.6146168122549732  0.5871554048820975  0.5281770655558993  1.0000
  H   H1        1.0  0.6509276327512709  0.5175788329550843  0.1767709516870295  1.0000
  H   H2        1.0  0.485823976138222  0.5175790305319543  0.176770945634102  1.0000
  H   H3        1.0  0.48503725137711595  0.606641941430436  0.6265961752093216  1.0000
  H   H4        1.0  0.650140840396378  0.6066418515704743  0.6265961825948414  1.0000
  C   C9        1.0  0.07034871944017862  0.13843042353244142  0.4040957748443814  1.0000
  C   C10       1.0  0.11753593685076869  0.21932675221135978  0.2950832786473667  1.0000
  C   C11       1.0  0.15704424484351676  0.15196272627515284  0.18053091046681402  1.0000
  C   C12       1.0  0.1497664562137968  0.0027208378173841905  0.1735155518341429  1.0000
  C   C13       1.0  0.10453548588216281  0.9203738027285684  0.2818804582444243  1.0000
  C   C14       1.0  0.06562471153011429  0.9857793415905355  0.39928379456073837  1.0000
  C   C15       1.0  0.20424408464281535  0.23657476750050546  0.06902595458654592  1.0000
  C   C16       1.0  0.24376227554457638  0.3074400250263798  0.9756730657675526  1.0000
  C   C17       1.0  0.29003624344132534  0.3904282264753859  0.8663609042808624  1.0000
  C   C18       1.0  0.329546814798273  0.4612881915728526  0.7730259105544843  1.0000
  H   H5        1.0  0.12183863356814761  0.3357987159921507  0.2973092740627239  1.0000
  H   H6        1.0  0.17985839792928926  0.9496359466901473  0.08487608707012706  1.0000
  H   H7        1.0  0.10180014625286593  0.8043077894694545  0.27565952541245853  1.0000
  H   H8        1.0  0.0071745576422159755  0.8589380840541212  0.74163748392081  1.0000
  H   H9        1.0  0.36424039230210425  0.5235092586222474  0.6910700770835039  1.0000
  C   C19       1.0  0.06828234297478719  0.5576160631121205  0.9785615820481328  1.0000
  C   C20       1.0  0.15078997265283572  0.560302065765111  0.051591643583766  1.0000
  C   C21       1.0  0.23108365238580497  0.5761544100430906  0.9749648747804688  1.0000
  C   C22       1.0  0.23013408697887358  0.5897411719767105  0.8243304743233946  1.0000
  C   C23       1.0  0.14920360521765375  0.5849737105558606  0.749805086290761  1.0000
  C   C24       1.0  0.06769113964574625  0.5665937416831144  0.8248179881064046  1.0000
  Br  Br1       1.0  0.34212629713190457  0.5816701075683237  0.0764974709595394  1.0000
  H   H10       1.0  0.8523688357362497  0.6291070985367979  0.07672097013617418  1.0000
  H   H11       1.0  0.2922607947851889  0.6026343399759115  0.764677380251853  1.0000
  H   H12       1.0  0.9220573810050562  0.6086239617180285  0.5408432151941227  1.0000
  Zn  Zn1       1.0  0.9698265983317209  0.5621066151609528  0.4016918698189551  1.0000
  Zn  Zn2       1.0  0.16613828733548464  0.5621024760434927  0.40168703588591637  1.0000
  C   C25       1.0  0.06783291391832763  0.5591490837472164  0.664890042009511  1.0000
  C   C26       1.0  0.06813410521876852  0.5650618293291361  0.13848899472848575  1.0000
  C   C27       1.0  0.06651707253411776  0.8255514675141946  0.3944515123469192  1.0000
  C   C28       1.0  0.06944988922563593  0.2986577129676553  0.40892761105669284  1.0000
  O   O1        1.0  0.14258365325459874  0.5675528313869662  0.19216029667125634  1.0000
  O   O2        1.0  0.14237940185079823  0.5566538473765752  0.6112146626228232  1.0000
  O   O3        1.0  0.1413158379595337  0.7717771573019694  0.3928336280282654  1.0000
  O   O4        1.0  0.14364715017592178  0.3524295306377825  0.41054122317181463  1.0000
  O   O5        1.0  0.9923176684997354  0.7717795605695659  0.39283768252711937  1.0000
  O   O6        1.0  0.9933812227767937  0.5566579832415761  0.6112186304501235  1.0000
  O   O7        1.0  0.9935854757307714  0.5675568985968821  0.1921625324125109  1.0000
  O   O8        1.0  0.9946489726304872  0.3524335886743903  0.4105435670011306  1.0000
