data_image0
_chemical_formula_structural       NC9NC5H8C6OCH8C7NH5Zn2C4O8
_chemical_formula_sum              "N3 C32 H21 O9 Zn2"
_cell_length_a       17.807436237873137
_cell_length_b       9.273888216677435
_cell_length_c       10.302823150593486
_cell_angle_alpha    85.7605446997574
_cell_angle_beta     89.3921433004221
_cell_angle_gamma    87.81887448081709

_space_group_name_H-M_alt    "P 1"
_space_group_IT_number       1

loop_
  _space_group_symop_operation_xyz
  'x, y, z'

loop_
  _atom_site_type_symbol
  _atom_site_label
  _atom_site_symmetry_multiplicity
  _atom_site_fract_x
  _atom_site_fract_y
  _atom_site_fract_z
  _atom_site_occupancy
  N   N1        1.0  0.6993828373974856  0.5413577271780465  0.5625516449237082  1.0000
  C   C1        1.0  0.6389989152985588  0.5022734009008946  0.5514052604806967  1.0000
  C   C2        1.0  0.5638879529176687  0.45365680320340446  0.5375403686899649  1.0000
  C   C3        1.0  0.546209796533211  0.37433851846702315  0.43231505743896137  1.0000
  C   C4        1.0  0.4732815664520063  0.3270117127990197  0.4187701417057086  1.0000
  C   C5        1.0  0.4169849585871691  0.35858387875291964  0.510416744624341  1.0000
  C   C6        1.0  0.3394803847163479  0.30841530777466847  0.49610446648733597  1.0000
  C   C7        1.0  0.2768309908315933  0.399219782741066  0.5223278024314901  1.0000
  C   C8        1.0  0.2037616306209478  0.3516674673229796  0.5087958368229015  1.0000
  C   C9        1.0  0.1400465751429075  0.4454611613592232  0.5353925932772821  1.0000
  N   N2        1.0  0.08883269263499338  0.5208648023343532  0.5567756382981695  1.0000
  C   C10       1.0  0.1927596120803703  0.2130241448267507  0.46901427019869035  1.0000
  C   C11       1.0  0.2545517162948048  0.12220428449854225  0.4427824976257564  1.0000
  C   C12       1.0  0.32750392737504797  0.16931839387270498  0.45611057667246424  1.0000
  C   C13       1.0  0.4353516590093854  0.4384512430835203  0.6158629857011064  1.0000
  C   C14       1.0  0.5083338621110056  0.4855665832708356  0.6292516183472412  1.0000
  H   H1        1.0  0.5887348570035964  0.3493652172991437  0.36054444906897176  1.0000
  H   H2        1.0  0.4606796613156866  0.26738866219692725  0.3356837143016953  1.0000
  H   H3        1.0  0.28476452413182934  0.507471523297937  0.5515445462575664  1.0000
  H   H4        1.0  0.136491520152193  0.17522118499430014  0.4583009188638092  1.0000
  H   H5        1.0  0.2459150941216968  0.014863417537245958  0.41236865624130536  1.0000
  H   H6        1.0  0.3745251614677321  0.09629707517868935  0.4368328922726292  1.0000
  H   H7        1.0  0.3935465969033069  0.46282582577398923  0.6889257548970014  1.0000
  H   H8        1.0  0.5214570553390293  0.5465453168697989  0.7113011159097722  1.0000
  C   C15       1.0  0.8963178112219872  0.10753287319786016  0.5583044718626946  1.0000
  C   C16       1.0  0.8787697993441606  0.19171903472613527  0.4426043312286252  1.0000
  C   C17       1.0  0.8548288227311489  0.1282541738823819  0.3320924066842228  1.0000
  C   C18       1.0  0.8482968833117993  0.9776170006198862  0.336865762690848  1.0000
  C   C19       1.0  0.8666312612356166  0.8921943564567882  0.45005694635812965  1.0000
  C   C20       1.0  0.8919049368819874  0.9546782132426231  0.5610339434856089  1.0000
  O   O1        1.0  0.8377362599759203  0.21858347088306251  0.22020234982951206  1.0000
  C   C21       1.0  0.8126557748291369  0.16897859832728446  0.10109930997802752  1.0000
  H   H9        1.0  0.9024381562501207  0.18389539526838614  0.8776990233028076  1.0000
  H   H10       1.0  0.8819436235482786  0.30842759724153374  0.4387091313073323  1.0000
  H   H11       1.0  0.8297487174869524  0.9251560562935647  0.25317599960280046  1.0000
  H   H12       1.0  0.8627263652876316  0.7759314139978699  0.44968256059874756  1.0000
  H   H13       1.0  0.8991759577818326  0.655364958542911  0.7752122371323057  1.0000
  H   H14       1.0  0.7587306902124291  0.11369212427289943  0.11686142931709642  1.0000
  H   H15       1.0  0.8557986371676962  0.09410011302234267  0.06153071378136322  1.0000
  H   H16       1.0  0.803516463971752  0.2631449226202329  0.02945798555501277  1.0000
  C   C22       1.0  0.894111392014108  0.5311055621227441  0.17842112738613136  1.0000
  C   C23       1.0  0.8153092377229433  0.5457039606241021  0.17779326921338812  1.0000
  C   C24       1.0  0.7761044237764858  0.5529666830793014  0.06037839572369009  1.0000
  C   C25       1.0  0.8153092236011946  0.5457038672061795  0.9424922752780929  1.0000
  C   C26       1.0  0.8941113916044441  0.531105554652737  0.9409172939835693  1.0000
  C   C27       1.0  0.9331007356990512  0.5238825972391681  0.059434878784190744  1.0000
  C   C28       1.0  0.6953206905734161  0.5679319465474204  0.06086384349620899  1.0000
  N   N3        1.0  0.6303969634148336  0.5799593050704086  0.061253950776708484  1.0000
  H   H17       1.0  0.9239600078148332  0.5255763523693417  0.5059811745877105  1.0000
  H   H18       1.0  0.7842306712339451  0.5514613817914171  0.2684042883712894  1.0000
  H   H19       1.0  0.7842307015909292  0.5514612740196946  0.8522547510893452  1.0000
  H   H20       1.0  0.9938701184743979  0.5126248627384629  0.05906971748381529  1.0000
  H   H21       1.0  0.9239599838432411  0.5255761221461812  0.6129984739074836  1.0000
  Zn  Zn1       1.0  0.8117696718948457  0.5354400629209367  0.5608923101920107  1.0000
  Zn  Zn2       1.0  0.9764459011878174  0.5267707087561541  0.5584456083756769  1.0000
  C   C29       1.0  0.894139631718746  0.525359326925546  0.7967706933438881  1.0000
  C   C30       1.0  0.8940777301427769  0.5368531700618291  0.3225673317958533  1.0000
  C   C31       1.0  0.8927352096252916  0.7945499153300595  0.5553445371220218  1.0000
  C   C32       1.0  0.8954821050710694  0.26766085162119224  0.5639935524856636  1.0000
  O   O2        1.0  0.9565602364904132  0.5354858522498358  0.370015583924195  1.0000
  O   O3        1.0  0.9566425787242212  0.5201457173650722  0.7474650739161979  1.0000
  O   O4        1.0  0.9555076476764587  0.7375205662317199  0.5525117619862079  1.0000
  O   O5        1.0  0.9576951112915864  0.3181110166599052  0.5649687993785095  1.0000
  O   O6        1.0  0.8305204055951529  0.7440997579771811  0.5543691200172938  1.0000
  O   O7        1.0  0.8316553276121547  0.5267266421066519  0.749322368307455  1.0000
  O   O8        1.0  0.8315729856901997  0.5420667267240373  0.3718713172468018  1.0000
  O   O9        1.0  0.8327078605420389  0.32469188081738526  0.566824630004908  1.0000
