data_image0
_chemical_formula_structural       NC9NC3NH7C9H10C7OCH10Zn2C4O8
_chemical_formula_sum              "N3 C33 H27 O9 Zn2"
_cell_length_a       16.053384444249904
_cell_length_b       9.272676604525723
_cell_length_c       10.300835455316063
_cell_angle_alpha    85.82006583043875
_cell_angle_beta     89.8165277291342
_cell_angle_gamma    89.72820801156413

_space_group_name_H-M_alt    "P 1"
_space_group_IT_number       1

loop_
  _space_group_symop_operation_xyz
  'x, y, z'

loop_
  _atom_site_type_symbol
  _atom_site_label
  _atom_site_symmetry_multiplicity
  _atom_site_fract_x
  _atom_site_fract_y
  _atom_site_fract_z
  _atom_site_occupancy
  N   N1        1.0  0.7928553393336821  0.5585149870593826  0.5708457585517708  1.0000
  C   C1        1.0  0.7419603647451883  0.5353928665908977  0.4959200775481301  1.0000
  C   C2        1.0  0.6787118574113996  0.5066633849415618  0.40284409255140097  1.0000
  C   C3        1.0  0.6922348841235338  0.49322798339113016  0.2720801402764066  1.0000
  C   C4        1.0  0.6154462446535133  0.46509733829532734  0.2197251819379653  1.0000
  C   C5        1.0  0.5583538234900036  0.46293606551652283  0.3213714650460966  1.0000
  C   C6        1.0  0.46755251824924615  0.4364854794349841  0.3110229231840531  1.0000
  C   C7        1.0  0.411934797748403  0.4839273418228165  0.40509981305023457  1.0000
  C   C8        1.0  0.3262450561639557  0.4588414079788918  0.395188838229626  1.0000
  C   C9        1.0  0.2698584124787248  0.5082210293294329  0.4916448192127334  1.0000
  N   N2        1.0  0.2245401728833439  0.5479152812629458  0.569180325540376  1.0000
  C   C10       1.0  0.2954463145700533  0.38618927993999164  0.2912141951041127  1.0000
  C   C11       1.0  0.3500562546021573  0.3388802650857443  0.19734945844517515  1.0000
  C   C12       1.0  0.4355389461750291  0.36378211768716184  0.20686319633550188  1.0000
  N   N3        1.0  0.5977011705535055  0.4884636807566733  0.4330076894709769  1.0000
  H   H1        1.0  0.7510150562508628  0.5028052481037018  0.22051019189342916  1.0000
  H   H2        1.0  0.6030855916499194  0.44978504788505264  0.11850677624651662  1.0000
  H   H3        1.0  0.4345889307724651  0.5421872584386387  0.4851127893623075  1.0000
  H   H4        1.0  0.2293116589915628  0.36623943724328084  0.28270503371742023  1.0000
  H   H5        1.0  0.3261219057185543  0.2824431282864488  0.11710979833695845  1.0000
  H   H6        1.0  0.4764279946315518  0.3244144379807661  0.13347362068993718  1.0000
  H   H7        1.0  0.5715656809776531  0.49111072440266756  0.5257618049157395  1.0000
  C   C13       1.0  0.006341249271115904  0.1297840639491361  0.5683633599757529  1.0000
  C   C14       1.0  0.9730153628456693  0.19473668741780395  0.6760310523560968  1.0000
  C   C15       1.0  0.9473111814994821  0.11126719396380191  0.7868428297258093  1.0000
  C   C16       1.0  0.954103438745406  0.9603533972982353  0.7937155258048304  1.0000
  C   C17       1.0  0.9860644048115569  0.8939842938150059  0.6850526761512159  1.0000
  C   C18       1.0  0.01106218399051695  0.9766349413216074  0.5716738750424308  1.0000
  C   C19       1.0  0.9254232621828586  0.8774826860681434  0.9185602410569905  1.0000
  C   C20       1.0  0.8833220931088807  0.7324177404575699  0.9057941696030347  1.0000
  C   C21       1.0  0.9712871755267684  0.7377194170475148  0.9603968426015823  1.0000
  H   H8        1.0  0.02480437603655817  0.42808607875030447  0.3555131702272667  1.0000
  H   H9        1.0  0.9686201314217749  0.3113670943038612  0.6759231838698172  1.0000
  H   H10       1.0  0.9226479231403472  0.16534632217017184  0.8685245377951755  1.0000
  H   H11       1.0  0.990038416499841  0.7774867757348339  0.6862431174416856  1.0000
  H   H12       1.0  0.032625040439684616  0.8991844696131845  0.25364955538329004  1.0000
  H   H13       1.0  0.901856649506828  0.9382114056719852  0.00040679291042866204  1.0000
  H   H14       1.0  0.8794404336306536  0.6932299426353336  0.8068198891544115  1.0000
  H   H15       1.0  0.8350589278023833  0.7048454064186657  0.9808910734403542  1.0000
  H   H16       1.0  0.020814242158561095  0.7016242742729738  0.8946675373774277  1.0000
  H   H17       1.0  0.9744332285990176  0.7132396603939205  0.06742354359391844  1.0000
  C   C22       1.0  0.0086256053680196  0.5531378003315457  0.18870207481906665  1.0000
  C   C23       1.0  0.08549114197125408  0.6250308394031847  0.1827591180405188  1.0000
  C   C24       1.0  0.12373066708330628  0.6627794401247836  0.06255044132379495  1.0000
  C   C25       1.0  0.08569115337455857  0.6252175637612006  0.9474603145934539  1.0000
  C   C26       1.0  0.008777815570601092  0.5532812021731065  0.9513351697326069  1.0000
  C   C27       1.0  0.9706055509458756  0.5179754952567498  0.07238908762920238  1.0000
  C   C28       1.0  0.2071136623856189  0.7358987491111919  0.0575589035146078  1.0000
  O   O1        1.0  0.2701851796424586  0.6290888124884504  0.06440994739757167  1.0000
  C   C29       1.0  0.348813376762537  0.6963748135249022  0.059838736187885606  1.0000
  H   H18       1.0  0.9796424596390138  0.524097229014955  0.5184733505650594  1.0000
  H   H19       1.0  0.11594160650120156  0.6519352583292022  0.2714888218756004  1.0000
  H   H20       1.0  0.11627880834082127  0.6522514859644051  0.8550151815930795  1.0000
  H   H21       1.0  0.9113274590418702  0.46251745290208546  0.07621015961073141  1.0000
  H   H22       1.0  0.8641409852851155  0.4161306433704013  0.7514874170765173  1.0000
  H   H23       1.0  0.21191401213013217  0.8061721728692589  0.14049966648395418  1.0000
  H   H24       1.0  0.2121071364750693  0.806189427260306  0.9653849599376568  1.0000
  H   H25       1.0  0.3976913574219585  0.6112010696221515  0.06529768458952367  1.0000
  H   H26       1.0  0.3576126446018793  0.7631207427620629  0.14421084513089033  1.0000
  H   H27       1.0  0.3578163667120602  0.7631758943445528  0.9666992795255567  1.0000
  Zn  Zn1       1.0  0.9174302351784015  0.5554522968138667  0.5703726273360952  1.0000
  Zn  Zn2       1.0  0.0999651902093135  0.5509662261661831  0.5696640236237316  1.0000
  C   C30       1.0  0.008715149565882598  0.5475098607842022  0.8071587162176524  1.0000
  C   C31       1.0  0.008682279265540329  0.5589104325788501  0.3328780615653575  1.0000
  C   C32       1.0  0.01016448369702139  0.8165612437696826  0.5658736605935522  1.0000
  C   C33       1.0  0.00723287320429789  0.28985731874515486  0.5741631798881275  1.0000
  O   O2        1.0  0.07797232862046477  0.5591390496339026  0.3809959037741371  1.0000
  O   O3        1.0  0.07796490136947232  0.5438753320594731  0.7585026821401436  1.0000
  O   O4        1.0  0.07913432347207072  0.7611377496430203  0.5636633020779958  1.0000
  O   O5        1.0  0.07680284426912311  0.34187664387770067  0.5758351867571119  1.0000
  O   O6        1.0  0.9405925188283774  0.7645418806347937  0.5642014644377022  1.0000
  O   O7        1.0  0.9394231063656685  0.5472811954319057  0.7590407820361675  1.0000
  O   O8        1.0  0.9394305330803924  0.5625448624640264  0.3815324422872868  1.0000
  O   O9        1.0  0.9382610486875798  0.3452824464129235  0.5763718225844219  1.0000
