data_image0
_chemical_formula_structural       NC6NC2H4C7NH3C6ClH3Zn2C4O8
_chemical_formula_sum              "N3 C25 H10 Cl1 Zn2 O8"
_cell_length_a       14.927258858638513
_cell_length_b       9.275154477615127
_cell_length_c       10.302974078461048
_cell_angle_alpha    85.7869106659326
_cell_angle_beta     89.99986750987136
_cell_angle_gamma    89.43371000992973

_space_group_name_H-M_alt    "P 1"
_space_group_IT_number       1

loop_
  _space_group_symop_operation_xyz
  'x, y, z'

loop_
  _atom_site_type_symbol
  _atom_site_label
  _atom_site_symmetry_multiplicity
  _atom_site_fract_x
  _atom_site_fract_y
  _atom_site_fract_z
  _atom_site_occupancy
  N   N1        1.0  0.8338807493874045  0.5778878871675162  0.5736007073510949  1.0000
  C   C1        1.0  0.7563542583947647  0.5778878586641951  0.5736007167854271  1.0000
  C   C2        1.0  0.659921750143871  0.5778879737367575  0.573600672292695  1.0000
  C   C3        1.0  0.6130150129531158  0.5542024742773308  0.4594232835044856  1.0000
  C   C4        1.0  0.5193037014523681  0.5542024999074905  0.45942316340421696  1.0000
  C   C5        1.0  0.4721056872422656  0.5778877962262992  0.5736006884360243  1.0000
  C   C6        1.0  0.37567311199981773  0.5778879113018253  0.5736006439379671  1.0000
  N   N2        1.0  0.29814662100717776  0.5778878827985046  0.5736006533722995  1.0000
  C   C7        1.0  0.519012357441467  0.6015732956886897  0.6877780772189084  1.0000
  C   C8        1.0  0.6127236689422146  0.6015732700585303  0.6877781973191772  1.0000
  H   H1        1.0  0.648824523888684  0.5357738202889331  0.37058672215756355  1.0000
  H   H2        1.0  0.4837208671647534  0.5357740177824973  0.3705867184184175  1.0000
  H   H3        1.0  0.48320291355692835  0.6200019393618423  0.7766147358699877  1.0000
  H   H4        1.0  0.6483065026298834  0.6200018494906596  0.776614741744168  1.0000
  C   C9        1.0  0.06861032451929772  0.1544985795999046  0.5720983771719031  1.0000
  C   C10       1.0  0.04402068310395558  0.23767766885450703  0.4576319363489574  1.0000
  C   C11       1.0  0.012144369629262694  0.17163924854806156  0.3492289541427888  1.0000
  C   C12       1.0  0.0043328395843476065  0.021518723938651844  0.3540157325985205  1.0000
  C   C13       1.0  0.029752769294111744  0.9371319596935842  0.46587300196354375  1.0000
  C   C14       1.0  0.06342570708594164  0.0012660978167813343  0.5751142300934736  1.0000
  C   C15       1.0  0.9863628962684  0.2584001502095279  0.23338289427778336  1.0000
  N   N3        1.0  0.9656417430190298  0.32814000910389  0.1402723358476654  1.0000
  H   H5        1.0  0.08598029939972478  0.23116962703199875  0.8907711947621085  1.0000
  H   H6        1.0  0.97935655129355  0.9693921518054618  0.2707012325577749  1.0000
  H   H7        1.0  0.07892293542312  0.7024958455005278  0.7886340821572736  1.0000
  C   C16       1.0  0.06601802122621314  0.5778823469322498  0.19236379075908025  1.0000
  C   C17       1.0  0.05135202894165625  0.42813478022688056  0.20106412580487773  1.0000
  C   C18       1.0  0.04407520956205647  0.35383411630512884  0.08842420354066927  1.0000
  C   C19       1.0  0.05135206850922369  0.4281348616522696  0.9659562271237702  1.0000
  C   C20       1.0  0.06601801939684271  0.5778822725090486  0.9548488095674375  1.0000
  C   C21       1.0  0.07327954129811382  0.6520261305737058  0.06870265593286606  1.0000
  Cl  Cl1       1.0  0.025753903975439092  0.16676383064657863  0.10079653166865185  1.0000
  H   H8        1.0  0.04551903351428546  0.3685766760376017  0.2950496819386892  1.0000
  H   H9        1.0  0.0455190962405474  0.36857665546456975  0.8798487157915056  1.0000
  H   H10       1.0  0.0845903545553604  0.7675159486406677  0.061064371378055864  1.0000
  Zn  Zn1       1.0  0.967857882876373  0.5778840225547497  0.573608179644064  1.0000
  Zn  Zn2       1.0  0.16416957070896443  0.5778799377703441  0.5736037887616291  1.0000
  C   C22       1.0  0.06605117663088667  0.5721385842731275  0.810702330908384  1.0000
  C   C23       1.0  0.0659784095335012  0.5836271951749701  0.3365097713526323  1.0000
  C   C24       1.0  0.06440109526479021  0.8412089932711073  0.5693706814913123  1.0000
  C   C25       1.0  0.06762843451825341  0.31455505395697103  0.5778414838174697  1.0000
  O   O1        1.0  0.14046441644580487  0.5855473785608263  0.38488479051037355  1.0000
  O   O2        1.0  0.14056120509991055  0.570214212959169  0.76232360157656  1.0000
  O   O3        1.0  0.13922773924294085  0.7874919711056234  0.5674465925725631  1.0000
  O   O4        1.0  0.14179781525174562  0.3682696307296179  0.5797617022102128  1.0000
  O   O5        1.0  0.9902295713420367  0.7874943295984396  0.5674502661901553  1.0000
  O   O6        1.0  0.9915630265887966  0.570218303674968  0.7623272121410622  1.0000
  O   O7        1.0  0.9914662383019303  0.5855514190343027  0.3848868400128429  1.0000
  O   O8        1.0  0.9927996371673464  0.3682736608908119  0.5797638490115151  1.0000
