data_image0
_chemical_formula_structural       NC10NC5H10C7OC3OC4H12C7OC4NC3H9Zn2C4O8
_chemical_formula_sum              "N3 C47 H31 O11 Zn2"
_cell_length_a       19.4436361288709
_cell_length_b       10.299371110280154
_cell_length_c       10.299375074045738
_cell_angle_alpha    85.55741756906849
_cell_angle_beta     89.69773134605877
_cell_angle_gamma    89.43124194409341

_space_group_name_H-M_alt    "P 1"
_space_group_IT_number       1

loop_
  _space_group_symop_operation_xyz
  'x, y, z'

loop_
  _atom_site_type_symbol
  _atom_site_label
  _atom_site_symmetry_multiplicity
  _atom_site_fract_x
  _atom_site_fract_y
  _atom_site_fract_z
  _atom_site_occupancy
  N   N1        1.0  0.6479027308066945  0.40986062214588853  0.5625067659709233  1.0000
  C   C1        1.0  0.5890679421794716  0.41975447184414627  0.5768948465084172  1.0000
  C   C2        1.0  0.5157400883009226  0.43209339874611735  0.5948922866938331  1.0000
  C   C3        1.0  0.4735527220687771  0.40014945823534936  0.5002029115853903  1.0000
  C   C4        1.0  0.39764926243287513  0.41058476042597297  0.5055348352964579  1.0000
  C   C5        1.0  0.3579066699632054  0.3857769851822279  0.6126040356806739  1.0000
  C   C6        1.0  0.2817866331727255  0.38970085073785216  0.5996453640669477  1.0000
  C   C7        1.0  0.24123009506088822  0.4473096804941823  0.6934404553921489  1.0000
  C   C8        1.0  0.16956716607330874  0.4509533295628692  0.6828972851826224  1.0000
  C   C9        1.0  0.1374659719225376  0.3965919774335787  0.5788454283769502  1.0000
  C   C10       1.0  0.0636738060773469  0.40029695658839826  0.5681469895609563  1.0000
  N   N2        1.0  0.004349909780582205  0.4032755653324275  0.5595461540643769  1.0000
  C   C11       1.0  0.17729753457825984  0.33827584325527776  0.485433347982309  1.0000
  C   C12       1.0  0.24897688735326884  0.33457811111069624  0.49572470975181515  1.0000
  C   C13       1.0  0.3860341465214543  0.34524289611270276  0.7436912180587769  1.0000
  C   C14       1.0  0.4447025667519763  0.38833829695019484  0.7909508530287468  1.0000
  C   C15       1.0  0.488921780945697  0.48623801653799315  0.7166133823088274  1.0000
  H   H1        1.0  0.4956487559516183  0.37108292723291325  0.4098816480857242  1.0000
  H   H2        1.0  0.37295390886967583  0.4331315363855655  0.4123796294920219  1.0000
  H   H3        1.0  0.2651052297042446  0.49055527909533597  0.7743076316250144  1.0000
  H   H4        1.0  0.13922730878658773  0.49622708924146763  0.7558373012166804  1.0000
  H   H5        1.0  0.1529505387168588  0.2952257147495299  0.40490073839065643  1.0000
  H   H6        1.0  0.2786508623656049  0.2870605747365831  0.4234802902135795  1.0000
  H   H7        1.0  0.3550608525508601  0.28098993692301133  0.8079192244900509  1.0000
  H   H8        1.0  0.4598480437416024  0.3542162929151704  0.888878403590626  1.0000
  H   H9        1.0  0.45882352196783016  0.5769663155430237  0.6913913984110879  1.0000
  H   H10       1.0  0.532209568393332  0.5117886732413164  0.779710256365634  1.0000
  C   C16       1.0  0.8260832463369978  0.025197538066159764  0.560912034562836  1.0000
  C   C17       1.0  0.8181670633259474  0.03468465463372849  0.42498829214751704  1.0000
  C   C18       1.0  0.8133974413409059  0.9222970616029987  0.3566067650452674  1.0000
  C   C19       1.0  0.818201183343373  0.7994160211986853  0.42529910476378285  1.0000
  C   C20       1.0  0.826175976450278  0.787928551260448  0.5611521243931685  1.0000
  C   C21       1.0  0.8298907863733219  0.9014209155154723  0.6282116665866014  1.0000
  C   C22       1.0  0.8057557894352815  0.9321735736950792  0.2129185766725581  1.0000
  O   O1        1.0  0.8339536912226874  0.8466390885754689  0.14865936441040084  1.0000
  C   C23       1.0  0.7661173861431269  0.03900297149330644  0.1421346733086073  1.0000
  C   C24       1.0  0.7853500510240797  0.08385777625558077  0.014828275415823324  1.0000
  C   C25       1.0  0.7481524745671748  0.18358557696979155  0.9457541936858594  1.0000
  O   O2        1.0  0.77011927882463  0.2250368165290091  0.8194698309349726  1.0000
  C   C26       1.0  0.7373395187758988  0.32515957267530204  0.738304477688487  1.0000
  C   C27       1.0  0.6904531427659817  0.23848728179403425  0.004723406126728058  1.0000
  C   C28       1.0  0.67051444677829  0.19335627971451366  0.13051856027434283  1.0000
  C   C29       1.0  0.7078341255182474  0.09390782030832835  0.19883942599124138  1.0000
  H   H11       1.0  0.84207149166172  0.21461450702574594  0.8171804713146744  1.0000
  H   H12       1.0  0.8164673159077966  0.1296713959319609  0.37197098315175753  1.0000
  H   H13       1.0  0.8150421757485976  0.71263481688911  0.37260119425241545  1.0000
  H   H14       1.0  0.835994026121295  0.8933032343788085  0.7329989088683151  1.0000
  H   H15       1.0  0.8298116368711972  0.45605776461988723  0.6132104727243973  1.0000
  H   H16       1.0  0.8298227122706622  0.04215803791279171  0.9690845907724706  1.0000
  H   H17       1.0  0.7654022130622988  0.337769314925898  0.6441974830004825  1.0000
  H   H18       1.0  0.7383498916127523  0.4185790645826344  0.7853166613838668  1.0000
  H   H19       1.0  0.6834399064978814  0.2979297841936872  0.7189872986976216  1.0000
  H   H20       1.0  0.660581260588598  0.31555843355525287  0.954081405238111  1.0000
  H   H21       1.0  0.62578191755969  0.23522270529108671  0.17504263173365264  1.0000
  H   H22       1.0  0.6906706507300975  0.05903864656657066  0.2953637665443374  1.0000
  C   C30       1.0  0.826153004925311  0.4067049629298103  0.17964516020009305  1.0000
  C   C31       1.0  0.8791060203517691  0.49883802076319667  0.17079124227909426  1.0000
  C   C32       1.0  0.9052798563535245  0.5463974849756176  0.04907291792852364  1.0000
  C   C33       1.0  0.8789946331502957  0.4986023418992859  0.9355667761575477  1.0000
  C   C34       1.0  0.8261061883568173  0.4064211422973217  0.9424190152223081  1.0000
  C   C35       1.0  0.7998681171971607  0.36125943277994255  0.06493490389003487  1.0000
  C   C36       1.0  0.9616883267831232  0.6426746517994728  0.03965758377108998  1.0000
  O   O3        1.0  0.0056404331164547905  0.6371776370842365  0.9496561127657955  1.0000
  C   C37       1.0  0.9682256627802828  0.7451998039228245  0.13226219716965562  1.0000
  C   C38       1.0  0.033636154428801746  0.7905526150486923  0.1634901729570497  1.0000
  C   C39       1.0  0.04031290805759746  0.888441488179583  0.24968239926060143  1.0000
  C   C40       1.0  0.1074844767033696  0.9335524358370905  0.2819267908462444  1.0000
  N   N3        1.0  0.16148284973436033  0.9698109384872966  0.30784388591903  1.0000
  C   C41       1.0  0.9815856861303571  0.9423777155842006  0.3043802923462549  1.0000
  C   C42       1.0  0.9164045637193621  0.8990323256646269  0.27265009341730484  1.0000
  C   C43       1.0  0.9095910546920581  0.8014159646308774  0.18673464700277553  1.0000
  H   H23       1.0  0.7269475840456712  0.2313620876229039  0.40378195984655574  1.0000
  H   H24       1.0  0.9005828314425234  0.5326427087246854  0.2588069105877869  1.0000
  H   H25       1.0  0.8994714586324145  0.5344600596561451  0.8416629818679433  1.0000
  H   H26       1.0  0.7590454399591935  0.29023090365731896  0.07095680675120541  1.0000
  H   H27       1.0  0.8061853556223426  0.37020226216767954  0.6176528065701867  1.0000
  H   H28       1.0  0.07935543433714033  0.7489877017356956  0.12171691867678103  1.0000
  H   H29       1.0  0.9861830489919873  0.018171093428712044  0.3710452601023926  1.0000
  H   H30       1.0  0.871028064780772  0.9415696083961719  0.3142719910022951  1.0000
  H   H31       1.0  0.8585007278904888  0.7709661414831512  0.1618457628859551  1.0000
  Zn  Zn1       1.0  0.750765687359768  0.40795684281516637  0.5616599087285166  1.0000
  Zn  Zn2       1.0  0.9014869427978263  0.4051687329612579  0.5604036896518075  1.0000
  C   C44       1.0  0.8261128914859232  0.4013010971050926  0.7982367797772668  1.0000
  C   C45       1.0  0.826141384734477  0.4118260868041854  0.323826932873412  1.0000
  C   C46       1.0  0.8261552199806955  0.6437581364500451  0.5559313412347455  1.0000
  C   C47       1.0  0.8260990046151444  0.1693674880758189  0.5661324405953785  1.0000
  O   O4        1.0  0.8833354151518293  0.41248104383441137  0.37173892252325036  1.0000
  O   O5        1.0  0.8833128063974333  0.39852904962078944  0.7493709747430901  1.0000
  O   O6        1.0  0.8833462160539648  0.5943161889404001  0.5537076256204791  1.0000
  O   O7        1.0  0.8833019540714465  0.21669391479269118  0.5674021746981852  1.0000
  O   O8        1.0  0.7689506246523808  0.5964316619365946  0.554661424103994  1.0000
  O   O9        1.0  0.7689172151866427  0.40064608295325943  0.7503247044690147  1.0000
  O   O10       1.0  0.7689398240770737  0.41459803249094607  0.37269109076018614  1.0000
  O   O11       1.0  0.7689063629867753  0.21881089412419708  0.5683544403046522  1.0000
