data_image0
_chemical_formula_structural       NC11NC3H8C16H10C12SCH12Zn2C4O8
_chemical_formula_sum              "N2 C47 H30 S1 Zn2 O8"
_cell_length_a       17.807433833752565
_cell_length_b       10.29914801576943
_cell_length_c       10.299780138516091
_cell_angle_alpha    85.5534209466543
_cell_angle_beta     88.51639907153644
_cell_angle_gamma    90.69784511463686

_space_group_name_H-M_alt    "P 1"
_space_group_IT_number       1

loop_
  _space_group_symop_operation_xyz
  'x, y, z'

loop_
  _atom_site_type_symbol
  _atom_site_label
  _atom_site_symmetry_multiplicity
  _atom_site_fract_x
  _atom_site_fract_y
  _atom_site_fract_z
  _atom_site_occupancy
  N   N1        1.0  0.7077289296351961  0.4381785256391532  0.5341307920060198  1.0000
  C   C1        1.0  0.6568994021038403  0.40346796400334384  0.6007043133039398  1.0000
  C   C2        1.0  0.5936623452925096  0.360290885602969  0.6835132787321687  1.0000
  C   C3        1.0  0.6053709988848984  0.2967705134036085  0.806252099415398  1.0000
  C   C4        1.0  0.5440417487700776  0.2552726972799113  0.8867765512624604  1.0000
  C   C5        1.0  0.47084940362046557  0.27698214221364537  0.8452030769551298  1.0000
  C   C6        1.0  0.4581640141962817  0.3406569467558491  0.7220040172310996  1.0000
  C   C7        1.0  0.38040385300200097  0.36369582539885914  0.6776494753705782  1.0000
  C   C8        1.0  0.3616279835254849  0.3467848701293323  0.5480821886929609  1.0000
  C   C9        1.0  0.2884056938393809  0.36845557108042476  0.5064646609051611  1.0000
  C   C10       1.0  0.23301630841397333  0.4073555460862302  0.5935940531787955  1.0000
  C   C11       1.0  0.1576574957756306  0.42968437681026567  0.5506150240720888  1.0000
  N   N2        1.0  0.09707438338010842  0.44763509784463174  0.5160630126894381  1.0000
  C   C12       1.0  0.2511006853209286  0.42447694352800963  0.722630144113476  1.0000
  C   C13       1.0  0.32427018850559347  0.40277138309196353  0.7645031035412977  1.0000
  C   C14       1.0  0.5203505742775398  0.38215020228139307  0.6414959823175769  1.0000
  H   H1        1.0  0.6618317452571438  0.2793641519710741  0.8396232390967431  1.0000
  H   H2        1.0  0.5532255221290591  0.20584346413386156  0.9815285938453691  1.0000
  H   H3        1.0  0.4242003464857873  0.24244142382881462  0.9086533916075907  1.0000
  H   H4        1.0  0.4033072333457403  0.3151205902931136  0.4793819632117914  1.0000
  H   H5        1.0  0.27497004275515385  0.3545448876929991  0.40644058651042486  1.0000
  H   H6        1.0  0.20870452016440402  0.45491794541227226  0.790816129438487  1.0000
  H   H7        1.0  0.33717763858938204  0.41822755337288686  0.8643437953684106  1.0000
  H   H8        1.0  0.511865451639605  0.4329419702519761  0.5469776832806885  1.0000
  C   C15       1.0  0.9023517363436365  0.061504270249699976  0.5252647369779979  1.0000
  C   C16       1.0  0.8852088902315937  0.0706490189495461  0.3925924022972885  1.0000
  C   C17       1.0  0.8765723238109889  0.9581571348573571  0.3251575535690632  1.0000
  C   C18       1.0  0.8853092092051517  0.835399526199775  0.3921831751790894  1.0000
  C   C19       1.0  0.9024587451446721  0.824299521766654  0.5249399484221937  1.0000
  C   C20       1.0  0.910875758456899  0.9378653077213623  0.5906632388499187  1.0000
  C   C21       1.0  0.8584374454980648  0.9688767862840716  0.18480621519586385  1.0000
  C   C22       1.0  0.8939882599198304  0.8887310972021087  0.09794267240031718  1.0000
  C   C23       1.0  0.8768940913995452  0.8989446029726457  0.9658506242755719  1.0000
  C   C24       1.0  0.8240736176741346  0.9891993351265046  0.918826090199855  1.0000
  C   C25       1.0  0.7883859180479232  0.06932165238889931  0.004412103234281876  1.0000
  C   C26       1.0  0.8054265206832542  0.05934811720694966  0.13652758273627064  1.0000
  C   C27       1.0  0.8065028803762276  0.9995911144379106  0.7828235924739209  1.0000
  C   C28       1.0  0.7917875772656051  0.008294130912987807  0.6689234711366185  1.0000
  C   C29       1.0  0.774556131112459  0.018485245116529384  0.5355475894088433  1.0000
  C   C30       1.0  0.7598432977157683  0.0271869496246957  0.4216658603777237  1.0000
  H   H9        1.0  0.9089069720081048  0.3854604735357932  0.5763120863145286  1.0000
  H   H10       1.0  0.879545567854144  0.16555213135895921  0.34094751150282643  1.0000
  H   H11       1.0  0.8777067210343747  0.748307095772026  0.3411228314924246  1.0000
  H   H12       1.0  0.9240962782488329  0.9300957844666822  0.6929977736858028  1.0000
  H   H13       1.0  0.9343623405781699  0.5960310318740043  0.7757112185053432  1.0000
  H   H14       1.0  0.9357188241929487  0.8193501137624158  0.13185418835953366  1.0000
  H   H15       1.0  0.9050061879252297  0.836686356738332  0.9003741537079849  1.0000
  H   H16       1.0  0.7472530100872665  0.13928111693928047  0.969103022797925  1.0000
  H   H17       1.0  0.7764387130391509  0.12119505992136137  0.2012419407167676  1.0000
  H   H18       1.0  0.7469242455305474  0.03482778266062181  0.3216680971338648  1.0000
  C   C31       1.0  0.9024354255747373  0.4427913222962123  0.1437488560686713  1.0000
  C   C32       1.0  0.8309956926476462  0.38303970581487334  0.15058280795103207  1.0000
  C   C33       1.0  0.7947669066759292  0.3528766407526814  0.03690003964127775  1.0000
  C   C34       1.0  0.8309342187822504  0.3832636707869892  0.9152816696551096  1.0000
  C   C35       1.0  0.9023750714692489  0.4430124907434654  0.9064558286965148  1.0000
  C   C36       1.0  0.9377255929564559  0.4724425189184054  0.02123112321046272  1.0000
  C   C37       1.0  0.719188632120691  0.2896794428824374  0.045192638290249665  1.0000
  C   C38       1.0  0.663555113480233  0.32999270520487095  0.9568004026256546  1.0000
  C   C39       1.0  0.5924373052621543  0.2704818011183492  0.9648411533571086  1.0000
  C   C40       1.0  0.5759158227459709  0.17026225746593715  0.061212427659522284  1.0000
  C   C41       1.0  0.6308806128314993  0.12913375224625168  0.14923038067947236  1.0000
  C   C42       1.0  0.7020448748251296  0.18847234007477967  0.1415499548776296  1.0000
  S   S1        1.0  0.4846926951150911  0.09376912118090928  0.07107822546106357  1.0000
  C   C43       1.0  0.44618240783455226  0.2070586975002906  0.1815463831798565  1.0000
  H   H19       1.0  0.9296681829464025  0.46551216345299795  0.4686013288394304  1.0000
  H   H20       1.0  0.8029164005138735  0.36143361543415  0.24444396603494822  1.0000
  H   H21       1.0  0.8036878417135221  0.3585984651316947  0.8274839111566914  1.0000
  H   H22       1.0  0.9928384804787074  0.5185375681754261  0.015190640396782312  1.0000
  H   H23       1.0  0.9295806731798583  0.46583752958073865  0.5756356837218473  1.0000
  H   H24       1.0  0.6747374247374466  0.4086387585507932  0.8825703617613901  1.0000
  H   H25       1.0  0.5501123520031821  0.3027898969472764  0.8964599881699988  1.0000
  H   H26       1.0  0.6185501587539682  0.05115584609583613  0.2236382745663239  1.0000
  H   H27       1.0  0.7439653377498968  0.1541032577020878  0.20984993565630378  1.0000
  H   H28       1.0  0.47794955265817296  0.20179965392482724  0.2730888472084432  1.0000
  H   H29       1.0  0.3865600259022349  0.18047968599089034  0.205096083403894  1.0000
  H   H30       1.0  0.449100507690872  0.3078601156120231  0.1347774362968881  1.0000
  Zn  Zn1       1.0  0.8200856159802253  0.44090401532869294  0.5289243068762773  1.0000
  Zn  Zn2       1.0  0.9847176799467262  0.44489899069401373  0.5212800879265718  1.0000
  C   C44       1.0  0.9023840703373255  0.43779650241591855  0.7622901382821738  1.0000
  C   C45       1.0  0.9024210235864693  0.4480081860331775  0.287914299809507  1.0000
  C   C46       1.0  0.9024350670742171  0.680113398512401  0.5198265352699781  1.0000
  C   C47       1.0  0.902369970447758  0.20568972815306896  0.5303779753304401  1.0000
  O   O1        1.0  0.96489319964077  0.4512694192488744  0.3333966008561111  1.0000
  O   O2        1.0  0.9648638213990657  0.43756638314756224  0.711005678514258  1.0000
  O   O3        1.0  0.9649041595821984  0.6332403212150546  0.5152146421432696  1.0000
  O   O4        1.0  0.9648528052888757  0.2555954890809768  0.5291875424608724  1.0000
  O   O5        1.0  0.8399504344572329  0.6302075155798526  0.5210168549437418  1.0000
  O   O6        1.0  0.8399100964950756  0.43453513793410964  0.7168078214077593  1.0000
  O   O7        1.0  0.8399394749039637  0.44823812832392984  0.33919718242910235  1.0000
  O   O8        1.0  0.8398990805399879  0.25256418889456067  0.534988221401856  1.0000
