data_image0
_chemical_formula_structural       NC12NC2H8C6NH7C7ONH5Zn2C4O8
_chemical_formula_sum              "N4 C31 H20 O9 Zn2"
_cell_length_a       19.240039667572717
_cell_length_b       9.274771166103584
_cell_length_c       9.273042158839656
_cell_angle_alpha    86.05644510922068
_cell_angle_beta     90.09323012154856
_cell_angle_gamma    90.59704977044065

_space_group_name_H-M_alt    "P 1"
_space_group_IT_number       1

loop_
  _space_group_symop_operation_xyz
  'x, y, z'

loop_
  _atom_site_type_symbol
  _atom_site_label
  _atom_site_symmetry_multiplicity
  _atom_site_fract_x
  _atom_site_fract_y
  _atom_site_fract_z
  _atom_site_occupancy
  N   N1        1.0  0.6610736300978635  0.5618844484599987  0.4072629552944915  1.0000
  C   C1        1.0  0.60092526167288  0.5618845407814024  0.4072628641899865  1.0000
  C   C2        1.0  0.5261072250583364  0.5618846694475581  0.4072627115697993  1.0000
  C   C3        1.0  0.4893700190516591  0.49149050916126513  0.5221618996455406  1.0000
  C   C4        1.0  0.4166987328927127  0.4913683635494377  0.522258169004151  1.0000
  C   C5        1.0  0.3797749904257769  0.5618847696010449  0.40726245869559174  1.0000
  C   C6        1.0  0.41722692756974317  0.6324013856112409  0.29226696392106266  1.0000
  C   C7        1.0  0.4898970767747869  0.6322789798597453  0.29236336970601184  1.0000
  C   C8        1.0  0.302569899458757  0.5618846811173934  0.40726235295737057  1.0000
  C   C9        1.0  0.2647892574309027  0.4365744038211541  0.4539582406777334  1.0000
  C   C10       1.0  0.1921190804568639  0.4366920718361722  0.4538566709496523  1.0000
  C   C11       1.0  0.1562376118716629  0.5618845383558335  0.40726242081580727  1.0000
  C   C12       1.0  0.081419574313306  0.5618844149250926  0.40726269701544027  1.0000
  N   N2        1.0  0.021271257427137  0.561884372016197  0.4072629284080205  1.0000
  C   C13       1.0  0.19330365451687917  0.6870770884798911  0.3606681118304651  1.0000
  C   C14       1.0  0.2659748629984552  0.6871949546572185  0.36056636128941055  1.0000
  H   H1        1.0  0.5168815129428218  0.43699772923328783  0.6118710779746559  1.0000
  H   H2        1.0  0.38940754187985915  0.43777504741988155  0.6132037809349857  1.0000
  H   H3        1.0  0.3903315878981176  0.6859947311942312  0.20132129550282962  1.0000
  H   H4        1.0  0.5178153540437002  0.6867716516465101  0.20265449766453347  1.0000
  H   H5        1.0  0.29141420768254883  0.3379130932767884  0.48872726102949166  1.0000
  H   H6        1.0  0.1639418885646133  0.33904154781150586  0.48977031711479146  1.0000
  H   H7        1.0  0.1660510228379991  0.7847275854212832  0.32475448186292377  1.0000
  H   H8        1.0  0.2935363919640464  0.7858563526205611  0.32579729109046607  1.0000
  C   C15       1.0  0.8390426179886623  0.1382961481606766  0.40804854409939084  1.0000
  C   C16       1.0  0.822941064201225  0.22024732191250007  0.2791560713797421  1.0000
  C   C17       1.0  0.8133280701528975  0.15383174445267067  0.14944583057774752  1.0000
  C   C18       1.0  0.8198522797621798  0.004077624770086437  0.14768855908379952  1.0000
  C   C19       1.0  0.8346671183252016  0.9207883739154387  0.2748104262748765  1.0000
  C   C20       1.0  0.8433089082239289  0.9854617688671814  0.40648981624455893  1.0000
  N   N3        1.0  0.7976523521301346  0.23886749554200915  0.01913675478570376  1.0000
  H   H9        1.0  0.9175269210120426  0.2212788691342524  0.7234880716092396  1.0000
  H   H10       1.0  0.8194361656261586  0.3368341989644843  0.2786024157927176  1.0000
  H   H11       1.0  0.8127850059852887  0.9515392553186186  0.04788961522520219  1.0000
  H   H12       1.0  0.8377266650471404  0.804580880406027  0.27068251997905546  1.0000
  H   H13       1.0  0.8933560219008091  0.690655868848427  0.6211003824996435  1.0000
  H   H14       1.0  0.7928636318839313  0.3509409042928362  0.0190899414884449  1.0000
  H   H15       1.0  0.7906524964519788  0.19037129981959586  0.9217081546049681  1.0000
  C   C21       1.0  0.8408209552657194  0.5574209298720818  0.9840124624731754  1.0000
  C   C22       1.0  0.7770302523637802  0.5666063300485262  0.05667638188379831  1.0000
  C   C23       1.0  0.7145649157207213  0.5897441396148011  0.980377659946681  1.0000
  C   C24       1.0  0.7162668350304476  0.6019542675551182  0.8288564929429776  1.0000
  C   C25       1.0  0.7789090574087251  0.5906510494362938  0.755187039835056  1.0000
  C   C26       1.0  0.8415305813181312  0.5663369114625403  0.8305258958854049  1.0000
  C   C27       1.0  0.648199041189061  0.5997020376190543  0.06021937145979605  1.0000
  O   O1        1.0  0.6432746175409356  0.5438819338723673  0.18769270162502627  1.0000
  N   N4        1.0  0.5894475947788359  0.6728815282045493  0.9965482729525553  1.0000
  H   H16       1.0  0.009726707893959796  0.6125183944261952  0.083871106714239  1.0000
  H   H17       1.0  0.6690746226534875  0.6162162705044683  0.7662071279415055  1.0000
  H   H18       1.0  0.95534468314028  0.5967551222100222  0.5475481206790603  1.0000
  H   H19       1.0  0.5931084554809909  0.7351705553547019  0.8987678339588623  1.0000
  H   H20       1.0  0.5424700005605312  0.6727191772499101  0.05279104252042853  1.0000
  Zn  Zn1       1.0  0.7650188813927498  0.5618806628973252  0.4072712655411357  1.0000
  Zn  Zn2       1.0  0.9173259755098054  0.5618765152439309  0.40726640284455556  1.0000
  C   C28       1.0  0.8413659396006069  0.5589052000581143  0.6705272806924598  1.0000
  C   C29       1.0  0.8409805897748033  0.5648537995507232  0.14401052575811787  1.0000
  C   C30       1.0  0.842494087895511  0.8252689073163471  0.40104083570301685  1.0000
  C   C31       1.0  0.839852380845075  0.29848836006749674  0.41349705078143173  1.0000
  O   O2        1.0  0.8988338813456226  0.5673404715351857  0.1977055036077564  1.0000
  O   O3        1.0  0.899110202490535  0.5564142875480078  0.61682819926331  1.0000
  O   O4        1.0  0.9000204185941089  0.771506365594361  0.39921598553823157  1.0000
  O   O5        1.0  0.8979236132313273  0.35224840267068247  0.4153176092456596  1.0000
  O   O6        1.0  0.784421191696293  0.771508775473479  0.39922005913410635  1.0000
  O   O7        1.0  0.7835109842526081  0.5564184296550245  0.6168321928193894  1.0000
  O   O8        1.0  0.7832346614481519  0.5673445451241936  0.197707764358648  1.0000
  O   O9        1.0  0.7823243933696429  0.35225246708074603  0.4153199780778015  1.0000
