data_image0
_chemical_formula_structural       NC5N2C2NH4C10H6C6FH3Zn2C4O8
_chemical_formula_sum              "N4 C27 H13 F1 Zn2 O8"
_cell_length_a       13.87973921873968
_cell_length_b       9.275150299802176
_cell_length_c       9.275646106892307
_cell_angle_alpha    84.62811981021342
_cell_angle_beta     90.02253601323379
_cell_angle_gamma    89.48389152441209

_space_group_name_H-M_alt    "P 1"
_space_group_IT_number       1

loop_
  _space_group_symop_operation_xyz
  'x, y, z'

loop_
  _atom_site_type_symbol
  _atom_site_label
  _atom_site_symmetry_multiplicity
  _atom_site_fract_x
  _atom_site_fract_y
  _atom_site_fract_z
  _atom_site_occupancy
  N   N1        1.0  0.8972051278543248  0.5961261816971821  0.3988961621306575  1.0000
  C   C1        1.0  0.8239296246291383  0.621280098925298  0.3420433724857579  1.0000
  C   C2        1.0  0.7329241062385141  0.6525237296451678  0.2714260654833509  1.0000
  C   C3        1.0  0.6466932919005505  0.6210291629537847  0.3448955859263796  1.0000
  C   C4        1.0  0.5600447054880651  0.6525236645548115  0.2714261058062668  1.0000
  C   C5        1.0  0.46945250373032027  0.6212799552450864  0.3420432699443505  1.0000
  N   N2        1.0  0.39650969685185844  0.5961261571774821  0.39889615126259326  1.0000
  N   N3        1.0  0.5612842741052355  0.7126780358061243  0.13215308549015692  1.0000
  C   C6        1.0  0.6458785720602008  0.7440552148518993  0.06273262554704351  1.0000
  C   C7        1.0  0.6454637728381537  0.8062461029573543  0.9084359929189487  1.0000
  N   N4        1.0  0.7308871730513621  0.7126779890016535  0.13215309652040497  1.0000
  H   H1        1.0  0.6470122478297565  0.5729007876033114  0.4560386867690663  1.0000
  H   H2        1.0  0.7100494785455895  0.8743949093667904  0.8856248232476759  1.0000
  H   H3        1.0  0.6459828304956869  0.7170235937945674  0.8366306734919844  1.0000
  H   H4        1.0  0.5800446704034119  0.8743928526599221  0.8856240679404902  1.0000
  C   C8        1.0  0.14940490459715794  0.17239486221520495  0.4013126253410304  1.0000
  C   C9        1.0  0.20003561558690097  0.25561122369946876  0.2921100163938366  1.0000
  C   C10       1.0  0.2424018957817455  0.19068513205696225  0.1773578732896477  1.0000
  C   C11       1.0  0.23456726467138478  0.04159254679604162  0.17033027928201205  1.0000
  C   C12       1.0  0.18603974127564693  0.9569392610016519  0.278884169224364  1.0000
  C   C13       1.0  0.14431917150270432  0.019846190426532573  0.39649225258316445  1.0000
  C   C14       1.0  0.2930434888851889  0.2776702513238434  0.06565845783032831  1.0000
  C   C15       1.0  0.3354433021852592  0.3505222697861259  0.9721427658130457  1.0000
  C   C16       1.0  0.3850915159215775  0.43583688164475226  0.8626399688813478  1.0000
  C   C17       1.0  0.4274831539553543  0.5086832268305221  0.7691422031649062  1.0000
  H   H5        1.0  0.10379471193727419  0.4322748259893608  0.6305247164216521  1.0000
  H   H6        1.0  0.2046654467082487  0.37203581301290267  0.29433989430890684  1.0000
  H   H7        1.0  0.26683451155275084  0.9903941046082264  0.08153623065866689  1.0000
  H   H8        1.0  0.18309124125099216  0.8410056435331519  0.2726523868922992  1.0000
  H   H9        1.0  0.08182760373517728  0.8857188668833227  0.7394429988921287  1.0000
  H   H10       1.0  0.4647065484142302  0.5726484996619863  0.6870434424425422  1.0000
  C   C18       1.0  0.14672282110002466  0.6006368417626615  0.9750363040923453  1.0000
  C   C19       1.0  0.23484787082904113  0.6157178349359032  0.047011376216149925  1.0000
  C   C20       1.0  0.3218600128869919  0.617250081793481  0.9715568443723863  1.0000
  C   C21       1.0  0.3222761022659182  0.6035834197408458  0.8232583269824612  1.0000
  C   C22       1.0  0.23564635116372123  0.5909083399503432  0.749337610816355  1.0000
  C   C23       1.0  0.1470012476729683  0.5916042586453756  0.8227685651633521  1.0000
  F   F1        1.0  0.40615344866753067  0.6302774494691059  0.04291795870299975  1.0000
  H   H11       1.0  0.9240218761683607  0.48340775491980925  0.0888560165343848  1.0000
  H   H12       1.0  0.3898337391424751  0.6041870629707939  0.7649395321002928  1.0000
  H   H13       1.0  0.996194254222538  0.5186142609364255  0.5483379821963128  1.0000
  Zn  Zn1       1.0  0.04129366789583222  0.596122219084704  0.39890451901607316  1.0000
  Zn  Zn2       1.0  0.2524212172601623  0.5961181737639554  0.39889969404962855  1.0000
  C   C24       1.0  0.14698099548303256  0.5875632246850941  0.6625617154241374  1.0000
  C   C25       1.0  0.1467361842998138  0.6046789872466894  0.13524262890339855  1.0000
  C   C26       1.0  0.14527365911281587  0.8597211583150987  0.3916515429864329  1.0000
  C   C27       1.0  0.14844345905599  0.33251931917774247  0.40615288815785733  1.0000
  O   O1        1.0  0.226862511572959  0.6060277379287023  0.18900753977024354  1.0000
  O   O2        1.0  0.22709559941454957  0.5862103195757569  0.6087927332062173  1.0000
  O   O3        1.0  0.225715824116137  0.805981276917846  0.39003084371890107  1.0000
  O   O4        1.0  0.22824221473034645  0.38625679206331465  0.4077693209750388  1.0000
  O   O5        1.0  0.06547259837816544  0.8059836007883774  0.3900348920847083  1.0000
  O   O6        1.0  0.0668523632431357  0.5862143778882625  0.6087966947493153  1.0000
  O   O7        1.0  0.06661927519733712  0.60603176444887  0.1890097662065513  1.0000
  O   O8        1.0  0.06799897844826708  0.3862608071098137  0.4077716556879136  1.0000
