data_image0
_chemical_formula_structural       Zn4O13C54HCNHCNCNH5CNCNHCNCNH2CNH2CNCNCNCNCNHCNCNCNCNCNCN
_chemical_formula_sum              "Zn4 O13 C73 H13 N19"
_cell_length_a       21.395364
_cell_length_b       17.077402
_cell_length_c       21.395355
_cell_angle_alpha    90.018045
_cell_angle_beta     90.02455200000001
_cell_angle_gamma    90.037834

_space_group_name_H-M_alt    "P 1"
_space_group_IT_number       1

loop_
  _space_group_symop_operation_xyz
  'x, y, z'

loop_
  _atom_site_type_symbol
  _atom_site_label
  _atom_site_symmetry_multiplicity
  _atom_site_fract_x
  _atom_site_fract_y
  _atom_site_fract_z
  _atom_site_occupancy
  Zn  Zn1       1.0  0.957893  0.6877139999999999  0.354264  1.0000
  Zn  Zn2       1.0  0.95781  0.556466  0.249487  1.0000
  Zn  Zn3       1.0  0.853108  0.6876800000000001  0.2495  1.0000
  Zn  Zn4       1.0  0.8530919999999999  0.5564520000000001  0.354227  1.0000
  O   O1        1.0  0.905476  0.622078  0.301869  1.0000
  O   O2        1.0  0.045560000000000045  0.670324  0.340374  1.0000
  O   O3        1.0  0.9438930000000001  0.573863  0.161811  1.0000
  O   O4        1.0  0.86705  0.797531  0.263418  1.0000
  O   O5        1.0  0.045498999999999956  0.573897  0.263395  1.0000
  O   O6        1.0  0.944035  0.7975559999999999  0.340387  1.0000
  O   O7        1.0  0.866969  0.670265  0.161821  1.0000
  O   O8        1.0  0.765428  0.6702520000000001  0.263383  1.0000
  O   O9        1.0  0.8670219999999998  0.5738730000000001  0.44190999999999997  1.0000
  O   O10       1.0  0.7654159999999999  0.5738389999999998  0.340325  1.0000
  O   O11       1.0  0.944019  0.67031  0.441937  1.0000
  O   O12       1.0  0.943877  0.44661700000000004  0.26336  1.0000
  O   O13       1.0  0.8669409999999999  0.44660699999999987  0.340312  1.0000
  C   C1        1.0  0.905415  0.4181299999999999  0.301844  1.0000
  C   C2        1.0  0.905447  0.33087999999999995  0.301855  1.0000
  C   C3        1.0  0.742688  0.62204  0.301852  1.0000
  C   C4        1.0  0.673047  0.6220049999999999  0.301859  1.0000
  C   C5        1.0  0.9455479999999999  0.289922  0.261829  1.0000
  C   C6        1.0  0.945579  0.20794100000000004  0.261845  1.0000
  C   C7        1.0  0.9055040000000001  0.1669210000000001  0.301884  1.0000
  C   C8        1.0  0.865401  0.207885  0.341914  1.0000
  C   C9        1.0  0.865374  0.2898640000000001  0.341901  1.0000
  C   C10       1.0  0.8654590000000001  0.03701499999999991  0.341938  1.0000
  C   C11       1.0  0.8654849999999998  0.9550309999999999  0.341951  1.0000
  C   C12       1.0  0.9456639999999998  0.9550919999999999  0.261882  1.0000
  C   C13       1.0  0.945637  0.037070999999999965  0.261869  1.0000
  C   C14       1.0  0.905533  0.07803000000000015  0.301898  1.0000
  C   C15       1.0  0.640388  0.672132  0.342004  1.0000
  C   C16       1.0  0.574953  0.672153  0.342006  1.0000
  C   C17       1.0  0.542179  0.6220319999999999  0.301871  1.0000
  C   C18       1.0  0.574845  0.571901  0.261718  1.0000
  C   C19       1.0  0.64028  0.5718869999999999  0.261712  1.0000
  C   C20       1.0  0.43846199999999996  0.5513410000000001  0.296834  1.0000
  C   C21       1.0  0.373029  0.551353  0.296844  1.0000
  C   C22       1.0  0.340358  0.6220759999999999  0.301885  1.0000
  C   C23       1.0  0.373128  0.6927869999999998  0.306929  1.0000
  C   C24       1.0  0.43856199999999995  0.6927730000000001  0.306923  1.0000
  C   C25       1.0  0.471226  0.6220419999999999  0.301872  1.0000
  C   C26       1.0  0.236746  0.67223  0.342034  1.0000
  C   C27       1.0  0.17131  0.6722520000000001  0.342032  1.0000
  C   C28       1.0  0.171204  0.571993  0.261747  1.0000
  C   C29       1.0  0.236639  0.571978  0.261746  1.0000
  C   C30       1.0  0.269407  0.6220950000000001  0.301893  1.0000
  C   C31       1.0  0.06889900000000004  0.622116  0.301887  1.0000
  C   C32       1.0  0.1385400000000001  0.6221319999999999  0.301895  1.0000
  C   C33       1.0  0.9055279999999999  0.6220939999999999  0.465293  1.0000
  C   C34       1.0  0.90555  0.622101  0.534934  1.0000
  C   C35       1.0  0.9055539999999999  0.826822  0.301908  1.0000
  C   C36       1.0  0.905587  0.914072  0.301925  1.0000
  C   C37       1.0  0.90546  0.6221189999999999  0.139082  1.0000
  C   C38       1.0  0.905559  0.6223329999999998  0.069441  1.0000
  C   C39       1.0  0.945641  0.672318  0.567662  1.0000
  C   C40       1.0  0.94564  0.6723520000000001  0.633098  1.0000
  C   C41       1.0  0.905555  0.622154  0.665802  1.0000
  C   C42       1.0  0.865456  0.571933  0.633067  1.0000
  C   C43       1.0  0.8654539999999998  0.5719069999999999  0.567632  1.0000
  C   C44       1.0  0.900587  0.551473  0.769468  1.0000
  C   C45       1.0  0.9005929999999999  0.5514979999999999  0.8349009999999999  1.0000
  C   C46       1.0  0.905559  0.622237  0.867623  1.0000
  C   C47       1.0  0.9105299999999998  0.6929529999999999  0.834904  1.0000
  C   C48       1.0  0.9105280000000001  0.6929259999999999  0.76947  1.0000
  C   C49       1.0  0.905553  0.622178  0.736755  1.0000
  C   C50       1.0  0.945651  0.6724950000000001  0.971304  1.0000
  C   C51       1.0  0.945645  0.6725300000000001  0.03674099999999991  1.0000
  C   C52       1.0  0.865465  0.5721049999999998  0.03670799999999996  1.0000
  C   C53       1.0  0.8654670000000001  0.572077  0.971273  1.0000
  C   C54       1.0  0.905563  0.622271  0.938575  1.0000
  H   H1        1.0  0.978179  0.323315  0.229221  1.0000
  C   C55       1.0  0.915991  0.770772  0.870893  1.0000
  N   N1        1.0  0.920105  0.8293839999999998  0.8980030000000001  1.0000
  H   H2        1.0  0.9782649999999999  0.07047000000000003  0.229263  1.0000
  C   C56       1.0  0.82126  0.33491800000000005  0.385933  1.0000
  N   N2        1.0  0.7880330000000001  0.36885199999999996  0.419101  1.0000
  C   C57       1.0  0.336988  0.47357000000000005  0.291288  1.0000
  N   N3        1.0  0.309844  0.41498199999999996  0.2871  1.0000
  H   H3        1.0  0.9782959999999999  0.7133700000000001  0.94468  1.0000
  H   H4        1.0  0.832804  0.531015  0.540985  1.0000
  H   H5        1.0  0.9782329999999999  0.17459599999999997  0.229251  1.0000
  H   H6        1.0  0.9783210000000001  0.92174  0.22928999999999997  1.0000
  H   H7        1.0  0.832821  0.5312410000000001  0.06333600000000006  1.0000
  C   C58       1.0  0.474394  0.47353500000000004  0.291291  1.0000
  N   N4        1.0  0.501456  0.4149339999999999  0.287118  1.0000
  C   C59       1.0  0.337195  0.7705889999999999  0.312468  1.0000
  N   N5        1.0  0.310127  0.8291869999999998  0.316639  1.0000
  H   H8        1.0  0.548357  0.712977  0.374696  1.0000
  C   C60       1.0  0.135385  0.7273999999999998  0.386196  1.0000
  N   N6        1.0  0.108326  0.768938  0.419463  1.0000
  C   C61       1.0  0.135156  0.51686  0.217596  1.0000
  N   N7        1.0  0.108002  0.47533400000000003  0.18434  1.0000
  H   H9        1.0  0.8328649999999999  0.9216340000000001  0.37456599999999995  1.0000
  H   H10       1.0  0.832804  0.07036100000000012  0.374537  1.0000
  C   C62       1.0  0.98975  0.727778  0.07274099999999994  1.0000
  N   N8        1.0  0.022971000000000075  0.7693899999999998  0.09985800000000002  1.0000
  H   H11       1.0  0.548157  0.531093  0.229039  1.0000
  H   H12       1.0  0.263427  0.713043  0.37472  1.0000
  C   C63       1.0  0.676428  0.7272730000000001  0.386159  1.0000
  N   N9        1.0  0.703575  0.7688079999999999  0.4194149999999999  1.0000
  C   C64       1.0  0.895124  0.4737099999999999  0.8708859999999999  1.0000
  N   N10       1.0  0.891003  0.4151179999999999  0.897989  1.0000
  C   C65       1.0  0.272566  0.5168269999999999  0.217588  1.0000
  N   N11       1.0  0.299625  0.4752849999999999  0.184325  1.0000
  C   C66       1.0  0.9897479999999999  0.727592  0.669106  1.0000
  N   N12       1.0  0.02297299999999991  0.7691969999999998  0.696225  1.0000
  C   C67       1.0  0.676205  0.516737  0.217551  1.0000
  N   N13       1.0  0.703266  0.475195  0.184289  1.0000
  H   H13       1.0  0.46524  0.7503489999999997  0.311028  1.0000
  C   C68       1.0  0.9897389999999999  0.727543  0.531698  1.0000
  N   N14       1.0  0.022952000000000083  0.769143  0.504609  1.0000
  C   C69       1.0  0.821317  0.16276000000000002  0.385956  1.0000
  N   N15       1.0  0.788108  0.12877300000000003  0.419126  1.0000
  C   C70       1.0  0.8213659999999999  0.51683  0.935271  1.0000
  N   N16       1.0  0.7881459999999999  0.47521699999999995  0.9081540000000001  1.0000
  C   C71       1.0  0.895136  0.47364800000000007  0.733481  1.0000
  N   N17       1.0  0.891035  0.41503199999999996  0.706376  1.0000
  C   C72       1.0  0.915988  0.7707120000000001  0.733481  1.0000
  N   N18       1.0  0.920096  0.8293029999999999  0.706375  1.0000
  C   C73       1.0  0.82136  0.51672  0.669043  1.0000
  N   N19       1.0  0.788143  0.47513400000000006  0.696141  1.0000
