data_image0
_chemical_formula_structural       Zn4O13C60H4C3H8C3H8C3H8C3H8C3H8C3H7C3H8C3H8C3H8C3H7C3H8C3H13C3H9C3H8
_chemical_formula_sum              "Zn4 O13 C102 H120"
_cell_length_a       21.395361
_cell_length_b       21.395364
_cell_length_c       21.395356
_cell_angle_alpha    90.024334
_cell_angle_beta     89.969319
_cell_angle_gamma    89.95259100000001

_space_group_name_H-M_alt    "P 1"
_space_group_IT_number       1

loop_
  _space_group_symop_operation_xyz
  'x, y, z'

loop_
  _atom_site_type_symbol
  _atom_site_label
  _atom_site_symmetry_multiplicity
  _atom_site_fract_x
  _atom_site_fract_y
  _atom_site_fract_z
  _atom_site_occupancy
  Zn  Zn1       1.0  0.750825  0.04214700000000016  0.6457390000000001  1.0000
  Zn  Zn2       1.0  0.6460480000000001  0.042242  0.750522  1.0000
  Zn  Zn3       1.0  0.7507769999999998  0.14692999999999998  0.7505040000000001  1.0000
  Zn  Zn4       1.0  0.6460509999999998  0.14696299999999995  0.645783  1.0000
  O   O1        1.0  0.6984250000000001  0.09457000000000004  0.6981369999999999  1.0000
  O   O2        1.0  0.7369449999999999  0.9544809999999999  0.659628  1.0000
  O   O3        1.0  0.6599200000000001  0.056156000000000095  0.838198  1.0000
  O   O4        1.0  0.838462  0.1329770000000001  0.7365799999999999  1.0000
  O   O5        1.0  0.659966  0.9545520000000003  0.7366119999999999  1.0000
  O   O6        1.0  0.8384959999999999  0.055993000000000064  0.65961  1.0000
  O   O7        1.0  0.736864  0.13306900000000008  0.8381839999999999  1.0000
  O   O8        1.0  0.736866  0.23461200000000015  0.736623  1.0000
  O   O9        1.0  0.65997  0.13303200000000004  0.5580990000000001  1.0000
  O   O10       1.0  0.6599239999999998  0.23463599999999996  0.659685  1.0000
  O   O11       1.0  0.736947  0.05602399999999996  0.5580670000000001  1.0000
  O   O12       1.0  0.5583710000000001  0.0561870000000001  0.7366539999999999  1.0000
  O   O13       1.0  0.558372  0.13312500000000005  0.6597029999999999  1.0000
  C   C1        1.0  0.6983900000000001  0.257358  0.6981569999999998  1.0000
  C   C2        1.0  0.69836  0.32699900000000004  0.69815  1.0000
  C   C3        1.0  0.7383759999999999  0.3596530000000001  0.658003  1.0000
  C   C4        1.0  0.738391  0.42508900000000005  0.6580019999999999  1.0000
  C   C5        1.0  0.698378  0.45786800000000005  0.6981409999999999  1.0000
  C   C6        1.0  0.658359  0.42520599999999986  0.7382949999999999  1.0000
  C   C7        1.0  0.6583490000000001  0.3597709999999999  0.7382999999999998  1.0000
  C   C8        1.0  0.641949  0.5615919999999999  0.703182  1.0000
  C   C9        1.0  0.641957  0.6270249999999999  0.703173  1.0000
  C   C10       1.0  0.6984060000000001  0.659688  0.6981289999999999  1.0000
  C   C11       1.0  0.754849  0.626911  0.6930809999999998  1.0000
  C   C12       1.0  0.7548400000000001  0.5614769999999999  0.693086  1.0000
  C   C13       1.0  0.698383  0.5288200000000001  0.69814  1.0000
  C   C14       1.0  0.738442  0.7632950000000001  0.657979  1.0000
  C   C15       1.0  0.7384569999999999  0.828732  0.6579809999999999  1.0000
  C   C16       1.0  0.65842  0.828847  0.738272  1.0000
  C   C17       1.0  0.65841  0.763412  0.738272  1.0000
  C   C18       1.0  0.69842  0.73064  0.698122  1.0000
  C   C19       1.0  0.5356380000000001  0.09465299999999997  0.698172  1.0000
  C   C20       1.0  0.46599599999999997  0.094631  0.6981660000000001  1.0000
  C   C21       1.0  0.43330299999999994  0.05453399999999997  0.738193  1.0000
  C   C22       1.0  0.3678680000000001  0.054505000000000026  0.738179  1.0000
  C   C23       1.0  0.335128  0.09458400000000011  0.698144  1.0000
  C   C24       1.0  0.3678290000000001  0.134684  0.658109  1.0000
  C   C25       1.0  0.4332629999999999  0.13470700000000002  0.65812  1.0000
  C   C26       1.0  0.23139700000000005  0.1509990000000001  0.693235  1.0000
  C   C27       1.0  0.165964  0.1509760000000001  0.6932290000000001  1.0000
  C   C28       1.0  0.13330700000000004  0.09451100000000001  0.6981080000000001  1.0000
  C   C29       1.0  0.166091  0.03806700000000007  0.703006  1.0000
  C   C30       1.0  0.23152600000000012  0.03809000000000007  0.7030169999999999  1.0000
  C   C31       1.0  0.26417599999999997  0.09456299999999995  0.698128  1.0000
  C   C32       1.0  0.02966200000000007  0.054378999999999955  0.7381220000000001  1.0000
  C   C33       1.0  0.9642250000000001  0.05434899999999998  0.7381040000000001  1.0000
  C   C34       1.0  0.9641879999999999  0.13453300000000012  0.658037  1.0000
  C   C35       1.0  0.029622999999999955  0.13455799999999993  0.6580520000000001  1.0000
  C   C36       1.0  0.06235600000000007  0.09448200000000007  0.698098  1.0000
  C   C37       1.0  0.8618489999999999  0.09447000000000005  0.698088  1.0000
  C   C38       1.0  0.9314899999999999  0.09442799999999996  0.698068  1.0000
  C   C39       1.0  0.698464  0.09452099999999995  0.5347139999999999  1.0000
  C   C40       1.0  0.698481  0.09450000000000003  0.46507200000000004  1.0000
  C   C41       1.0  0.698453  0.9311469999999998  0.6981200000000001  1.0000
  C   C42       1.0  0.698445  0.861506  0.6981209999999999  1.0000
  C   C43       1.0  0.73855  0.13453800000000016  0.4323619999999999  1.0000
  C   C44       1.0  0.7385619999999999  0.13454  0.366927  1.0000
  C   C45       1.0  0.6985099999999999  0.09449300000000002  0.3342039999999999  1.0000
  C   C46       1.0  0.658433  0.054451999999999945  0.36692199999999997  1.0000
  C   C47       1.0  0.658418  0.05445599999999995  0.43235599999999996  1.0000
  C   C48       1.0  0.693601  0.038040999999999985  0.23051700000000008  1.0000
  C   C49       1.0  0.69362  0.03803699999999998  0.16508399999999998  1.0000
  C   C50       1.0  0.698553  0.0944830000000001  0.13238300000000014  1.0000
  C   C51       1.0  0.7034789999999999  0.15093500000000015  0.16512300000000013  1.0000
  C   C52       1.0  0.703464  0.15093900000000016  0.2305570000000001  1.0000
  C   C53       1.0  0.698522  0.09448500000000001  0.2632520000000001  1.0000
  C   C54       1.0  0.7386369999999999  0.13452699999999995  0.028719999999999968  1.0000
  C   C55       1.0  0.7386440000000001  0.13453000000000015  0.9632839999999998  1.0000
  C   C56       1.0  0.6585190000000001  0.054436000000000144  0.9632799999999997  1.0000
  C   C57       1.0  0.6585089999999999  0.054439000000000015  0.028716000000000075  1.0000
  C   C58       1.0  0.698571  0.0944830000000001  0.06143200000000015  1.0000
  C   C59       1.0  0.6984319999999998  0.09458300000000008  0.8609249999999998  1.0000
  C   C60       1.0  0.698592  0.0944830000000001  0.9305649999999998  1.0000
  H   H1        1.0  0.62578  0.451898  0.770977  1.0000
  H   H2        1.0  0.9376070000000003  0.02169399999999999  0.770697  1.0000
  H   H3        1.0  0.7711689999999999  0.16714799999999994  0.458995  1.0000
  H   H4        1.0  0.7710469999999999  0.8553179999999999  0.6252900000000001  1.0000
  C   C61       1.0  0.6149530000000001  0.864314  0.781922  1.0000
  C   C62       1.0  0.579914  0.8217069999999999  0.817091  1.0000
  C   C63       1.0  0.539873  0.85436  0.8573169999999999  1.0000
  H   H5        1.0  0.5875699999999999  0.8898589999999997  0.758074  1.0000
  H   H6        1.0  0.6389480000000001  0.8898149999999998  0.809209  1.0000
  H   H7        1.0  0.5559210000000001  0.7962169999999997  0.7898069999999999  1.0000
  H   H8        1.0  0.60728  0.7961619999999998  0.840952  1.0000
  H   H9        1.0  0.563868  0.8798609999999999  0.8846049999999999  1.0000
  H   H10       1.0  0.512494  0.879903  0.833465  1.0000
  H   H11       1.0  0.516098  0.8254559999999997  0.881189  1.0000
  H   H12       1.0  0.6896119999999999  0.99207  0.1384320000000001  1.0000
  C   C64       1.0  0.782219  0.17802700000000005  0.92788  1.0000
  C   C65       1.0  0.81731  0.21308200000000008  0.9705399999999997  1.0000
  C   C66       1.0  0.857464  0.25315200000000004  0.937948  1.0000
  H   H13       1.0  0.758323  0.20539900000000008  0.902371  1.0000
  H   H14       1.0  0.80956  0.154053  0.9023479999999998  1.0000
  H   H15       1.0  0.789973  0.23705400000000007  0.996061  1.0000
  H   H16       1.0  0.8412179999999999  0.18572600000000003  0.9960499999999999  1.0000
  H   H17       1.0  0.8848049999999998  0.2291780000000001  0.9124169999999999  1.0000
  H   H18       1.0  0.833563  0.28052  0.9124399999999998  1.0000
  H   H19       1.0  0.881282  0.276937  0.9668880000000002  1.0000
  H   H20       1.0  0.7712570000000001  0.16713399999999998  0.05535900000000005  1.0000
  C   C67       1.0  0.6882689999999999  0.9766839999999999  0.26590499999999995  1.0000
  C   C68       1.0  0.6839799999999999  0.927245  0.22323000000000004  1.0000
  C   C69       1.0  0.6790740000000001  0.8707169999999999  0.25580499999999995  1.0000
  H   H21       1.0  0.6519459999999999  0.9774320000000001  0.29144400000000015  1.0000
  H   H22       1.0  0.724183  0.9711209999999999  0.29140499999999997  1.0000
  H   H23       1.0  0.648069  0.9328069999999997  0.19774100000000003  1.0000
  H   H24       1.0  0.720298  0.9264769999999999  0.19768899999999995  1.0000
  H   H25       1.0  0.7149879999999998  0.8651539999999999  0.281305  1.0000
  H   H26       1.0  0.6427510000000001  0.871471  0.281343  1.0000
  H   H27       1.0  0.6761689999999999  0.8371649999999998  0.22685500000000003  1.0000
  H   H28       1.0  0.625823  0.021846000000000143  0.34027500000000005  1.0000
  C   C70       1.0  0.782139  0.17803400000000003  0.3315150000000001  1.0000
  C   C71       1.0  0.81723  0.21309300000000006  0.37417200000000006  1.0000
  C   C72       1.0  0.8573850000000001  0.253158  0.341577  1.0000
  H   H29       1.0  0.758244  0.205403  0.306003  1.0000
  H   H30       1.0  0.80948  0.15405600000000008  0.305987  1.0000
  H   H31       1.0  0.7898919999999999  0.23706900000000009  0.3996900000000001  1.0000
  H   H32       1.0  0.841137  0.18574  0.3996860000000001  1.0000
  H   H33       1.0  0.884726  0.22918000000000005  0.3160480000000001  1.0000
  H   H34       1.0  0.833486  0.2805229999999999  0.31606500000000004  1.0000
  H   H35       1.0  0.8812029999999998  0.276946  0.370514  1.0000
  H   H36       1.0  0.6259100000000001  0.02182799999999996  0.9366380000000001  1.0000
  C   C73       1.0  0.267007  0.976744  0.7083010000000001  1.0000
  C   C74       1.0  0.22440899999999997  0.927284  0.7125559999999997  1.0000
  C   C75       1.0  0.2570720000000001  0.8707619999999998  0.717414  1.0000
  H   H37       1.0  0.29251099999999997  0.9774579999999998  0.744621  1.0000
  H   H38       1.0  0.29255  0.9712339999999998  0.6723790000000001  1.0000
  H   H39       1.0  0.19887700000000008  0.9327929999999999  0.7484749999999998  1.0000
  H   H40       1.0  0.19890399999999997  0.926549  0.676241  1.0000
  H   H41       1.0  0.28261499999999995  0.8652519999999999  0.6814919999999999  1.0000
  H   H42       1.0  0.282575  0.871483  0.7537339999999998  1.0000
  H   H43       1.0  0.228175  0.8371959999999999  0.720296  1.0000
  H   H44       1.0  0.6257900000000001  0.02184900000000012  0.45898899999999987  1.0000
  C   C76       1.0  0.06515499999999995  0.17799500000000013  0.61452  1.0000
  C   C77       1.0  0.10278000000000008  0.14255399999999996  0.5743229999999999  1.0000
  C   C78       1.0  0.1355130000000001  0.1825460000000001  0.5342040000000001  1.0000
  H   H45       1.0  0.09068299999999994  0.20530400000000004  0.638445  1.0000
  H   H46       1.0  0.03630599999999995  0.20184999999999992  0.590638  1.0000
  H   H47       1.0  0.13162600000000002  0.11870900000000006  0.5982029999999999  1.0000
  H   H48       1.0  0.077268  0.11524600000000007  0.550384  1.0000
  H   H49       1.0  0.10666399999999997  0.20640099999999992  0.510322  1.0000
  H   H50       1.0  0.1610370000000001  0.20985299999999996  0.5581339999999999  1.0000
  H   H51       1.0  0.161041  0.158505  0.5069220000000001  1.0000
  C   C79       1.0  0.6149869999999998  0.010892000000000122  0.06412099999999998  1.0000
  C   C80       1.0  0.579925  0.9758079999999998  0.021460999999999952  1.0000
  C   C81       1.0  0.5398290000000001  0.9356789999999998  0.05405300000000002  1.0000
  H   H52       1.0  0.58762  0.03480600000000011  0.08966800000000005  1.0000
  H   H53       1.0  0.6389429999999999  0.983546  0.08961500000000011  1.0000
  H   H54       1.0  0.5559700000000001  0.003150000000000097  0.9959790000000002  1.0000
  H   H55       1.0  0.607275  0.9518810000000002  0.9959129999999998  1.0000
  H   H56       1.0  0.563785  0.908333  0.07954700000000013  1.0000
  H   H57       1.0  0.5124669999999999  0.959598  0.07959900000000007  1.0000
  H   H58       1.0  0.5160390000000001  0.9118660000000001  0.02511399999999997  1.0000
  H   H59       1.0  0.05631399999999997  0.021745000000000122  0.7707279999999999  1.0000
  C   C82       1.0  0.78189  0.3241859999999999  0.6143970000000001  1.0000
  C   C83       1.0  0.816952  0.36679400000000006  0.5792499999999999  1.0000
  C   C84       1.0  0.857051  0.33414299999999997  0.5390820000000001  1.0000
  H   H60       1.0  0.757957  0.29866499999999996  0.5870869999999999  1.0000
  H   H61       1.0  0.809252  0.2986619999999999  0.638305  1.0000
  H   H62       1.0  0.789593  0.3923070000000001  0.5553440000000001  1.0000
  H   H63       1.0  0.8408979999999999  0.39231700000000014  0.606543  1.0000
  H   H64       1.0  0.884413  0.308619  0.56299  1.0000
  H   H65       1.0  0.833113  0.308623  0.511777  1.0000
  H   H66       1.0  0.880849  0.36304800000000015  0.5152340000000001  1.0000
  H   H67       1.0  0.625821  0.7368239999999999  0.770961  1.0000
  C   C85       1.0  0.5806169999999999  0.662496  0.708693  1.0000
  C   C86       1.0  0.531182  0.619888  0.7131379999999999  1.0000
  C   C87       1.0  0.47466600000000003  0.652539  0.718233  1.0000
  H   H68       1.0  0.5749730000000001  0.6880109999999998  0.6728120000000001  1.0000
  H   H69       1.0  0.581455  0.688026  0.745025  1.0000
  H   H70       1.0  0.530343  0.594368  0.67681  1.0000
  H   H71       1.0  0.5368060000000001  0.5943709999999999  0.749018  1.0000
  H   H72       1.0  0.4755039999999999  0.6780679999999999  0.7545660000000001  1.0000
  H   H73       1.0  0.469028  0.6780529999999999  0.6823509999999998  1.0000
  H   H74       1.0  0.44111900000000004  0.623634  0.721256  1.0000
  H   H75       1.0  0.1392770000000001  0.1969370000000001  0.6892469999999999  1.0000
  C   C88       1.0  0.7817339999999999  0.4606329999999999  0.6143730000000001  1.0000
  C   C89       1.0  0.7462009999999999  0.49822299999999997  0.5742940000000001  1.0000
  C   C90       1.0  0.7861059999999999  0.53098  0.5341  1.0000
  H   H76       1.0  0.805576  0.43181699999999995  0.5904019999999999  1.0000
  H   H77       1.0  0.8090589999999999  0.48618300000000003  0.638268  1.0000
  H   H78       1.0  0.718887  0.4726760000000001  0.550401  1.0000
  H   H79       1.0  0.72236  0.5270520000000001  0.5982469999999999  1.0000
  H   H80       1.0  0.813431  0.55653  0.557995  1.0000
  H   H81       1.0  0.8099459999999999  0.502159  0.510134  1.0000
  H   H82       1.0  0.762003  0.5564930000000001  0.5069060000000001  1.0000
  C   C91       1.0  0.580695  0.52605  0.708557  1.0000
  C   C92       1.0  0.5726720000000001  0.488453  0.655591  1.0000
  C   C93       1.0  0.5162599999999999  0.45569699999999996  0.660525  1.0000
  H   H83       1.0  0.5470259999999999  0.554867  0.71153  1.0000
  H   H84       1.0  0.5815459999999999  0.5005040000000001  0.7448570000000001  1.0000
  H   H85       1.0  0.5718160000000001  0.513996  0.6193009999999999  1.0000
  H   H86       1.0  0.6063270000000001  0.45962499999999995  0.652608  1.0000
  H   H87       1.0  0.5171110000000001  0.43015099999999995  0.6968249999999999  1.0000
  H   H88       1.0  0.4825950000000001  0.484518  0.663499  1.0000
  H   H89       1.0  0.5108119999999999  0.4301799999999999  0.6245919999999999  1.0000
  H   H90       1.0  0.25798  0.196983  0.68926  1.0000
  C   C94       1.0  0.6150010000000001  0.32428100000000004  0.781964  1.0000
  C   C95       1.0  0.650524  0.286709  0.822068  1.0000
  C   C96       1.0  0.610611  0.254012  0.8623039999999997  1.0000
  H   H91       1.0  0.5876540000000001  0.2987210000000001  0.758119  1.0000
  H   H92       1.0  0.5911839999999999  0.353152  0.805908  1.0000
  H   H93       1.0  0.67433  0.257841  0.7981269999999999  1.0000
  H   H94       1.0  0.6778689999999999  0.31225400000000003  0.8459260000000001  1.0000
  H   H95       1.0  0.586794  0.282883  0.8862479999999999  1.0000
  H   H96       1.0  0.583266  0.22845500000000007  0.838454  1.0000
  H   H97       1.0  0.634708  0.22851999999999992  0.889523  1.0000
  H   H98       1.0  0.800797  0.5347919999999998  0.6889780000000001  1.0000
  H   H99       1.0  0.8008149999999999  0.653504  0.6889739999999999  1.0000
  H   H100      1.0  0.707474  0.19690399999999997  0.25721099999999997  1.0000
  H   H101      1.0  0.771024  0.7366109999999999  0.6252900000000001  1.0000
  H   H102      1.0  0.459952  0.02190100000000006  0.7707989999999999  1.0000
  H   H103      1.0  0.13950400000000007  0.9920869999999998  0.706978  1.0000
  C   C97       1.0  0.33243399999999995  0.010878000000000164  0.781608  1.0000
  C   C98       1.0  0.34843100000000016  0.9488920000000001  0.7679370000000001  1.0000
  C   C99       1.0  0.31580699999999995  0.9086909999999999  0.807936  1.0000
  H   H104      1.0  0.28876800000000014  0.016527999999999987  0.775901  1.0000
  H   H105      1.0  0.343129  0.020000000000000018  0.8237249999999999  1.0000
  H   H106      1.0  0.33773200000000014  0.9397729999999999  0.7258299999999999  1.0000
  H   H107      1.0  0.3920910000000001  0.9432229999999999  0.7736469999999999  1.0000
  H   H108      1.0  0.32650100000000004  0.917813  0.8500539999999998  1.0000
  H   H109      1.0  0.2721420000000001  0.9143469999999998  0.802226  1.0000
  H   H110      1.0  0.32665999999999995  0.8666300000000002  0.79867  1.0000
  H   H111      1.0  0.937532  0.16716299999999995  0.6254369999999999  1.0000
  H   H112      1.0  0.34116800000000014  0.167315  0.625511  1.0000
  C   C100      1.0  0.4686500000000001  0.17831399999999997  0.614638  1.0000
  C   C101      1.0  0.42597600000000013  0.21341799999999997  0.579581  1.0000
  C   C102      1.0  0.45855199999999996  0.253602  0.539525  1.0000
  H   H113      1.0  0.49422799999999995  0.15444000000000013  0.5872660000000001  1.0000
  H   H114      1.0  0.49411099999999986  0.205646  0.638622  1.0000
  H   H115      1.0  0.40052600000000005  0.18608999999999995  0.5555979999999999  1.0000
  H   H116      1.0  0.4003969999999999  0.23730499999999993  0.6069349999999999  1.0000
  H   H117      1.0  0.484013  0.280933  0.5635099999999998  1.0000
  H   H118      1.0  0.484129  0.22972199999999998  0.5121580000000001  1.0000
  H   H119      1.0  0.42960299999999996  0.27742900000000004  0.515738  1.0000
  H   H120      1.0  0.7075  0.19689900000000005  0.138499  1.0000
