data_image0
_chemical_formula_structural       NC8NC6H8C12NH9C15H11Zn2C4O8
_chemical_formula_sum              "N3 C45 H28 Zn2 O8"
_cell_length_a       17.457602349358154
_cell_length_b       10.299770795358612
_cell_length_c       10.299157797200024
_cell_angle_alpha    85.53969178690444
_cell_angle_beta     92.89892803241439
_cell_angle_gamma    91.70596819880058

_space_group_name_H-M_alt    "P 1"
_space_group_IT_number       1

loop_
  _space_group_symop_operation_xyz
  'x, y, z'

loop_
  _atom_site_type_symbol
  _atom_site_label
  _atom_site_symmetry_multiplicity
  _atom_site_fract_x
  _atom_site_fract_y
  _atom_site_fract_z
  _atom_site_occupancy
  N   N1        1.0  0.7223694563686814  0.4532054825951173  0.62628718437602  1.0000
  C   C1        1.0  0.6612806769244538  0.40728309320328926  0.6156740119612178  1.0000
  C   C2        1.0  0.5852836555296612  0.3501613526038731  0.6024807677830923  1.0000
  C   C3        1.0  0.5267798148243651  0.3903029817216625  0.6773815101900822  1.0000
  C   C4        1.0  0.4522214055685184  0.3352993396797088  0.6648025964396065  1.0000
  C   C5        1.0  0.390128108651101  0.37768292340993825  0.7441253328693882  1.0000
  C   C6        1.0  0.3155718057790761  0.39616643186167066  0.6883559520492251  1.0000
  C   C7        1.0  0.2570679538847412  0.4361241061164851  0.7633646705014323  1.0000
  C   C8        1.0  0.1810730894224218  0.4552140676789042  0.7053796049521374  1.0000
  N   N2        1.0  0.11998613377444063  0.4705560170308582  0.6587597637839868  1.0000
  C   C9        1.0  0.2726284050737466  0.45784127604261116  0.8946513103665985  1.0000
  C   C10       1.0  0.34640016523137285  0.4397466497810991  0.9508082917130782  1.0000
  C   C11       1.0  0.4048925517751354  0.39996890616995406  0.8762573181481448  1.0000
  C   C12       1.0  0.43745502519186674  0.23947703614121393  0.5758899552239902  1.0000
  C   C13       1.0  0.4959472918345594  0.19961397905632738  0.5013892277330241  1.0000
  C   C14       1.0  0.5697210841748871  0.2547298480044944  0.5145181273248494  1.0000
  H   H1        1.0  0.5391531001402928  0.46547936176873517  0.7440120180525767  1.0000
  H   H2        1.0  0.3032002816946115  0.38122374862107544  0.5863243492689036  1.0000
  H   H3        1.0  0.22778678396566146  0.4887081562496576  0.9534896026055383  1.0000
  H   H4        1.0  0.3582581751480091  0.4562470960347571  0.05246648823376199  1.0000
  H   H5        1.0  0.46138618666781867  0.38496460420971373  0.9223686042721191  1.0000
  H   H6        1.0  0.3809596228260269  0.19414432526543046  0.565240619240791  1.0000
  H   H7        1.0  0.4840877403322492  0.12555438597958335  0.4335602190738197  1.0000
  H   H8        1.0  0.6145627098810256  0.22299313064990176  0.45619106583905733  1.0000
  C   C15       1.0  0.9211119461875213  0.08050931048056188  0.6425576917542162  1.0000
  C   C16       1.0  0.8988130083878088  0.08874970172753226  0.5093183157947556  1.0000
  C   C17       1.0  0.8875843247214986  0.9757920958464578  0.4417755227577554  1.0000
  C   C18       1.0  0.8989534214624156  0.8534742353160305  0.5092612261092391  1.0000
  C   C19       1.0  0.9212509709702307  0.843242491516003  0.6425010392698951  1.0000
  C   C20       1.0  0.9322057398035755  0.9573095752601662  0.7084030520771807  1.0000
  C   C21       1.0  0.8639936786679784  0.9855633713345571  0.3008160237799211  1.0000
  C   C22       1.0  0.8081173679759583  0.07431615802130408  0.25106285056148203  1.0000
  C   C23       1.0  0.7859467489603195  0.08338509302282925  0.11839339582182706  1.0000
  C   C24       1.0  0.8192329786363144  0.004102985733479334  0.03336259437270938  1.0000
  C   C25       1.0  0.8749249743921902  0.9155404965021339  0.08221010285942354  1.0000
  C   C26       1.0  0.8971570469640501  0.9062182260364887  0.21485460158252256  1.0000
  N   N3        1.0  0.7965226210709448  0.013509290288598704  0.8976643762227324  1.0000
  H   H9        1.0  0.8911418794223952  0.18333518472400565  0.4573365157457519  1.0000
  H   H10       1.0  0.8893566324769013  0.7660411697263609  0.4580623206143315  1.0000
  H   H11       1.0  0.9494077770879398  0.9501844250288299  0.811191280427803  1.0000
  H   H12       1.0  0.7808406165087737  0.1355177645712644  0.31504240176556286  1.0000
  H   H13       1.0  0.7426834705934876  0.15198797040645282  0.08194662917835394  1.0000
  H   H14       1.0  0.9012527263067078  0.8539521245896285  0.017463734374095992  1.0000
  H   H15       1.0  0.9410081573299209  0.8381516892106312  0.24990974660802714  1.0000
  H   H16       1.0  0.821009049597914  0.9548016866315667  0.8335205603939456  1.0000
  H   H17       1.0  0.7550548883206218  0.07925079652504974  0.8603410191983413  1.0000
  C   C27       1.0  0.9210925263626166  0.46197826630983085  0.2611300899252551  1.0000
  C   C28       1.0  0.8411765263744324  0.4405116892485247  0.2547802687030314  1.0000
  C   C29       1.0  0.8008210124524314  0.4295256847520992  0.13443182426023537  1.0000
  C   C30       1.0  0.8414044469612957  0.4403129033603229  0.01953160650166952  1.0000
  C   C31       1.0  0.921270369059634  0.4617735004970795  0.023928655071143726  1.0000
  C   C32       1.0  0.9606480419668062  0.472475103888166  0.1452201068293888  1.0000
  C   C33       1.0  0.7163319046974803  0.40683606155812696  0.12876493926399712  1.0000
  C   C34       1.0  0.6817938448740812  0.3183500576197799  0.04484499044251211  1.0000
  C   C35       1.0  0.6022860716438849  0.297091221034093  0.039544466450269766  1.0000
  C   C36       1.0  0.5559001137917862  0.3632475113071125  0.11858022450068928  1.0000
  C   C37       1.0  0.590027729939708  0.452561150833332  0.20148986253559475  1.0000
  C   C38       1.0  0.6695347303671311  0.4738241520467361  0.206938273767775  1.0000
  C   C39       1.0  0.470248187850027  0.34269484926692484  0.11052373860074227  1.0000
  C   C40       1.0  0.4357604221222486  0.4349572238056553  0.010287930262661725  1.0000
  C   C41       1.0  0.4074166273047359  0.510825187089956  0.9278675780090468  1.0000
  H   H18       1.0  0.07199068132859643  0.5017032580105741  0.48047474955066805  1.0000
  H   H19       1.0  0.810315112758973  0.43054016702904474  0.343798379237122  1.0000
  H   H20       1.0  0.8104332425936079  0.433723411893482  0.926370410684656  1.0000
  H   H21       1.0  0.02225104412421164  0.4890245306952983  0.14932741755862944  1.0000
  H   H22       1.0  0.716361315411724  0.2644929383345027  0.9843008880911822  1.0000
  H   H23       1.0  0.5768724879133038  0.22882667146665336  0.9739158403191142  1.0000
  H   H24       1.0  0.5550121560682639  0.506089538462092  0.26165239743328494  1.0000
  H   H25       1.0  0.6943229233556043  0.5441686364260907  0.2708743968180247  1.0000
  H   H26       1.0  0.45491764686068104  0.24178584016864096  0.0858354000190995  1.0000
  H   H27       1.0  0.44582858219299415  0.35707418001841856  0.20574937841898966  1.0000
  H   H28       1.0  0.3825547044242707  0.5774356799722289  0.8555117741586531  1.0000
  Zn  Zn1       1.0  0.8371130416211062  0.45820898730150916  0.6356655686712502  1.0000
  Zn  Zn2       1.0  0.005242534810701912  0.4655418615761637  0.64939201365355  1.0000
  C   C42       1.0  0.921234119357161  0.45663843805698295  0.879743664428168  1.0000
  C   C43       1.0  0.9211232933718999  0.4671141294922596  0.4053141951439847  1.0000
  C   C44       1.0  0.921219540911363  0.6990708946574435  0.6373358804398532  1.0000
  C   C45       1.0  0.9211378141785856  0.22468011005754107  0.6477220438083644  1.0000
  O   O1        1.0  0.9849378844797547  0.4716148938836271  0.4589128127487414  1.0000
  O   O2        1.0  0.9850259230627839  0.4577021759399236  0.8365627271535475  1.0000
  O   O3        1.0  0.985013290986311  0.6534694127458829  0.6408166561851103  1.0000
  O   O4        1.0  0.9849504591640066  0.27584766389187965  0.654658781650157  1.0000
  O   O5        1.0  0.8574050598934558  0.647903182484859  0.6303987959836495  1.0000
  O   O6        1.0  0.8574176922346941  0.4521375060122232  0.8261447975850283  1.0000
  O   O7        1.0  0.8573296533303258  0.46605017912099145  0.44849332166265876  1.0000
  O   O8        1.0  0.8573422280324532  0.2702829398140978  0.6442393879401023  1.0000
