data_image0
_chemical_formula_structural       NC12NC2H8C12NCOCH13C12IH9Zn2C4O8
_chemical_formula_sum              "N3 C44 H30 O9 I1 Zn2"
_cell_length_a       19.240039667572717
_cell_length_b       10.299155265289647
_cell_length_c       10.29977335064465
_cell_angle_alpha    85.52787819197465
_cell_angle_beta     90.00916568916979
_cell_angle_gamma    89.9765233896273

_space_group_name_H-M_alt    "P 1"
_space_group_IT_number       1

loop_
  _space_group_symop_operation_xyz
  'x, y, z'

loop_
  _atom_site_type_symbol
  _atom_site_label
  _atom_site_symmetry_multiplicity
  _atom_site_fract_x
  _atom_site_fract_y
  _atom_site_fract_z
  _atom_site_occupancy
  N   N1        1.0  0.6540425594742127  0.42179124864307416  0.5670834177643631  1.0000
  C   C1        1.0  0.5938941906314862  0.42179133265411406  0.5670833358057303  1.0000
  C   C2        1.0  0.519076153452826  0.42179144998798956  0.567083198470749  1.0000
  C   C3        1.0  0.4826254445711454  0.35729161604027015  0.6705118299167412  1.0000
  C   C4        1.0  0.4099547282122742  0.3571807016427909  0.6705984007077697  1.0000
  C   C5        1.0  0.3727439184756748  0.42179154262553786  0.5670829707651674  1.0000
  C   C6        1.0  0.4099087871019431  0.48640257055252345  0.46356773531520057  1.0000
  C   C7        1.0  0.48257950736895555  0.4862914206028448  0.46365442866735695  1.0000
  C   C8        1.0  0.2955388280451259  0.4217914639859958  0.5670828753697785  1.0000
  C   C9        1.0  0.2583794538938333  0.3085102173670513  0.6089825440813881  1.0000
  C   C10       1.0  0.18570873423161177  0.30861715182540506  0.6088911913202952  1.0000
  C   C11       1.0  0.1492065411554862  0.42179133478598935  0.567082936313068  1.0000
  C   C12       1.0  0.07438850404679749  0.421791220963047  0.5670831850029632  1.0000
  N   N2        1.0  0.014240187221516598  0.4217911800764138  0.5670833934327744  1.0000
  C   C13       1.0  0.1856518589148059  0.534965593595055  0.5252746283957097  1.0000
  C   C14       1.0  0.2583225238011504  0.5350727082345716  0.5251831129940121  1.0000
  H   H1        1.0  0.5103581795463533  0.30735424643539533  0.7512658592807511  1.0000
  H   H2        1.0  0.3828792109890163  0.30804115466378423  0.7524677333082259  1.0000
  H   H3        1.0  0.38279777352678  0.5355421446006248  0.3816983518593986  1.0000
  H   H4        1.0  0.5102765439024618  0.5362286898582667  0.3829006751244213  1.0000
  H   H5        1.0  0.285494958109806  0.21933922983273393  0.6401729242827349  1.0000
  H   H6        1.0  0.1580160125652128  0.22034511318501604  0.641114308880762  1.0000
  H   H7        1.0  0.1579147571400448  0.6232376076925716  0.49305152539194363  1.0000
  H   H8        1.0  0.2853934983811812  0.6242437749642891  0.49399268800091023  1.0000
  C   C15       1.0  0.8342223484926895  0.04039370466618995  0.5672020938298934  1.0000
  C   C16       1.0  0.822338134155512  0.05014403291081404  0.4322774737195705  1.0000
  C   C17       1.0  0.8162452641762239  0.9379500153679937  0.36375012564150144  1.0000
  C   C18       1.0  0.8221719240001718  0.8148843779545472  0.43196969021997744  1.0000
  C   C19       1.0  0.8340670984491941  0.8031787855181868  0.5669759005529744  1.0000
  C   C20       1.0  0.8400221716711942  0.9164509956702498  0.6337609476945067  1.0000
  C   C21       1.0  0.8036740583853947  0.9492383546339861  0.2210161696255473  1.0000
  C   C22       1.0  0.8389147547423957  0.04337956902573991  0.13959890760224836  1.0000
  C   C23       1.0  0.82709014070147  0.05387176275802896  0.0052767439122283185  1.0000
  C   C24       1.0  0.7802205438290818  0.9695501988140767  0.9495264238303669  1.0000
  C   C25       1.0  0.7441308728665983  0.8772252954740459  0.030875526825827174  1.0000
  C   C26       1.0  0.755980797552581  0.8664770962166762  0.165160355202302  1.0000
  N   N3        1.0  0.766158991634385  0.9798424049697866  0.8119659459045877  1.0000
  C   C27       1.0  0.8168990329791453  0.016815471781221447  0.7137486206038584  1.0000
  O   O1        1.0  0.8806621919804717  0.019339407721006938  0.7416069094183017  1.0000
  C   C28       1.0  0.7947143380137773  0.04331378601287961  0.5752093154364082  1.0000
  H   H9        1.0  0.8388150986504125  0.3641195003609025  0.6190941797795857  1.0000
  H   H10       1.0  0.8168347361455649  0.14520841038273335  0.380468053835731  1.0000
  H   H11       1.0  0.8184286016095885  0.7281048813857438  0.37934146239252287  1.0000
  H   H12       1.0  0.8491910542531464  0.9082154987990803  0.7378306813328606  1.0000
  H   H13       1.0  0.8569347843391222  0.5738018236107483  0.8216622426160339  1.0000
  H   H14       1.0  0.8760313826804856  0.10841300980685274  0.1796910530452862  1.0000
  H   H15       1.0  0.8537482869431561  0.12934956582786694  0.9456965549762617  1.0000
  H   H16       1.0  0.7069474695529366  0.8128962276497568  0.9899163490942291  1.0000
  H   H17       1.0  0.7270894192100154  0.7946153316362169  0.22557348844244274  1.0000
  H   H18       1.0  0.7172035604243363  0.9509853964781163  0.7808926410137116  1.0000
  H   H19       1.0  0.7445434609488161  0.09676111881698725  0.5707557025620145  1.0000
  H   H20       1.0  0.7882789886331806  0.9497209825296631  0.5299854375804554  1.0000
  H   H21       1.0  0.8342757728492519  0.10342566616128734  0.519814252011253  1.0000
  C   C29       1.0  0.8341115549197371  0.42189231326208043  0.18571977784143034  1.0000
  C   C30       1.0  0.8971008894586511  0.4909010015840001  0.1793620908360818  1.0000
  C   C31       1.0  0.9290515193751662  0.525760408502741  0.0590105968693695  1.0000
  C   C32       1.0  0.8971677883688614  0.4906868289625947  0.9440925409621213  1.0000
  C   C33       1.0  0.8341778713513581  0.4216801457377135  0.9484582691711894  1.0000
  C   C34       1.0  0.8030027415714409  0.3876682397841355  0.0697399505572387  1.0000
  C   C35       1.0  0.9956887080041396  0.5987635226033248  0.05333871292162318  1.0000
  C   C36       1.0  0.006600950165027931  0.7017903715716651  0.1331187837106207  1.0000
  C   C37       1.0  0.06935626957430352  0.7703877594033486  0.12757860629948237  1.0000
  C   C38       1.0  0.12189680524376789  0.737025634879485  0.042599141470284214  1.0000
  C   C39       1.0  0.11165481271635634  0.6348850499307148  0.9629615483724954  1.0000
  C   C40       1.0  0.048970046774079456  0.5660616731774821  0.9680958511358116  1.0000
  I   I1        1.0  0.21650911294593286  0.8406722231107036  0.034550150464937264  1.0000
  H   H22       1.0  0.8100895438957884  0.39566187927607555  0.5155908150348998  1.0000
  H   H23       1.0  0.921949108051572  0.5161498830537512  0.2683314666697101  1.0000
  H   H24       1.0  0.9210980402058715  0.5188766567639416  0.850971377156672  1.0000
  H   H25       1.0  0.7544089472542806  0.33443231452258715  0.07387625685347565  1.0000
  H   H26       1.0  0.8101866614467015  0.39534971425357845  0.622671067926984  1.0000
  H   H27       1.0  0.9662935702471684  0.7303704389427532  0.19850101640230156  1.0000
  H   H28       1.0  0.0770321047861191  0.8496706681526007  0.18914096137980185  1.0000
  H   H29       1.0  0.152303084650925  0.6085413791365264  0.897287511799135  1.0000
  H   H30       1.0  0.04250212648383056  0.48623783693383565  0.9066945662166815  1.0000
  Zn  Zn1       1.0  0.7579878246734704  0.42178775931098  0.5670909002029285  1.0000
  Zn  Zn2       1.0  0.9102949438714043  0.4217840721855788  0.5670865130440819  1.0000
  C   C41       1.0  0.8341648353395231  0.4165461808460104  0.8042858661206413  1.0000
  C   C42       1.0  0.8341195960718544  0.4270272893172975  0.3298916740591047  1.0000
  C   C43       1.0  0.8340923973692617  0.6589975800821173  0.5618434927341449  1.0000
  C   C44       1.0  0.8341919823940024  0.18457432964359577  0.5723341171484735  1.0000
  O   O2        1.0  0.8919220538897685  0.428743568778827  0.37827541623247996  1.0000
  O   O3        1.0  0.891959957012941  0.4148261232496326  0.755898420639397  1.0000
  O   O4        1.0  0.8919006833848709  0.6106086939924511  0.5601244884317993  1.0000
  O   O5        1.0  0.8919812755353784  0.23296100735527236  0.5740492510640722  1.0000
  O   O6        1.0  0.7763014410345502  0.6106108241439607  0.5601281621776038  1.0000
  O   O7        1.0  0.7763607143357875  0.4148298138414103  0.7559020246769954  1.0000
  O   O8        1.0  0.7763228111323037  0.42874721454557907  0.37827745888153164  1.0000
  O   O9        1.0  0.7763820327854277  0.23296464380543427  0.5740513910837957  1.0000
