data_image0
_chemical_formula_structural       NC9NC4H8C9H10C9H10Zn2C4O8
_chemical_formula_sum              "N2 C35 H28 Zn2 O8"
_cell_length_a       16.32274767691083
_cell_length_b       9.27267660452572
_cell_length_c       9.27267997650553
_cell_angle_alpha    86.26619108519446
_cell_angle_beta     89.86705810092191
_cell_angle_gamma    90.07922574154927

_space_group_name_H-M_alt    "P 1"
_space_group_IT_number       1

loop_
  _space_group_symop_operation_xyz
  'x, y, z'

loop_
  _atom_site_type_symbol
  _atom_site_label
  _atom_site_symmetry_multiplicity
  _atom_site_fract_x
  _atom_site_fract_y
  _atom_site_fract_z
  _atom_site_occupancy
  N   N1        1.0  0.7737453760644318  0.5550764883880903  0.4047164597247772  1.0000
  C   C1        1.0  0.7208898094655474  0.5019172853054601  0.34422124760324335  1.0000
  C   C2        1.0  0.6551903033368459  0.4358931411086997  0.2690857104578177  1.0000
  C   C3        1.0  0.6658596025084276  0.34558385567874206  0.16630890166301948  1.0000
  C   C4        1.0  0.5860628749387133  0.3015124769925426  0.11615722074571577  1.0000
  C   C5        1.0  0.5277608133299965  0.36600999027813774  0.18956137049573085  1.0000
  C   C6        1.0  0.4376565846016511  0.3489639085910739  0.17016523032330835  1.0000
  C   C7        1.0  0.3827960618638313  0.42413986006821996  0.2557143001713118  1.0000
  C   C8        1.0  0.2979450393192836  0.40957145710288456  0.23913713073275766  1.0000
  C   C9        1.0  0.24269519528474504  0.4870584487679559  0.3273152842536813  1.0000
  N   N2        1.0  0.1982931357051601  0.549345235898836  0.3981955865897067  1.0000
  C   C10       1.0  0.266900314594904  0.31970552561977517  0.136873228569089  1.0000
  C   C11       1.0  0.3204398945378183  0.24462915321559242  0.05143785357167662  1.0000
  C   C12       1.0  0.405128281845563  0.25880514935020577  0.06756833684043273  1.0000
  C   C13       1.0  0.566434828067465  0.4600544321802147  0.2965861072621032  1.0000
  H   H1        1.0  0.7244235998550725  0.3104668131052349  0.1263413408838081  1.0000
  H   H2        1.0  0.5770456110959592  0.22770280892455122  0.03215765794601588  1.0000
  H   H3        1.0  0.40559469107976864  0.49429537035687  0.3355486341390122  1.0000
  H   H4        1.0  0.2013911766736192  0.3077041816447057  0.12321732870616554  1.0000
  H   H5        1.0  0.2962514389073802  0.17510947850380498  0.9723273595020819  1.0000
  H   H6        1.0  0.44432212453608766  0.1987488875802368  0.9992259740649261  1.0000
  H   H7        1.0  0.5498941258563858  0.42237630611102217  0.4090965093057719  1.0000
  H   H8        1.0  0.5501927619650321  0.5754098496944402  0.27247668596059293  1.0000
  C   C14       1.0  0.9836947427105813  0.12873877402891032  0.3996499978114576  1.0000
  C   C15       1.0  0.9513724088173907  0.19424911384654456  0.5195475505578058  1.0000
  C   C16       1.0  0.9265591259092368  0.11145084049699339  0.64285330536431  1.0000
  C   C17       1.0  0.93326812061983  0.96067353388154  0.6504101340635895  1.0000
  C   C18       1.0  0.964243890125569  0.8937226363020268  0.529422490282371  1.0000
  C   C19       1.0  0.9883516350891047  0.9756717890667037  0.4032743700329968  1.0000
  C   C20       1.0  0.9055870535676833  0.8785622016207394  0.7893280133841731  1.0000
  C   C21       1.0  0.8641275338362756  0.7329102229630989  0.7756102516163672  1.0000
  C   C22       1.0  0.9508695118053642  0.7396808890791905  0.8352802951288076  1.0000
  H   H9        1.0  0.0009571437389317438  0.4254018640657306  0.1631355645406467  1.0000
  H   H10       1.0  0.9470493184274815  0.3108288694580097  0.5194753571933366  1.0000
  H   H11       1.0  0.9026469801488886  0.16596008323093717  0.7338064507656776  1.0000
  H   H12       1.0  0.9681572739467208  0.7772804029089339  0.5307011569494877  1.0000
  H   H13       1.0  0.008219945631089184  0.8957044321700589  0.049957950904691684  1.0000
  H   H14       1.0  0.8827541341944923  0.9397348710282979  0.880452306598958  1.0000
  H   H15       1.0  0.8598934560480802  0.6928193187836358  0.6657671361345525  1.0000
  H   H16       1.0  0.8169775632162711  0.7054438997480016  0.8595080943327117  1.0000
  H   H17       1.0  0.9993019314941932  0.7035753521640679  0.7617690491076792  1.0000
  H   H18       1.0  0.9544140214327469  0.7161658217270291  0.9540714843313716  1.0000
  C   C23       1.0  0.9843435737090978  0.5488224908473951  0.9781104421447955  1.0000
  C   C24       1.0  0.0395232480418084  0.4588691870492361  0.05713986144363448  1.0000
  C   C25       1.0  0.09880123798719137  0.3805471702954371  0.9872900955305801  1.0000
  C   C26       1.0  0.10490445884674693  0.38960196349017434  0.8363739723672015  1.0000
  C   C27       1.0  0.04873074327437088  0.4776113954081256  0.7559670037234407  1.0000
  C   C28       1.0  0.9877027645489503  0.5555881089684782  0.8248139611657948  1.0000
  C   C29       1.0  0.17177009433557688  0.3018244294832231  0.7688196191811234  1.0000
  C   C30       1.0  0.15190151543575614  0.23609296108244693  0.6267369303035677  1.0000
  C   C31       1.0  0.21022983452009125  0.36443734810861367  0.6285860347502084  1.0000
  H   H19       1.0  0.8615364534528299  0.6479881420631115  0.2533730777964521  1.0000
  H   H20       1.0  0.03818642739079947  0.4516125742805752  0.17420325307040474  1.0000
  H   H21       1.0  0.14084226445010684  0.31333172533264375  0.05198594441773352  1.0000
  H   H22       1.0  0.050597435140472546  0.4838207012260059  0.6391866331104383  1.0000
  H   H23       1.0  0.8024709552438221  0.6937617245586887  0.7135483372659834  1.0000
  H   H24       1.0  0.21422770863581037  0.2363752714540575  0.8400706717093853  1.0000
  H   H25       1.0  0.09118935958507324  0.26152301067415484  0.5780952295811437  1.0000
  H   H26       1.0  0.1831490799150266  0.1318477099917901  0.6115099440874259  1.0000
  H   H27       1.0  0.18498795096683063  0.46776299574288327  0.5809499799624902  1.0000
  H   H28       1.0  0.27557726432309226  0.33519419244337745  0.6144357526552771  1.0000
  Zn  Zn1       1.0  0.8962607067172064  0.5534187688620765  0.4028429856553224  1.0000
  Zn  Zn2       1.0  0.0757777930147221  0.5509912162948134  0.40008082040816917  1.0000
  C   C32       1.0  0.9870343980826689  0.5485644163945653  0.664744267157299  1.0000
  C   C33       1.0  0.985006072536295  0.5558473629074197  0.13817965802841714  1.0000
  C   C34       1.0  0.9874443518425857  0.8155375856006113  0.39684445987259  1.0000
  C   C35       1.0  0.9845960482981932  0.2888724625838406  0.4060795357020943  1.0000
  O   O1        1.0  0.05335417729104952  0.5572774393562987  0.19085209489049618  1.0000
  O   O2        1.0  0.05493560045689883  0.5452907925169044  0.609974991128605  1.0000
  O   O3        1.0  0.05526573088151453  0.7608750273842084  0.393644021858095  1.0000
  O   O4        1.0  0.05302398523728291  0.34169321476948894  0.407182957053579  1.0000
  O   O5        1.0  0.9190144532342533  0.7627167712173151  0.3957408499449278  1.0000
  O   O6        1.0  0.9186843320274303  0.5471342682974574  0.6120717497614849  1.0000
  O   O7        1.0  0.917102901763129  0.559120851034036  0.19294712002073844  1.0000
  O   O8        1.0  0.9167727100781209  0.3435366169966456  0.4092780902262636  1.0000
