data_image0
_chemical_formula_structural       NC10NC3NCH9C13OH12C11NCOCH11Zn2C4O8
_chemical_formula_sum              "N4 C44 H32 O10 Zn2"
_cell_length_a       19.437513618241372
_cell_length_b       10.29915010939255
_cell_length_c       10.299158637457994
_cell_angle_alpha    85.56061603079257
_cell_angle_beta     90.32911859646087
_cell_angle_gamma    89.50394211810362

_space_group_name_H-M_alt    "P 1"
_space_group_IT_number       1

loop_
  _space_group_symop_operation_xyz
  'x, y, z'

loop_
  _atom_site_type_symbol
  _atom_site_label
  _atom_site_symmetry_multiplicity
  _atom_site_fract_x
  _atom_site_fract_y
  _atom_site_fract_z
  _atom_site_occupancy
  N   N1        1.0  0.6478459593819683  0.41008626604843146  0.5752263136902689  1.0000
  C   C1        1.0  0.5889101329421013  0.42709669532395855  0.5722455831003381  1.0000
  C   C2        1.0  0.5154665458677176  0.4483496764555972  0.5685456767531532  1.0000
  C   C3        1.0  0.4737227276876245  0.34714865729448713  0.5569141868048793  1.0000
  C   C4        1.0  0.39783199323972074  0.35721203764532  0.5496899966294233  1.0000
  C   C5        1.0  0.3582356611807249  0.4380860594935678  0.6154108210267847  1.0000
  C   C6        1.0  0.2820559641634391  0.4294746637375231  0.6069690141641857  1.0000
  C   C7        1.0  0.24894003444470253  0.30812227429555983  0.6116458976122072  1.0000
  C   C8        1.0  0.177207332883889  0.301747931772091  0.6044795300916255  1.0000
  C   C9        1.0  0.1376199691334943  0.41625336429473037  0.5929986445528287  1.0000
  C   C10       1.0  0.0637728724205084  0.4095407673022362  0.5856642773529492  1.0000
  N   N2        1.0  0.0044049045356253985  0.40414442956383645  0.5797679043713861  1.0000
  C   C11       1.0  0.17001926235637413  0.5372953758656149  0.5890671297530716  1.0000
  C   C12       1.0  0.24173631828374503  0.5439237465800586  0.5962954492359294  1.0000
  C   C13       1.0  0.3868929566505377  0.5304037462720694  0.7053061469761268  1.0000
  N   N3        1.0  0.44387008348415585  0.5936151361062443  0.6848843331701627  1.0000
  C   C14       1.0  0.48772592610300625  0.5843210867376065  0.5717782938408643  1.0000
  H   H1        1.0  0.49612384590274  0.2520819356613628  0.5448190812740474  1.0000
  H   H2        1.0  0.3731362579700694  0.28767809520381066  0.49139049674805185  1.0000
  H   H3        1.0  0.2784038542273815  0.21820692016038612  0.6226916357440789  1.0000
  H   H4        1.0  0.15262881975833642  0.20751582032328209  0.608392717105229  1.0000
  H   H5        1.0  0.13986999076924111  0.6265564294374038  0.5803337410482373  1.0000
  H   H6        1.0  0.2658332435274635  0.6385686837214584  0.592366688474427  1.0000
  H   H7        1.0  0.35687627507719716  0.5508147492545445  0.7896679466738056  1.0000
  H   H8        1.0  0.530466263530826  0.6546403493189055  0.5775223600229589  1.0000
  H   H9        1.0  0.4580650638136221  0.6124062303403333  0.48112414505961754  1.0000
  C   C15       1.0  0.8261935496753127  0.025714591797873596  0.5776421222692573  1.0000
  C   C16       1.0  0.8249030931211041  0.013979787835910917  0.7144373852528201  1.0000
  C   C17       1.0  0.8241889849721359  0.890896297755512  0.7835310289598505  1.0000
  C   C18       1.0  0.8247705061510028  0.7787265254277286  0.7140722988773556  1.0000
  C   C19       1.0  0.8260639084528946  0.7885059043452067  0.5773634729991951  1.0000
  C   C20       1.0  0.8267697639171687  0.9124607266219424  0.5099473245893202  1.0000
  C   C21       1.0  0.822817844806962  0.8794640242812815  0.9281547075167007  1.0000
  C   C22       1.0  0.7805007988297323  0.7873127787722124  0.9956375929984669  1.0000
  C   C23       1.0  0.7791877634882189  0.7766368100084031  0.13172803964910273  1.0000
  C   C24       1.0  0.8206192926794034  0.8569471852274959  0.2028015615166854  1.0000
  C   C25       1.0  0.8622780016828263  0.950063261048903  0.1359528667120783  1.0000
  C   C26       1.0  0.863607007527436  0.9609147606022247  0.9998623347683842  1.0000
  C   C27       1.0  0.8177617459336314  0.847853468126073  0.3488524716765962  1.0000
  O   O1        1.0  0.7663324081433075  0.9319000038299545  0.38843833921414417  1.0000
  H   H10       1.0  0.82818236522846  0.2551648688872046  0.31942895962318607  1.0000
  H   H11       1.0  0.8234966198968715  0.10079382352121047  0.7674284241219949  1.0000
  H   H12       1.0  0.8251541030564805  0.6836146946779481  0.7669110746410412  1.0000
  H   H13       1.0  0.8277654570077939  0.9207200952137234  0.40449969174012673  1.0000
  H   H14       1.0  0.8265150888725213  0.4647927001530406  0.5247798740879994  1.0000
  H   H15       1.0  0.7476069358020007  0.7248355452525104  0.9431095480309362  1.0000
  H   H16       1.0  0.7457112734220661  0.7058812570074596  0.1816775561787377  1.0000
  H   H17       1.0  0.893904442309418  0.01411482570552169  0.1892109790945559  1.0000
  H   H18       1.0  0.8971064127992827  0.03211562412513235  0.950719759106263  1.0000
  H   H19       1.0  0.8683624285161573  0.8748523303252764  0.3896672825326871  1.0000
  H   H20       1.0  0.8065745782170637  0.7460307569554729  0.3865228268738887  1.0000
  H   H21       1.0  0.7665708780986147  0.9222498521583541  0.4850687432427654  1.0000
  C   C28       1.0  0.8261932552924512  0.4069712174932012  0.19613056610160617  1.0000
  C   C29       1.0  0.8277685589710391  0.5436592208289264  0.1847874369184548  1.0000
  C   C30       1.0  0.8285132375815358  0.6131026984892096  0.061877942280841994  1.0000
  C   C31       1.0  0.8276367921161879  0.5440213153618505  0.9494741492661706  1.0000
  C   C32       1.0  0.8260642034647393  0.4072493511440336  0.9588750373555409  1.0000
  C   C33       1.0  0.8253551263015007  0.33956523065425354  0.08259099226203848  1.0000
  C   C34       1.0  0.8301805400655125  0.7577018193747651  0.05085185256639037  1.0000
  C   C35       1.0  0.8723968393014876  0.8248376627887115  0.1339323227416751  1.0000
  C   C36       1.0  0.8337973220570312  0.032573529248669505  0.028738353808500202  1.0000
  C   C37       1.0  0.7907616272503554  0.9658117577011985  0.9474303951653489  1.0000
  C   C38       1.0  0.789215242095551  0.8297638932815646  0.9576766756758168  1.0000
  N   N4        1.0  0.833510779531083  0.1726355419810437  0.017448461185135326  1.0000
  C   C39       1.0  0.8924434167265667  0.2506476987851225  0.041401986205805034  1.0000
  O   O2        1.0  0.9517706320313123  0.20024239560001475  0.05069173944708649  1.0000
  C   C40       1.0  0.8843485933991249  0.3946093116187161  0.045849205590698515  1.0000
  H   H22       1.0  0.8256088812985486  0.3543929434825945  0.5279696673605292  1.0000
  H   H23       1.0  0.8274588261945495  0.5964858776751525  0.27171516355186864  1.0000
  H   H24       1.0  0.8291193505324714  0.5970144754896145  0.8545021701887561  1.0000
  H   H25       1.0  0.8241424129689073  0.23413454093356798  0.0906253456745778  1.0000
  H   H26       1.0  0.9046063574359944  0.7720696626239983  0.20655409642075484  1.0000
  H   H27       1.0  0.7585715498912583  0.019454511591790322  0.875377841879809  1.0000
  H   H28       1.0  0.755221962559153  0.7809400445227144  0.8939143528095098  1.0000
  H   H29       1.0  0.7889042279389825  0.22083770416883516  0.9819163214460875  1.0000
  H   H30       1.0  0.8359673558235632  0.417131990203003  0.09664287082522338  1.0000
  H   H31       1.0  0.8824908973868014  0.44131136376464747  0.9450897985747356  1.0000
  H   H32       1.0  0.928234980585887  0.4346488843776761  0.09904815697057678  1.0000
  Zn  Zn1       1.0  0.7507411736873935  0.408368093621166  0.576544428951333  1.0000
  Zn  Zn2       1.0  0.9015096964481725  0.4058519354441621  0.5784604629735411  1.0000
  C   C41       1.0  0.8260879394634385  0.4020226741967685  0.8147018454337218  1.0000
  C   C42       1.0  0.8261645767596226  0.41219896619470114  0.34030319428305017  1.0000
  C   C43       1.0  0.8260857471509256  0.6443203201353735  0.5722408636660623  1.0000
  C   C44       1.0  0.8261667178788684  0.16989976070742174  0.5827642452062071  1.0000
  O   O3        1.0  0.8833708215959929  0.41299291128668036  0.38941597232994596  1.0000
  O   O4        1.0  0.88331151508613  0.3993180433279837  0.7670429193843515  1.0000
  O   O5        1.0  0.8833089732402927  0.5949764700598311  0.5712539508597918  1.0000
  O   O6        1.0  0.8833733120096426  0.21733449466891794  0.5852048428217866  1.0000
  O   O7        1.0  0.7688775066760267  0.5968855352564628  0.5698000484424071  1.0000
  O   O8        1.0  0.7688800482652346  0.4012286689333415  0.7655889471507901  1.0000
  O   O9        1.0  0.7689393550927329  0.41490349106222335  0.3879604386992812  1.0000
  O   O10       1.0  0.7689418454886737  0.21924506519042852  0.5837494065631614  1.0000
