data_image0
_chemical_formula_structural       NC8NC6H8C7NC2NH8C8NH11Zn2C4O8
_chemical_formula_sum              "N5 C35 H27 Zn2 O8"
_cell_length_a       17.457602349358154
_cell_length_b       9.273995741505848
_cell_length_c       9.27565297233854
_cell_angle_alpha    86.07888925788727
_cell_angle_beta     93.30040864466163
_cell_angle_gamma    92.2639659462817

_space_group_name_H-M_alt    "P 1"
_space_group_IT_number       1

loop_
  _space_group_symop_operation_xyz
  'x, y, z'

loop_
  _atom_site_type_symbol
  _atom_site_label
  _atom_site_symmetry_multiplicity
  _atom_site_fract_x
  _atom_site_fract_y
  _atom_site_fract_z
  _atom_site_occupancy
  N   N1        1.0  0.7249776851787286  0.6033125459959552  0.47983685473567217  1.0000
  C   C1        1.0  0.6635747534565088  0.5522204370215429  0.4678975050612906  1.0000
  C   C2        1.0  0.5871870009707604  0.4886682731386313  0.4530555675231944  1.0000
  C   C3        1.0  0.5292392545524582  0.5338465945075936  0.5363481440737545  1.0000
  C   C4        1.0  0.454305139372241  0.4726519591651699  0.5221954610425505  1.0000
  C   C5        1.0  0.3928000191318194  0.5203554232855128  0.6104050332973214  1.0000
  C   C6        1.0  0.3181126184923292  0.5404460159210027  0.5485520941538384  1.0000
  C   C7        1.0  0.2601642479777916  0.5854208609856117  0.6319639204012824  1.0000
  C   C8        1.0  0.1840323292293354  0.6061675916607869  0.5676531646084064  1.0000
  N   N2        1.0  0.12283514526631481  0.6228408780069437  0.515947463448859  1.0000
  C   C9        1.0  0.2764148811423179  0.610579042848655  0.7777941023257755  1.0000
  C   C10       1.0  0.350321676460395  0.5909234598022508  0.8400786857432501  1.0000
  C   C11       1.0  0.4082615976130064  0.5461520844355416  0.7571756670564889  1.0000
  C   C12       1.0  0.4385968517207375  0.3655156818836177  0.4231569754919252  1.0000
  C   C13       1.0  0.49653636944936047  0.3206499408452041  0.3403094499969561  1.0000
  C   C14       1.0  0.5706888833239587  0.38197357158172884  0.3550731170584629  1.0000
  H   H1        1.0  0.5423380989668624  0.6178745789099649  0.6105783630298975  1.0000
  H   H2        1.0  0.305216027992944  0.5230434172043616  0.4352243283836963  1.0000
  H   H3        1.0  0.23200620192265917  0.6453286943799229  0.8432223309961153  1.0000
  H   H4        1.0  0.3627122633879893  0.6100534005289524  0.9529971983665035  1.0000
  H   H5        1.0  0.4648652545119394  0.5298498282413598  0.8083179139901315  1.0000
  H   H6        1.0  0.3817905913415744  0.31507827405133515  0.41117948564665485  1.0000
  H   H7        1.0  0.4839526507223516  0.2378529738793982  0.264752444409847  1.0000
  H   H8        1.0  0.6150946718283773  0.34626178029348087  0.2902094999854717  1.0000
  C   C15       1.0  0.9216098411939003  0.1894679792896432  0.4966307681854452  1.0000
  C   C16       1.0  0.9345592433561507  0.2724723923242436  0.3674546541932351  1.0000
  C   C17       1.0  0.9544000067234626  0.2075003776908615  0.24431036542565646  1.0000
  C   C18       1.0  0.9621256828349729  0.05744573512063499  0.24684893734183944  1.0000
  C   C19       1.0  0.9475593709398952  0.9730764158140169  0.3746842543950474  1.0000
  C   C20       1.0  0.9262103169550696  0.036674704699819254  0.4991666236781916  1.0000
  C   C21       1.0  0.9840830248737654  0.9906347993472568  0.11489834681786838  1.0000
  N   N3        1.0  0.9863473457359565  0.06415891581436539  0.9841291366164571  1.0000
  C   C22       1.0  0.009006192500194745  0.9667803585023907  0.895532883977531  1.0000
  C   C23       1.0  0.020271234724416925  0.8369280372018275  0.9730740856267714  1.0000
  N   N4        1.0  0.0046299985363056385  0.8520865518200447  0.11101858321729874  1.0000
  H   H9        1.0  0.8601958104376602  0.4524357130982188  0.6985021612779991  1.0000
  H   H10       1.0  0.9311999623700661  0.38912044882879404  0.3625008880917553  1.0000
  H   H11       1.0  0.9648370706598667  0.27556102488142775  0.14734211510461062  1.0000
  H   H12       1.0  0.9501670409724894  0.8566555998654041  0.37691842686487664  1.0000
  H   H13       1.0  0.9281888299690585  0.7403361239390339  0.7390428470873951  1.0000
  H   H14       1.0  0.017032832266340232  0.9894312342362303  0.7813425271306269  1.0000
  H   H15       1.0  0.038952360003067454  0.7384491424574385  0.9320405556719963  1.0000
  H   H16       1.0  0.009144662482715398  0.7723280784052309  0.19568231917443524  1.0000
  C   C24       1.0  0.922185755913436  0.6101759938460212  0.07446443973863204  1.0000
  C   C25       1.0  0.8729032243907535  0.7020914470711387  0.13637448579556888  1.0000
  C   C26       1.0  0.8297280421684974  0.8027220117430067  0.050012725215726084  1.0000
  C   C27       1.0  0.8347908504303513  0.8099965008130499  0.8997044353176911  1.0000
  C   C28       1.0  0.8823834165750858  0.7180622931789602  0.8362330866272467  1.0000
  C   C29       1.0  0.9256344246102642  0.6159667540240379  0.9213329736957405  1.0000
  C   C30       1.0  0.7763820295674884  0.89876603836003  0.11796138133568901  1.0000
  C   C31       1.0  0.6970642445308778  0.8244101045137104  0.13137341318333595  1.0000
  N   N5        1.0  0.6455251531198027  0.9193394314904753  0.19514722623498407  1.0000
  H   H17       1.0  0.977292558229392  0.39861560009554736  0.3755374362584043  1.0000
  H   H18       1.0  0.8692297141452867  0.6978988139278672  0.2528585637951271  1.0000
  H   H19       1.0  0.801171556786825  0.8860250003073888  0.8312641348776335  1.0000
  H   H20       1.0  0.8838030936113916  0.7243256795878367  0.7193575574337694  1.0000
  H   H21       1.0  0.030197692532100365  0.48901294782793614  0.6600129287112648  1.0000
  H   H22       1.0  0.8005617609400271  0.9252929825148811  0.22693367770653053  1.0000
  H   H23       1.0  0.7708015221849455  0.002610228881961164  0.05140578545542752  1.0000
  H   H24       1.0  0.6729312117817936  0.799044174244496  0.02199109895578988  1.0000
  H   H25       1.0  0.7019224846160322  0.7213601631910678  0.19974870482489848  1.0000
  H   H26       1.0  0.5910387175980569  0.8682362583685349  0.19448359565263473  1.0000
  H   H27       1.0  0.6635412616625069  0.9274419318294009  0.30392039832652684  1.0000
  Zn  Zn1       1.0  0.8397907668954323  0.6089441892649989  0.49026591035584693  1.0000
  Zn  Zn2       1.0  0.008022033150164597  0.6171974882994581  0.5055301777326783  1.0000
  C   C32       1.0  0.9249496139644207  0.6091253733120083  0.761239335595721  1.0000
  C   C33       1.0  0.9228650336212091  0.6170182154573094  0.23455706615226135  1.0000
  C   C34       1.0  0.9253133776652339  0.8764951581394987  0.49294095930209325  1.0000
  C   C35       1.0  0.9225012034167474  0.3496466952191617  0.5028555089253537  1.0000
  O   O1        1.0  0.9869358600507483  0.6224403182327154  0.29407830512278066  1.0000
  O   O2        1.0  0.9885624184160859  0.6099662424616237  0.7133029040341642  1.0000
  O   O3        1.0  0.9888553076778498  0.8258706930924314  0.4966499933215056  1.0000
  O   O4        1.0  0.9866429129988142  0.40653587436553856  0.5107311025424794  1.0000
  O   O5        1.0  0.8611698296376853  0.8196058003839914  0.48506498032952017  1.0000
  O   O6        1.0  0.860876949470474  0.6037030823489129  0.7017178193461893  1.0000
  O   O7        1.0  0.8592503838235065  0.6161770959997983  0.28249148666430046  1.0000
  O   O8        1.0  0.8589574371526458  0.40027264255406253  0.4991443921604342  1.0000
