data_image0
_chemical_formula_structural       NC8NH4C6ClH5C8H10Zn2C4O8
_chemical_formula_sum              "N2 C26 H19 Cl1 Zn2 O8"
_cell_length_a       13.859017981522156
_cell_length_b       9.276545438789551
_cell_length_c       9.275657083861812
_cell_angle_alpha    85.88220868425292
_cell_angle_beta     89.50283111100838
_cell_angle_gamma    89.4096370293992

_space_group_name_H-M_alt    "P 1"
_space_group_IT_number       1

loop_
  _space_group_symop_operation_xyz
  'x, y, z'

loop_
  _atom_site_type_symbol
  _atom_site_label
  _atom_site_symmetry_multiplicity
  _atom_site_fract_x
  _atom_site_fract_y
  _atom_site_fract_z
  _atom_site_occupancy
  N   N1        1.0  0.9069913907072641  0.5698992104900871  0.410834354258945  1.0000
  C   C1        1.0  0.8350435865369324  0.562554599333043  0.3495128286061735  1.0000
  C   C2        1.0  0.7455447374020602  0.5534192362241568  0.2732368301431658  1.0000
  C   C3        1.0  0.7463489560508478  0.5356043930756365  0.12449489091764154  1.0000
  C   C4        1.0  0.6594076789962273  0.5267336297945429  0.05042109408410833  1.0000
  C   C5        1.0  0.5714836696659217  0.5356061139751032  0.12449464361544725  1.0000
  C   C6        1.0  0.5703144948707072  0.5534202084474025  0.2732366469140013  1.0000
  C   C7        1.0  0.6574364148441019  0.5623256279773714  0.3475964678324843  1.0000
  C   C8        1.0  0.47980376493865623  0.562555501760508  0.34951258869774415  1.0000
  N   N2        1.0  0.4070424734255345  0.5698995234603597  0.4108342608336617  1.0000
  H   H1        1.0  0.8140326856598594  0.5285941186343015  0.0659665066780597  1.0000
  H   H2        1.0  0.660169809278381  0.5129726888751456  0.9355243463312132  1.0000
  H   H3        1.0  0.5045763970119793  0.5285972138952886  0.06596608851831554  1.0000
  H   H4        1.0  0.6566727287301727  0.5761143204971331  0.4627268081563465  1.0000
  C   C9        1.0  0.15993503516888707  0.14646301955014018  0.41059666911993187  1.0000
  C   C10       1.0  0.161068422407729  0.2294312895899342  0.2775422059980135  1.0000
  C   C11       1.0  0.1534066405065453  0.16368356358732572  0.14738369866753698  1.0000
  C   C12       1.0  0.14442380864465948  0.014097002779470236  0.1482771977755053  1.0000
  C   C13       1.0  0.14479317423242555  0.9295777783150021  0.2788894442597549  1.0000
  C   C14       1.0  0.15410809683211338  0.9933247476558055  0.41108441023392595  1.0000
  Cl  Cl1       1.0  0.1536091602233689  0.26945993160683623  0.9828103150352452  1.0000
  H   H5        1.0  0.20797501474821756  0.410585805677788  0.6372360757135371  1.0000
  H   H6        1.0  0.16560610528565328  0.3461372034100987  0.27468813565523953  1.0000
  H   H7        1.0  0.13807421743563686  0.9628583399762806  0.04757880462398467  1.0000
  H   H8        1.0  0.1400912359297506  0.8133036985822304  0.27623867472615204  1.0000
  H   H9        1.0  0.12041692905608592  0.6957860722405849  0.6441861101299062  1.0000
  C   C15       1.0  0.15949431634404126  0.5677201754559791  0.9875194013446915  1.0000
  C   C16       1.0  0.20872026091468387  0.6776384859644784  0.052523074238735035  1.0000
  C   C17       1.0  0.24938381716479263  0.7937283026861482  0.9688513368465524  1.0000
  C   C18       1.0  0.24226024464057624  0.7989160688918837  0.8182154395051926  1.0000
  C   C19       1.0  0.1951138865830624  0.689643352716421  0.7517595341406258  1.0000
  C   C20       1.0  0.1545487880372701  0.5720675353198048  0.8341616925705306  1.0000
  C   C21       1.0  0.30303143705260815  0.9093588616016821  0.040117816596023204  1.0000
  C   C22       1.0  0.4092990685041255  0.8682130109013876  0.05793871163325304  1.0000
  H   H10       1.0  0.11776588446056493  0.33768728300774575  0.28521398517747887  1.0000
  H   H11       1.0  0.2137275449216549  0.6749651820063058  0.1692465595200081  1.0000
  H   H12       1.0  0.27418304051763953  0.8870466498072727  0.7518799564269911  1.0000
  H   H13       1.0  0.19259221071623545  0.6952626652688894  0.6347884505675951  1.0000
  H   H14       1.0  0.04176686027526565  0.4058831000890018  0.5662316147312323  1.0000
  H   H15       1.0  0.29702691860969277  0.014039139310493264  0.9743377953313518  1.0000
  H   H16       1.0  0.27082650477312953  0.9256895131906434  0.1480037230329574  1.0000
  H   H17       1.0  0.4168738198317359  0.7656355369233925  0.12662782020567342  1.0000
  H   H18       1.0  0.4433460662879307  0.8549422026042618  0.9507562486962041  1.0000
  H   H19       1.0  0.44750626505173163  0.9547708844390005  0.11055516117771023  1.0000
  Zn  Zn1       1.0  0.05129531536349852  0.5698954930395235  0.4108426458941865  1.0000
  Zn  Zn2       1.0  0.26273856352574043  0.5698915365681099  0.41083775714714355  1.0000
  C   C23       1.0  0.1555209734291234  0.5655014349329208  0.6741248396275334  1.0000
  C   C24       1.0  0.15851520106887643  0.574287414728005  0.14755570589653777  1.0000
  C   C25       1.0  0.15523808228156694  0.8332203244393652  0.4052477433188333  1.0000
  C   C26       1.0  0.15879803153683425  0.30656679320345126  0.4164328780643438  1.0000
  O   O1        1.0  0.23842825505421428  0.5764836480503539  0.20126349277683753  1.0000
  O   O2        1.0  0.2360884622439051  0.5633011088172419  0.6204129267041574  1.0000
  O   O3        1.0  0.23585893361356466  0.7794875055781623  0.40329276997331465  1.0000
  O   O4        1.0  0.23865771209369147  0.3602972610507713  0.41838354142899026  1.0000
  O   O5        1.0  0.07537609464037764  0.7794897685597426  0.4032968616064263  1.0000
  O   O6        1.0  0.07560561179514648  0.5633051038198125  0.6204169424722499  1.0000
  O   O7        1.0  0.07794541513935062  0.5764875839054178  0.20126577535452927  1.0000
  O   O8        1.0  0.07817487161452119  0.360301187147378  0.41838593207945896  1.0000
