data_image0
_chemical_formula_structural       NC5NC4H6C9H8C6OCH7Zn2C4O8
_chemical_formula_sum              "N2 C29 H21 O9 Zn2"
_cell_length_a       13.854160002989762
_cell_length_b       9.275152443626249
_cell_length_c       9.273891588657152
_cell_angle_alpha    85.88202133130156
_cell_angle_beta     89.68013189536481
_cell_angle_gamma    90.57354205828562

_space_group_name_H-M_alt    "P 1"
_space_group_IT_number       1

loop_
  _space_group_symop_operation_xyz
  'x, y, z'

loop_
  _atom_site_type_symbol
  _atom_site_label
  _atom_site_symmetry_multiplicity
  _atom_site_fract_x
  _atom_site_fract_y
  _atom_site_fract_z
  _atom_site_occupancy
  N   N1        1.0  0.9253544432705794  0.5643934094738926  0.4046865532471084  1.0000
  C   C1        1.0  0.8534081419913625  0.5890787291989164  0.34556205669296247  1.0000
  C   C2        1.0  0.7639059378721582  0.6197879305302506  0.2720089200917044  1.0000
  C   C3        1.0  0.6758730567186817  0.5909446081960494  0.3438230866051628  1.0000
  C   C4        1.0  0.5887635256823284  0.6197879446541139  0.27200889687318747  1.0000
  C   C5        1.0  0.49829999930076707  0.5890785826701503  0.345562148808725  1.0000
  N   N2        1.0  0.4255808722466217  0.5643933459606236  0.4046865533791544  1.0000
  C   C6        1.0  0.5897235128970139  0.6780813130189702  0.12839744409469156  1.0000
  C   C7        1.0  0.6777384819564606  0.7090743532251367  0.05647244812816776  1.0000
  C   C8        1.0  0.6787096749148585  0.7675052584642481  0.9013728641788784  1.0000
  C   C9        1.0  0.7648006022556469  0.6780813108787866  0.1283973538343708  1.0000
  H   H1        1.0  0.6751546018961828  0.545715353620922  0.454976097175181  1.0000
  H   H2        1.0  0.5222014334850679  0.6993710197060381  0.07268105386535462  1.0000
  H   H3        1.0  0.7441091556047293  0.8354679663367528  0.8773549885840665  1.0000
  H   H4        1.0  0.6144006777194068  0.8354679688012956  0.8773550536528191  1.0000
  H   H5        1.0  0.6783647835003653  0.6763131299173448  0.8301410514236158  1.0000
  H   H6        1.0  0.8330243936365432  0.6993711314464064  0.07268096806422264  1.0000
  C   C10       1.0  0.17261949490035672  0.14077436331457552  0.4061581025932155  1.0000
  C   C11       1.0  0.13824966890352353  0.22240846788608318  0.28370631143601166  1.0000
  C   C12       1.0  0.11286049349888504  0.1558411313944035  0.15896191795369252  1.0000
  C   C13       1.0  0.12144436505219035  0.006456202667623142  0.15419941346156407  1.0000
  C   C14       1.0  0.15393050580924306  0.9231246103165722  0.2756163282282271  1.0000
  C   C15       1.0  0.1783249507347068  0.988001428393042  0.4032275063392311  1.0000
  C   C16       1.0  0.0957682854473314  0.9381406594869361  0.025018748683234723  1.0000
  C   C17       1.0  0.07427060518103179  0.8809089343581339  0.916850196023542  1.0000
  C   C18       1.0  0.04818742837103925  0.8114563577696503  0.7856066279964007  1.0000
  H   H7        1.0  0.3102565460713127  0.22502412698426633  0.6940172935819413  1.0000
  H   H8        1.0  0.13316681295247923  0.3389218621227355  0.28325292327592444  1.0000
  H   H9        1.0  0.08739680020531378  0.22123827783408712  0.06561123433995997  1.0000
  H   H10       1.0  0.15800921597984896  0.8067782855048874  0.27159542862028707  1.0000
  H   H11       1.0  0.2678863220206955  0.6944791902984098  0.6001135280206662  1.0000
  H   H12       1.0  0.06578333539948143  0.6948560715981186  0.799072163435885  1.0000
  H   H13       1.0  0.9696989228873588  0.8238608223140151  0.7658743220342701  1.0000
  H   H14       1.0  0.08929259176316728  0.8629627387635455  0.6923085808023867  1.0000
  C   C19       1.0  0.1770277427865563  0.5605673504148575  0.9814307060335355  1.0000
  C   C20       1.0  0.2564839506578364  0.6214978580624395  0.04979365471926789  1.0000
  C   C21       1.0  0.33053765766709187  0.6932002859727897  0.9697358968542121  1.0000
  C   C22       1.0  0.32540067211246415  0.7043336770092528  0.8182567731481742  1.0000
  C   C23       1.0  0.24796643527497017  0.6425296984367171  0.7485546480954046  1.0000
  C   C24       1.0  0.17391667303592406  0.5682083541298649  0.8279549161792308  1.0000
  O   O1        1.0  0.40734590379765084  0.7523546700845973  0.044737896654083675  1.0000
  C   C25       1.0  0.4873414103267618  0.8282738994870313  0.977398928002644  1.0000
  H   H15       1.0  0.9468434758460746  0.4719660850791268  0.09275439613499814  1.0000
  H   H16       1.0  0.381373926341681  0.7594191549308937  0.7531441015810856  1.0000
  H   H17       1.0  0.24723767698747612  0.6499644641313191  0.6314477549948903  1.0000
  H   H18       1.0  0.020371990377360934  0.5028382361859185  0.5527383694176673  1.0000
  H   H19       1.0  0.4620891213188885  0.9258933292617532  0.9126656815424066  1.0000
  H   H20       1.0  0.5271053387415845  0.756679736138857  0.907233908408377  1.0000
  H   H21       1.0  0.5369828536778811  0.8627548672065316  0.062123207758921106  1.0000
  Zn  Zn1       1.0  0.06970893410941859  0.564389604187668  0.4046948990867782  1.0000
  Zn  Zn2       1.0  0.28122625958341646  0.5643854534078241  0.4046900857691588  1.0000
  C   C26       1.0  0.1744638941218406  0.5610172364388928  0.667963610822843  1.0000
  C   C27       1.0  0.1764736210711008  0.5677596425430917  0.14142150915319607  1.0000
  C   C28       1.0  0.17726263195044667  0.8278056062648893  0.39803781880483013  1.0000
  C   C29       1.0  0.1736747991124436  0.3009695402506636  0.41134738401232274  1.0000
  O   O2        1.0  0.25655733306544914  0.5701655728610104  0.19511407935420277  1.0000
  O   O3        1.0  0.2549169321806988  0.5586070637684047  0.6142669762765833  1.0000
  O   O4        1.0  0.2571758607899923  0.77404205995159  0.3962999842885514  1.0000
  O   O5        1.0  0.2542983327462851  0.35473058602319224  0.4130809632369512  1.0000
  O   O6        1.0  0.09663678876610571  0.7740444715752188  0.39630402161304223  1.0000
  O   O7        1.0  0.094377872106419  0.558611207861384  0.614270930754016  1.0000
  O   O8        1.0  0.09601827908546284  0.5701696510423107  0.19511630108567557  1.0000
  O   O9        1.0  0.09375927829572524  0.3547346548620434  0.41308329306776365  1.0000
