data_image0
_chemical_formula_structural       NC6NC2H4C7NH3C9H9Zn2C4O8
_chemical_formula_sum              "N3 C28 H16 Zn2 O8"
_cell_length_a       14.927258858638513
_cell_length_b       9.275154477615127
_cell_length_c       10.297187173949778
_cell_angle_alpha    85.79368962705624
_cell_angle_beta     89.97408174876965
_cell_angle_gamma    89.43371000992973

_space_group_name_H-M_alt    "P 1"
_space_group_IT_number       1

loop_
  _space_group_symop_operation_xyz
  'x, y, z'

loop_
  _atom_site_type_symbol
  _atom_site_label
  _atom_site_symmetry_multiplicity
  _atom_site_fract_x
  _atom_site_fract_y
  _atom_site_fract_z
  _atom_site_occupancy
  N   N1        1.0  0.8343250221310111  0.5776928216144066  0.5728118383763219  1.0000
  C   C1        1.0  0.7567985311354332  0.5776927931123763  0.5728118478158719  1.0000
  C   C2        1.0  0.6603660228983974  0.5776929081788538  0.5728118032985328  1.0000
  C   C3        1.0  0.6134948479110413  0.5539917945252733  0.4585712687978298  1.0000
  C   C4        1.0  0.5197835364477009  0.5539918201390084  0.4585711486311397  1.0000
  C   C5        1.0  0.47254995999176347  0.577692730670603  0.5728118194507907  1.0000
  C   C6        1.0  0.3761173847631751  0.5776928457400439  0.5728117749281236  1.0000
  N   N2        1.0  0.2985908937675967  0.5776928172380129  0.5728117843676737  1.0000
  C   C7        1.0  0.5194210679875666  0.6013938443271469  0.6870523539461659  1.0000
  C   C8        1.0  0.6131323794509069  0.6013938187134118  0.6870524741128559  1.0000
  H   H1        1.0  0.6493320282818414  0.535550991797693  0.36968557646252775  1.0000
  H   H2        1.0  0.48422837155907583  0.5355511892907465  0.3696855727213135  1.0000
  H   H3        1.0  0.4835839546374897  0.6198346367527874  0.775938143639439  1.0000
  H   H4        1.0  0.6486875437086151  0.6198345468824085  0.7759381495168682  1.0000
  C   C9        1.0  0.06905506518542341  0.15430330859740327  0.5713086773346403  1.0000
  C   C10       1.0  0.044501076002929185  0.2374667441288816  0.4567789309392063  1.0000
  C   C11       1.0  0.01265852620897291  0.17141349930044436  0.34831599655143175  1.0000
  C   C12       1.0  0.004845505252495615  0.021293629301277324  0.35310542233111586  1.0000
  C   C13       1.0  0.030230595393697452  0.9369221619651683  0.4650245542684633  1.0000
  C   C14       1.0  0.06386950842094263  0.0010712392436893533  0.5743261981712289  1.0000
  C   C15       1.0  0.9869131347833137  0.25815855857061143  0.23240586811674357  1.0000
  N   N3        1.0  0.9662209821675429  0.32788568424036113  0.1392438149676163  1.0000
  H   H5        1.0  0.08632578479580572  0.23101793575485519  0.8901577366687923  1.0000
  H   H6        1.0  0.9798951664708615  0.9691556635918872  0.26974484527352827  1.0000
  H   H7        1.0  0.07930023290399045  0.7023301865830007  0.7879641372164652  1.0000
  C   C16       1.0  0.0665810357357275  0.5776351457742053  0.1913640790160256  1.0000
  C   C17       1.0  0.9755529845328793  0.6172364291131052  0.1880232964168611  1.0000
  C   C18       1.0  0.9289166324076287  0.6375250919936586  0.06969531039096366  1.0000
  C   C19       1.0  0.9752001184613647  0.6173893900787497  0.952801116442092  1.0000
  C   C20       1.0  0.0663435416667637  0.5777394067724644  0.954270760262086  1.0000
  C   C21       1.0  0.11143880875919376  0.5581197931571209  0.07394213392578908  1.0000
  C   C22       1.0  0.8304632361674882  0.6803564153010718  0.07551418417969491  1.0000
  C   C23       1.0  0.7681011610243071  0.6223654210355867  0.9750356917128827  1.0000
  C   C24       1.0  0.7937659631307763  0.7814266986432459  0.9645030087651976  1.0000
  H   H8        1.0  0.9404112291816527  0.63252505844247  0.27815593053804855  1.0000
  H   H9        1.0  0.9410335256696633  0.6322500796891412  0.8602469753941566  1.0000
  H   H10       1.0  0.1816686908765307  0.527565853970789  0.07579226807998474  1.0000
  H   H11       1.0  0.2384845190453433  0.5028333038231925  0.7498312892931178  1.0000
  H   H12       1.0  0.798818833739785  0.6941243459609974  0.17164053133643753  1.0000
  H   H13       1.0  0.7988380333624538  0.5572899852704394  0.9002788090239262  1.0000
  H   H14       1.0  0.698595015979273  0.6028569143648062  0.010084756752252181  1.0000
  H   H15       1.0  0.8400932398515499  0.8129721111542794  0.8833490248709296  1.0000
  H   H16       1.0  0.7392589631770884  0.8548829396281629  0.9933937688309818  1.0000
  Zn  Zn1       1.0  0.9683021532926257  0.577688958023505  0.572819314801837  1.0000
  Zn  Zn2       1.0  0.1646138424928208  0.577684872638629  0.5728149214910281  1.0000
  C   C25       1.0  0.06642160063567643  0.5719759432729332  0.8100445907946927  1.0000
  C   C26       1.0  0.06649652768712966  0.5833997065305101  0.335589779427524  1.0000
  C   C27       1.0  0.06484668551128975  0.8410133492457997  0.56857947310416  1.0000
  C   C28       1.0  0.0680713864105349  0.31436056834624626  0.5770549602006907  1.0000
  O   O1        1.0  0.14096746749824063  0.5853265053850623  0.3839915523504729  1.0000
  O   O2        1.0  0.14094669736148047  0.5700449559828982  0.7616391056457523  1.0000
  O   O3        1.0  0.13967392877483475  0.7872960639538051  0.566654320069591  1.0000
  O   O4        1.0  0.14224016906416395  0.36807540771609487  0.5789762405686629  1.0000
  O   O5        1.0  0.9906757597297298  0.7872984229490023  0.5666579957188747  1.0000
  O   O6        1.0  0.9919485177258041  0.5700490471924553  0.7616427182070746  1.0000
  O   O7        1.0  0.9919692887160193  0.5853305461388165  0.38399360298641727  1.0000
  O   O8        1.0  0.9932419903111125  0.36807943817087185  0.5789783885572515  1.0000
