data_image0
_chemical_formula_structural       NC6NCNCH5C6NH7C6NCOH5Zn2C4O8
_chemical_formula_sum              "N5 C25 H17 O9 Zn2"
_cell_length_a       14.933214217465613
_cell_length_b       9.274771166103582
_cell_length_c       9.273733555595832
_cell_angle_alpha    86.06900368676713
_cell_angle_beta     89.97675588165802
_cell_angle_gamma    90.63112361825276

_space_group_name_H-M_alt    "P 1"
_space_group_IT_number       1

loop_
  _space_group_symop_operation_xyz
  'x, y, z'

loop_
  _atom_site_type_symbol
  _atom_site_label
  _atom_site_symmetry_multiplicity
  _atom_site_fract_x
  _atom_site_fract_y
  _atom_site_fract_z
  _atom_site_occupancy
  N   N1        1.0  0.8531533834001267  0.5624357767335693  0.40652360093853496  1.0000
  C   C1        1.0  0.7756693855949658  0.563422109086197  0.4055314474185763  1.0000
  C   C2        1.0  0.6792787522116583  0.5646518121738715  0.4042943548401581  1.0000
  C   C3        1.0  0.6308526798620739  0.46988344792171777  0.49964151413707064  1.0000
  C   C4        1.0  0.5373260587690997  0.4709550742080801  0.49856337276336665  1.0000
  C   C5        1.0  0.49132281133339084  0.5667407672903431  0.4021927083612251  1.0000
  C   C6        1.0  0.3947340347893811  0.5646539472303818  0.4042922804239597  1.0000
  N   N2        1.0  0.31723734037539036  0.5629130742555364  0.4060434142536393  1.0000
  C   C7        1.0  0.5398552472042031  0.6627057989389382  0.3056417024399325  1.0000
  N   N3        1.0  0.49517565892209114  0.7622639332945937  0.20547579397079385  1.0000
  C   C8        1.0  0.6338561561412219  0.6606780762250248  0.3076819269317057  1.0000
  H   H1        1.0  0.6653758828730849  0.39516496564330117  0.5748162940052729  1.0000
  H   H2        1.0  0.5007722465103199  0.3968651340701028  0.5731056425862994  1.0000
  H   H3        1.0  0.5319776779024694  0.8325814524546067  0.13472877142599526  1.0000
  H   H4        1.0  0.4254678156140094  0.7675612757412267  0.2001461703147578  1.0000
  H   H5        1.0  0.6715296718534849  0.7340225479181057  0.23388951248487808  1.0000
  C   C9        1.0  0.08245054479255631  0.13908346798472304  0.40707191533835385  1.0000
  C   C10       1.0  0.061819688673865364  0.22098703053964708  0.2782123747536098  1.0000
  C   C11       1.0  0.049549515530829424  0.15453227334368913  0.14852649064413836  1.0000
  C   C12       1.0  0.05795696581185683  0.004786440845623963  0.14676067980712326  1.0000
  C   C13       1.0  0.07693157369899929  0.9215427351913502  0.2738514874332818  1.0000
  C   C14       1.0  0.08794868200004058  0.9862544243200382  0.40550763991935  1.0000
  N   N4        1.0  0.029468572238174687  0.23952068874922536  0.018249905491714898  1.0000
  H   H6        1.0  0.18329035804632077  0.22223449261649872  0.7223787618659205  1.0000
  H   H7        1.0  0.05730441818939694  0.3375691502957656  0.2776634399164024  1.0000
  H   H8        1.0  0.04894013634495645  0.9522183624473883  0.04698003752075251  1.0000
  H   H9        1.0  0.08087720956391146  0.8053384544985576  0.26971987062590363  1.0000
  H   H10       1.0  0.15223926842715035  0.6915585912048373  0.6200324011495881  1.0000
  H   H11       1.0  0.02329875631291456  0.35158774229746004  0.018209478966831442  1.0000
  H   H12       1.0  0.020536497323735192  0.19099535660975153  0.9208393060671272  1.0000
  C   C15       1.0  0.08511887065677604  0.5581241668840349  0.9830712022947896  1.0000
  C   C16       1.0  0.0027606804589577197  0.5497602966973156  0.05712311093809075  1.0000
  C   C17       1.0  0.9212927344501181  0.5530870018684844  0.9822516443263972  1.0000
  C   C18       1.0  0.922189539459025  0.5694663571547234  0.8308728483837515  1.0000
  C   C19       1.0  0.003187260052266884  0.5756763871763764  0.7556223149276233  1.0000
  C   C20       1.0  0.08528033917733963  0.5672136677243977  0.8295083451032753  1.0000
  N   N5        1.0  0.8386900369900492  0.5479428610180912  0.06236090513430903  1.0000
  C   C21       1.0  0.7575809233685878  0.48143550974155214  0.015784611664144466  1.0000
  O   O1        1.0  0.7566146129324283  0.40509846881371786  0.9085752237137319  1.0000
  H   H13       1.0  0.2967889832863535  0.6585020617783637  0.07898136347722651  1.0000
  H   H14       1.0  0.8604069413492326  0.5790067994146806  0.7703044911459918  1.0000
  H   H15       1.0  0.2285102882508022  0.6287238153266823  0.5441410136571223  1.0000
  H   H16       1.0  0.8386182508815404  0.5862964591810553  0.16570941418126095  1.0000
  H   H17       1.0  0.6964535455453108  0.49346988309054457  0.07624644271235015  1.0000
  Zn  Zn1       1.0  0.9870779656940724  0.562569733464347  0.40639336788011743  1.0000
  Zn  Zn2       1.0  0.18331266887679065  0.562767410975078  0.40618550437004597  1.0000
  C   C22       1.0  0.08521052745558191  0.5597491046066185  0.6695241949432045  1.0000
  C   C23       1.0  0.08518226183111138  0.5655898635447705  0.14305481313041632  1.0000
  C   C24       1.0  0.08690370122181618  0.8260593722599863  0.40006023035862026  1.0000
  C   C25       1.0  0.0834890098709054  0.29927786360237585  0.41251885782256426  1.0000
  O   O2        1.0  0.15967354281889734  0.5681641441226326  0.19666790289647662  1.0000
  O   O3        1.0  0.1596568384800554  0.5573237640408746  0.615752928721828  1.0000
  O   O4        1.0  0.16102309410341417  0.7723726882051446  0.3981588691114256  1.0000
  O   O5        1.0  0.15830722028028155  0.3531152290492585  0.41426185449864583  1.0000
  O   O6        1.0  0.01208334732531658  0.7722219153241978  0.39831701781486717  1.0000
  O   O7        1.0  0.010717102930664529  0.557174723382986  0.6159109973810559  1.0000
  O   O8        1.0  0.010733806672287512  0.5680150345913058  0.19682423890694656  1.0000
  O   O9        1.0  0.009367484083664168  0.35296611036106684  0.41441829858069956  1.0000
