data_image0
_chemical_formula_structural       NC10NC3NCH9C12NCOCH13C13OH12Zn2C4O8
_chemical_formula_sum              "N4 C45 H34 O10 Zn2"
_cell_length_a       19.437513618241372
_cell_length_b       10.299155265289647
_cell_length_c       10.299153481560891
_cell_angle_alpha    85.56585442832863
_cell_angle_beta     90.3641705825548
_cell_angle_gamma    89.50051482239499

_space_group_name_H-M_alt    "P 1"
_space_group_IT_number       1

loop_
  _space_group_symop_operation_xyz
  'x, y, z'

loop_
  _atom_site_type_symbol
  _atom_site_label
  _atom_site_symmetry_multiplicity
  _atom_site_fract_x
  _atom_site_fract_y
  _atom_site_fract_z
  _atom_site_occupancy
  N   N1        1.0  0.6473398931048239  0.41005139735354823  0.5753158864295629  1.0000
  C   C1        1.0  0.5884025657465397  0.42706168184373694  0.5723362747419907  1.0000
  C   C2        1.0  0.5149571112683086  0.44831448255004386  0.5686377664267794  1.0000
  C   C3        1.0  0.4732127064264758  0.34711375460065685  0.5569995404659129  1.0000
  C   C4        1.0  0.3973193143811745  0.3571769432663572  0.5497759974925904  1.0000
  C   C5        1.0  0.3577417367424044  0.4380518279894657  0.6155023572417254  1.0000
  C   C6        1.0  0.28155957484912014  0.4294403123193955  0.6070599570818871  1.0000
  C   C7        1.0  0.2484489771970058  0.30808863369993156  0.6117288135036327  1.0000
  C   C8        1.0  0.17671415373230712  0.301714184597611  0.60456200433461  1.0000
  C   C9        1.0  0.1371194683049471  0.41621880916949117  0.5930886738409206  1.0000
  C   C10       1.0  0.0632702058830453  0.4095061040643686  0.5857538421295789  1.0000
  N   N2        1.0  0.0039004968981333015  0.40410967940929754  0.5798570957211413  1.0000
  C   C11       1.0  0.1695136807706556  0.5372601259761971  0.5891651675168577  1.0000
  C   C12       1.0  0.2412328706893929  0.5438886031745098  0.5963939456448759  1.0000
  C   C13       1.0  0.3864252608593842  0.5303707885619582  0.7054040419490082  1.0000
  N   N3        1.0  0.4433937817321633  0.5935814589141417  0.6849863607986588  1.0000
  C   C14       1.0  0.4872132628751319  0.5842852608938518  0.5718794004089776  1.0000
  H   H1        1.0  0.4956128948185494  0.25204728383607544  0.5448981040709951  1.0000
  H   H2        1.0  0.37260687304891277  0.28764222410831386  0.4914717335784735  1.0000
  H   H3        1.0  0.2779192042991702  0.21817395343087617  0.6227686245196806  1.0000
  H   H4        1.0  0.152139872271432  0.20748263058006144  0.608468958991198  1.0000
  H   H5        1.0  0.13935877179406259  0.6265205539228234  0.5804376688222319  1.0000
  H   H6        1.0  0.2653255462384326  0.6385329804730528  0.5924714445482402  1.0000
  H   H7        1.0  0.3564352761243585  0.550783325281456  0.7897674216163766  1.0000
  H   H8        1.0  0.5299532502638513  0.6546042757305399  0.5776281407802855  1.0000
  H   H9        1.0  0.4575221394432932  0.6123685008070592  0.4812268675639968  1.0000
  C   C15       1.0  0.825700354505672  0.02568173384034811  0.5777062367305934  1.0000
  C   C16       1.0  0.813926856767561  0.03553855986742761  0.44263050417830707  1.0000
  C   C17       1.0  0.8078907941199257  0.9233995713598747  0.3740256889980633  1.0000
  C   C18       1.0  0.8137623037175914  0.8002814424132835  0.4423206222157089  1.0000
  C   C19       1.0  0.8255466565127175  0.7884692255457111  0.5774780839468252  1.0000
  C   C20       1.0  0.8314461939194818  0.9016875234646481  0.6443388443654622  1.0000
  C   C21       1.0  0.7954367044587735  0.9348005582673745  0.2311318850823254  1.0000
  C   C22       1.0  0.8303159624832229  0.02830641984724446  0.15015815969815538  1.0000
  C   C23       1.0  0.8186015046838847  0.03890452802409628  0.01568564070419076  1.0000
  C   C24       1.0  0.7722013304465457  0.9553191145705333  0.959343869236839  1.0000
  C   C25       1.0  0.7364816655089647  0.8636435232707312  0.040238731234141234  1.0000
  C   C26       1.0  0.7482211758147569  0.8527889672739444  0.17467423367266963  1.0000
  N   N4        1.0  0.758272298824798  0.9657519860449333  0.8216048024239855  1.0000
  C   C27       1.0  0.8084932439700405  0.001822877778292491  0.7240262674174781  1.0000
  O   O1        1.0  0.8716144815059162  0.003313481273413465  0.7526887341989212  1.0000
  C   C28       1.0  0.7865230243359951  0.028595204963274497  0.5852059490218662  1.0000
  H   H10       1.0  0.8302503001021619  0.34936620629137183  0.6296567189233971  1.0000
  H   H11       1.0  0.8084754641228546  0.13065933725023804  0.39075120755671006  1.0000
  H   H12       1.0  0.810053158287324  0.7135287686200704  0.3896447005963358  1.0000
  H   H13       1.0  0.8405296548193589  0.8933698437374279  0.7485251636826223  1.0000
  H   H14       1.0  0.8482009611569283  0.5588840638158142  0.8324551508199264  1.0000
  H   H15       1.0  0.8670605695629997  0.09275420118483524  0.19071864454662624  1.0000
  H   H16       1.0  0.8449863757886005  0.11390304567400557  0.9564409881380795  1.0000
  H   H17       1.0  0.6996708976584652  0.7999006410035158  0.998810363990023  1.0000
  H   H18       1.0  0.7196256796063573  0.7814438796947073  0.23472368226256268  1.0000
  H   H19       1.0  0.7098090493036597  0.9376819120180875  0.7899139821669576  1.0000
  H   H20       1.0  0.7368584330580422  0.08286718774157144  0.5801197489039861  1.0000
  H   H21       1.0  0.7801495436065375  0.9350785450299544  0.5399005069612177  1.0000
  H   H22       1.0  0.8256811831210752  0.08801772785280247  0.5303091438744776  1.0000
  C   C29       1.0  0.8255644351210535  0.40692900395633025  0.19621890911326795  1.0000
  C   C30       1.0  0.7544377450625346  0.3837322713137002  0.19599173364090627  1.0000
  C   C31       1.0  0.718499777490895  0.37213173971347513  0.0787105340056049  1.0000
  C   C32       1.0  0.754600004453243  0.3840468894859941  0.9606857385194644  1.0000
  C   C33       1.0  0.8256825673566899  0.407221921627637  0.958965411254669  1.0000
  C   C34       1.0  0.8607497284850606  0.418524051952615  0.07726022404725529  1.0000
  C   C35       1.0  0.6433013224303593  0.3476201650312256  0.07944342234054069  1.0000
  C   C36       1.0  0.5997749088154011  0.4135870142516458  0.9862020856409104  1.0000
  C   C37       1.0  0.5290087146277463  0.39056412177295385  0.9869697185353297  1.0000
  C   C38       1.0  0.5005780152933901  0.3003190429675562  0.08009452502264591  1.0000
  C   C39       1.0  0.5436426577461846  0.23545624850432678  0.17424818569018607  1.0000
  C   C40       1.0  0.6144121217639436  0.25844943694474964  0.17365875289287325  1.0000
  C   C41       1.0  0.42433926929062893  0.2783011187736091  0.08304683861499051  1.0000
  O   O2        1.0  0.39341966958347524  0.3664108047065706  0.16213424199722226  1.0000
  H   H23       1.0  0.9597319218237077  0.4515451429937045  0.4038747204491955  1.0000
  H   H24       1.0  0.7267014625782297  0.3764302008934745  0.2871163608045375  1.0000
  H   H25       1.0  0.7273050195148493  0.37344866206181143  0.870162261815194  1.0000
  H   H26       1.0  0.9155774632453818  0.4364032997993288  0.0766490990414932  1.0000
  H   H27       1.0  0.8530143017177414  0.4162219282990587  0.6308215193051517  1.0000
  H   H28       1.0  0.6203267679832877  0.4845059330835791  0.9138850417019395  1.0000
  H   H29       1.0  0.4963551225120966  0.44339238151733196  0.9150574969564147  1.0000
  H   H30       1.0  0.5224559416489752  0.16675446606344146  0.247996370107536  1.0000
  H   H31       1.0  0.6466522645372864  0.20542755211524932  0.2460889816092082  1.0000
  H   H32       1.0  0.4134402333275584  0.17668791369022577  0.12175709817632072  1.0000
  H   H33       1.0  0.4025595055255368  0.2920303132160589  0.9826346217316314  1.0000
  H   H34       1.0  0.3434095369249791  0.34788916991654695  0.16079965787488334  1.0000
  Zn  Zn1       1.0  0.750235588601308  0.4083332592981046  0.5766338914191185  1.0000
  Zn  Zn2       1.0  0.9010048114141079  0.40581715117954914  0.578549763916955  1.0000
  C   C42       1.0  0.825659732543381  0.40199249650532604  0.8147915304112581  1.0000
  C   C43       1.0  0.825582313556749  0.412159525293106  0.34039227282386375  1.0000
  C   C44       1.0  0.8255713468909756  0.6442841967252702  0.5723459464595384  1.0000
  C   C45       1.0  0.8256706480873452  0.16986626553379905  0.582837925827946  1.0000
  O   O3        1.0  0.8828044491820225  0.412954419932723  0.38950523604802106  1.0000
  O   O4        1.0  0.8828679486102384  0.39928695407986253  0.7671322965254356  1.0000
  O   O5        1.0  0.8827958049863931  0.5949405795946585  0.5713557619364835  1.0000
  O   O6        1.0  0.8828765413415931  0.21730080453005685  0.5852816726046596  1.0000
  O   O7        1.0  0.7683638072236851  0.5968496068076325  0.5699019820707885  1.0000
  O   O8        1.0  0.7684359505192024  0.40119754169223487  0.765678446946753  1.0000
  O   O9        1.0  0.7683724509040681  0.4148649616851974  0.3880498250649846  1.0000
  O   O10       1.0  0.7684445430777759  0.2192113370304365  0.5838263589933124  1.0000
