data_image0
_chemical_formula_structural       NC5NC3H4C6ClH5C6SCH6Zn2C4O8
_chemical_formula_sum              "N2 C25 H15 Cl1 S1 Zn2 O8"
_cell_length_a       13.859018345313864
_cell_length_b       9.276545438789551
_cell_length_c       9.275274088470228
_cell_angle_alpha    86.1334652357246
_cell_angle_beta     89.72578063474123
_cell_angle_gamma    89.40960550048821

_space_group_name_H-M_alt    "P 1"
_space_group_IT_number       1

loop_
  _space_group_symop_operation_xyz
  'x, y, z'

loop_
  _atom_site_type_symbol
  _atom_site_label
  _atom_site_symmetry_multiplicity
  _atom_site_fract_x
  _atom_site_fract_y
  _atom_site_fract_z
  _atom_site_occupancy
  N   N1        1.0  0.9028988884176482  0.5629748631133624  0.411292113655483  1.0000
  C   C1        1.0  0.830649641861286  0.5239241795433522  0.4625109143306263  1.0000
  C   C2        1.0  0.7407758134214152  0.4753503601548999  0.5262202894493393  1.0000
  C   C3        1.0  0.6530329862760881  0.5227041483291364  0.4641114510192636  1.0000
  C   C4        1.0  0.5655455113649068  0.47535006855329454  0.5262201637576043  1.0000
  C   C5        1.0  0.4754097633316363  0.5239240659462485  0.46251081697498414  1.0000
  N   N2        1.0  0.4029499863195492  0.5629748285638345  0.4112920446254454  1.0000
  C   C6        1.0  0.5659833802361259  0.38062819741574727  0.6504562977229427  1.0000
  C   C7        1.0  0.6535431744295558  0.33345669613336937  0.7123261264717817  1.0000
  C   C8        1.0  0.7408487210877012  0.38062849447500957  0.6504565015052948  1.0000
  H   H1        1.0  0.6528352702982045  0.5960214605169036  0.36794934168938087  1.0000
  H   H2        1.0  0.4987883965929341  0.3433559177296186  0.6993417699939697  1.0000
  H   H3        1.0  0.6537404255955153  0.26028823317002314  0.8082932008464494  1.0000
  H   H4        1.0  0.8082446532142815  0.343356451660106  0.6993421955105705  1.0000
  C   C9        1.0  0.1558419154811792  0.13953742630728616  0.4110545321693386  1.0000
  C   C10       1.0  0.15663265549207894  0.22192601072803678  0.27803838499302347  1.0000
  C   C11       1.0  0.14863568432911678  0.1556112233675493  0.14791735843353782  1.0000
  C   C12       1.0  0.13965515363034742  0.00602856277910235  0.14881059898964133  1.0000
  C   C13       1.0  0.14036087712005949  0.9220783825632743  0.27938523302430407  1.0000
  C   C14       1.0  0.15001623331707076  0.9864012842230621  0.41154213201714424  1.0000
  Cl  Cl1       1.0  0.1484143880458841  0.2606705865693748  0.9833913671431165  1.0000
  H   H5        1.0  0.20446554496769154  0.4046475831168412  0.6376286799392819  1.0000
  H   H6        1.0  0.16116298835816978  0.33861948631161165  0.27518513717049187  1.0000
  H   H7        1.0  0.1330462400028074  0.9543511878006088  0.04814120314183534  1.0000
  H   H8        1.0  0.1356521125476351  0.8057927580072584  0.27673522618022894  1.0000
  H   H9        1.0  0.11692535911892254  0.6898782020313063  0.644576700762362  1.0000
  C   C15       1.0  0.15431167107164095  0.5589513418239842  0.988099098192786  1.0000
  C   C16       1.0  0.23613164422097932  0.6097065634179668  0.05747665935612801  1.0000
  C   C17       1.0  0.3125134497324651  0.6719497251193958  0.9774484260722939  1.0000
  C   C18       1.0  0.30835577118830043  0.6835759561704589  0.8268949942547192  1.0000
  C   C19       1.0  0.22860517840686922  0.6317292490706365  0.7560138924976041  1.0000
  C   C20       1.0  0.15154645856756765  0.5669873551638207  0.8344975491011338  1.0000
  S   S1        1.0  0.4156936153336115  0.7373268543792528  0.06817441330248841  1.0000
  C   C21       1.0  0.36485674416446645  0.9178114014842239  0.0800104969254356  1.0000
  H   H10       1.0  0.9210658421398381  0.4996209214686991  0.09676966452621083  1.0000
  H   H11       1.0  0.3673130688772501  0.7318891133993597  0.7644249341664979  1.0000
  H   H12       1.0  0.2282702650870367  0.6391999664469721  0.6389587303829662  1.0000
  H   H13       1.0  0.35071717462246577  0.9682023194328089  0.97007741948461  1.0000
  H   H14       1.0  0.29667894345510204  0.9123948617905033  0.14337294995641114  1.0000
  H   H15       1.0  0.41710591510158396  0.9850906814853267  0.13504855036147956  1.0000
  Zn  Zn1       1.0  0.04720283140218818  0.562971061793285  0.411300422988232  1.0000
  Zn  Zn2       1.0  0.25864606254282774  0.562966908199922  0.4112955650791932  1.0000
  C   C22       1.0  0.15210650217635147  0.5597239710130462  0.6745068136689139  1.0000
  C   C23       1.0  0.15374468774430383  0.5662158196523064  0.1480893168405415  1.0000
  C   C24       1.0  0.1511311879234798  0.8262714311840147  0.4057071460484307  1.0000
  C   C25       1.0  0.15471994151293433  0.2996666277937781  0.41688906029827666  1.0000
  O   O1        1.0  0.23379605050726404  0.5686459777809274  0.20178164857434025  1.0000
  O   O2        1.0  0.23253566822424587  0.5572895686694361  0.6208103794170519  1.0000
  O   O3        1.0  0.23174700303966553  0.7725300279586809  0.4037527468993576  1.0000
  O   O4        1.0  0.23458464382265418  0.3534055277822086  0.41883917304445784  1.0000
  O   O5        1.0  0.0712641779671781  0.7725324422139142  0.40375681501704563  1.0000
  O   O6        1.0  0.07205283148081644  0.557293714615144  0.6208143716915666  1.0000
  O   O7        1.0  0.0733132198343478  0.5686500570280473  0.20178390815756297  1.0000
  O   O8        1.0  0.07410181286374451  0.3534095977417171  0.41884154066933577  1.0000
