data_image0
_chemical_formula_structural       NC8NH4C10H6C6OCH7Zn2C4O8
_chemical_formula_sum              "N2 C29 H17 O9 Zn2"
_cell_length_a       13.859017981522156
_cell_length_b       9.275150299802176
_cell_length_c       9.273891588657152
_cell_angle_alpha    85.74891997062389
_cell_angle_beta     89.6801234817753
_cell_angle_gamma    89.4839203727508

_space_group_name_H-M_alt    "P 1"
_space_group_IT_number       1

loop_
  _space_group_symop_operation_xyz
  'x, y, z'

loop_
  _atom_site_type_symbol
  _atom_site_label
  _atom_site_symmetry_multiplicity
  _atom_site_fract_x
  _atom_site_fract_y
  _atom_site_fract_z
  _atom_site_occupancy
  N   N1        1.0  0.9051306141570108  0.5646332882476166  0.4012096374308139  1.0000
  C   C1        1.0  0.833050655142227  0.5570459424326911  0.339941894326951  1.0000
  C   C2        1.0  0.7433874229128619  0.5476086492149026  0.2637327919936018  1.0000
  C   C3        1.0  0.7438710860742912  0.5292050272865383  0.1151213062377352  1.0000
  C   C4        1.0  0.6567701726635871  0.5200410515620619  0.04111246883295917  1.0000
  C   C5        1.0  0.5690058007118218  0.5292067482260483  0.11512104819476068  1.0000
  C   C6        1.0  0.5681571808699963  0.5476096212915527  0.2637326027019673  1.0000
  C   C7        1.0  0.6554393539679375  0.5568093856924328  0.33802721083725734  1.0000
  C   C8        1.0  0.4778108338543036  0.5570468444525254  0.3399416488001674  1.0000
  N   N2        1.0  0.4051816969619708  0.5646336010367661  0.40120954205833415  1.0000
  H   H1        1.0  0.8114286801943402  0.52196307441826  0.05664425607539481  1.0000
  H   H2        1.0  0.6572846878551143  0.5058253045207951  0.926316489151716  1.0000
  H   H3        1.0  0.5019723934400695  0.5219661698548852  0.05664381859357159  1.0000
  H   H4        1.0  0.6549237861620604  0.5710538088533914  0.45305657963164925  1.0000
  C   C9        1.0  0.15769752814250704  0.14094969444608355  0.40362255455235413  1.0000
  C   C10       1.0  0.2088530007169318  0.2220180883476797  0.2945777374774805  1.0000
  C   C11       1.0  0.2517545067300542  0.1548348638731376  0.17999140735135866  1.0000
  C   C12       1.0  0.24393706052274092  0.0056040403751127545  0.17297397022102445  1.0000
  C   C13       1.0  0.19489058775783397  0.923085963530922  0.2813710052677034  1.0000
  C   C14       1.0  0.1526240134344959  0.9883062023998409  0.39880914854575555  1.0000
  C   C15       1.0  0.3029311450235484  0.2396229035823734  0.06845339176132259  1.0000
  C   C16       1.0  0.34577890602226957  0.3106355085238919  0.9750728250743902  1.0000
  C   C17       1.0  0.39595164680058437  0.39379624737039365  0.8657282540114491  1.0000
  C   C18       1.0  0.43879114659353796  0.4648035316380057  0.7723655877227902  1.0000
  H   H5        1.0  0.11107657885757763  0.405338206530524  0.6325034335060458  1.0000
  H   H6        1.0  0.21348058441317241  0.3384865427426288  0.29680439212245313  1.0000
  H   H7        1.0  0.2766176892084944  0.9526590512164408  0.08430822611509559  1.0000
  H   H8        1.0  0.1919633055640979  0.8070297651363988  0.27514822877890277  1.0000
  H   H9        1.0  0.08862873439813623  0.8609246443820923  0.7412643288100839  1.0000
  H   H10       1.0  0.4764078007202337  0.5271539570866017  0.690385455456513  1.0000
  C   C19       1.0  0.15676436246440703  0.5608068509635508  0.9779622226085857  1.0000
  C   C20       1.0  0.235417667578679  0.6217467371267105  0.04618973907208401  1.0000
  C   C21       1.0  0.3085333441505025  0.6934601856171798  0.9659726113366753  1.0000
  C   C22       1.0  0.30325653984810486  0.7045952741873265  0.8144687465873469  1.0000
  C   C23       1.0  0.22663560776301722  0.6427817852480503  0.744903994363372  1.0000
  C   C24       1.0  0.15355718782863503  0.568449020060197  0.8244694525102427  1.0000
  O   O1        1.0  0.38456220844097705  0.7526236745885755  0.040843126854869245  1.0000
  C   C25       1.0  0.46356396300546815  0.8285545739911307  0.9733354153870756  1.0000
  H   H11       1.0  0.9277878120555099  0.47219185387912455  0.08948288174817501  1.0000
  H   H12       1.0  0.3585094730444882  0.7596892179290677  0.7492336391798615  1.0000
  H   H13       1.0  0.22581253291091466  0.6502176867561709  0.6277805786879203  1.0000
  H   H14       1.0  0.0008978512428237077  0.5030687841842659  0.5493982251739875  1.0000
  H   H15       1.0  0.4370787829810472  0.9261889042691742  0.908385229787307  1.0000
  H   H16       1.0  0.5042246479557024  0.7569495000411467  0.9033294931688456  1.0000
  H   H17       1.0  0.512749399180985  0.8630408529121073  0.05798305186391528  1.0000
  Zn  Zn1       1.0  0.04943455249710161  0.5646296008766232  0.4012179512803576  1.0000
  Zn  Zn2       1.0  0.2608777871282999  0.5646256230914382  0.4012130879219842  1.0000
  C   C26       1.0  0.15419568985226495  0.5612568036485406  0.6644941283043351  1.0000
  C   C27       1.0  0.15611894729100562  0.5680002419863202  0.13793704196966838  1.0000
  C   C28       1.0  0.15359983404071031  0.8280859546542181  0.39397543379011135  1.0000
  C   C29       1.0  0.15671474103939145  0.3011693582493318  0.408455823175206  1.0000
  O   O2        1.0  0.23614398334690034  0.5704066057918628  0.19162424287138657  1.0000
  O   O3        1.0  0.23465118450686084  0.5588463286224512  0.6108028275044308  1.0000
  O   O4        1.0  0.23416893603011207  0.7743142561251559  0.3923570592226267  1.0000
  O   O5        1.0  0.23662616002004058  0.35493868763589503  0.4100699030271591  1.0000
  O   O6        1.0  0.07368610745018178  0.7743165363350258  0.39236113616925206  1.0000
  O   O7        1.0  0.07416834583491984  0.5588503415664915  0.6108068177538121  1.0000
  O   O8        1.0  0.0756611516055288  0.5704105528141546  0.19162650052128716  1.0000
  O   O9        1.0  0.07614332792709845  0.3549426253143091  0.41007226879716097  1.0000
