data_image0
_chemical_formula_structural       NC8NC6H8C8NH5C6OCH7Zn2C4O8
_chemical_formula_sum              "N3 C33 H20 O9 Zn2"
_cell_length_a       17.457602349358154
_cell_length_b       9.274263428431858
_cell_length_c       9.273891588657152
_cell_angle_alpha    86.03948257069723
_cell_angle_beta     92.54290593679646
_cell_angle_gamma    92.30649601595262

_space_group_name_H-M_alt    "P 1"
_space_group_IT_number       1

loop_
  _space_group_symop_operation_xyz
  'x, y, z'

loop_
  _atom_site_type_symbol
  _atom_site_label
  _atom_site_symmetry_multiplicity
  _atom_site_fract_x
  _atom_site_fract_y
  _atom_site_fract_z
  _atom_site_occupancy
  N   N1        1.0  0.7361249067971287  0.6005499811611306  0.47568688259126146  1.0000
  C   C1        1.0  0.6747888809916512  0.549422798511259  0.4639174722850712  1.0000
  C   C2        1.0  0.5984842873485218  0.48582702596335287  0.44928691227920786  1.0000
  C   C3        1.0  0.539968886454482  0.5311846548214729  0.5323838139060397  1.0000
  C   C4        1.0  0.46511387575564234  0.4699483112592064  0.5184345805831292  1.0000
  C   C5        1.0  0.4030075448084895  0.5178416380985302  0.6064373778261416  1.0000
  C   C6        1.0  0.328759071689785  0.5378103439855026  0.5445591576881603  1.0000
  C   C7        1.0  0.2702421470631751  0.5829646969283764  0.6277758816763757  1.0000
  C   C8        1.0  0.1945665511667181  0.6035846676412391  0.5634392925157676  1.0000
  N   N2        1.0  0.13373624745579024  0.6201560377881961  0.5117128437696139  1.0000
  C   C9        1.0  0.2854814345573504  0.6084254837344831  0.7734350182030805  1.0000
  C   C10       1.0  0.3589464257376062  0.5888927588499318  0.8357432297140588  1.0000
  C   C11       1.0  0.4174514098784405  0.5439429557064615  0.7530343485723328  1.0000
  C   C12       1.0  0.450063237887103  0.36258760964661074  0.41979864180771775  1.0000
  C   C13       1.0  0.5085674000601554  0.3175435341508501  0.3371455193228656  1.0000
  C   C14       1.0  0.5826365798702947  0.3789101458847133  0.3517049450247962  1.0000
  H   H1        1.0  0.5525760251683217  0.6153816303662163  0.6063004632285898  1.0000
  H   H2        1.0  0.3166491160514995  0.520173035719637  0.43135748261452633  1.0000
  H   H3        1.0  0.24062661018798573  0.6433158301969768  0.8387118898047043  1.0000
  H   H4        1.0  0.3705537988426503  0.6082569375515752  0.9485304137267877  1.0000
  H   H5        1.0  0.473692245917433  0.5277415448654916  0.8041965148624208  1.0000
  H   H6        1.0  0.39332436229426004  0.3121151878938111  0.4079890330211051  1.0000
  H   H7        1.0  0.4964850616721528  0.2345751295384686  0.2618989966747822  1.0000
  H   H8        1.0  0.6274842544241501  0.34305860871221405  0.28699539240955096  1.0000
  C   C15       1.0  0.9325055024695602  0.18665272879793826  0.49378644499829166  1.0000
  C   C16       1.0  0.9229745669107161  0.26835464845834833  0.3611933387848505  1.0000
  C   C17       1.0  0.9209651889020494  0.20216715398451915  0.23047417526660574  1.0000
  C   C18       1.0  0.929060712373868  0.052766147978848606  0.2291713160422142  1.0000
  C   C19       1.0  0.9365352161314172  0.9694502564537537  0.36069453933489126  1.0000
  C   C20       1.0  0.9373628885274671  0.034042672002839724  0.49362643044045407  1.0000
  C   C21       1.0  0.9257493468293979  0.9813469041411279  0.08823624810809805  1.0000
  C   C22       1.0  0.8462394965830726  0.9382011005750137  0.048997511483966694  1.0000
  N   N3        1.0  0.7834840393073473  0.9041457764203407  0.018036742443091176  1.0000
  H   H9        1.0  0.9977416494827197  0.2711327738553208  0.8320093158181472  1.0000
  H   H10       1.0  0.91874027246066  0.3847434699002441  0.35844895866368276  1.0000
  H   H11       1.0  0.9138119215923871  0.26784158577835293  0.12993689827280175  1.0000
  H   H12       1.0  0.961179739730891  0.8840289759509955  0.09702446600517511  1.0000
  H   H13       1.0  0.9486694629879324  0.05648123144920181  0.0006137937474359744  1.0000
  C   C23       1.0  0.9361691672693176  0.6065883916332868  0.07054569763290242  1.0000
  C   C24       1.0  0.9993491238946101  0.6706287719209616  0.1448007198475536  1.0000
  C   C25       1.0  0.0582389323946515  0.7452285520036226  0.07027595254368624  1.0000
  C   C26       1.0  0.05415997000510565  0.7561598033764383  0.9184578748156325  1.0000
  C   C27       1.0  0.9925868703991799  0.6913252648313017  0.8430068643245385  1.0000
  C   C28       1.0  0.9336992010657156  0.6141069107660684  0.9168671319705721  1.0000
  O   O1        1.0  0.1193134472869233  0.8073891507307767  0.15097437499287092  1.0000
  C   C29       1.0  0.1829277748531214  0.8864383154527666  0.08960806501800689  1.0000
  H   H14       1.0  0.7531705724707287  0.5089715353662405  0.1650449286792548  1.0000
  H   H15       1.0  0.0022400616249809123  0.6657425003697284  0.2620001704461685  1.0000
  H   H16       1.0  0.09867197912411729  0.8134351717586602  0.8575297733797846  1.0000
  H   H17       1.0  0.8116273909151924  0.542723381931479  0.6304103516622162  1.0000
  H   H18       1.0  0.16289281241540302  0.9830609955596585  0.02332804910781139  1.0000
  H   H19       1.0  0.2145073995265341  0.8164078111620388  0.022107415314720713  1.0000
  H   H20       1.0  0.22239902461591107  0.9228624793593944  0.17800351686385185  1.0000
  Zn  Zn1       1.0  0.850866904404412  0.6062040702255016  0.4860915176928913  1.0000
  Zn  Zn2       1.0  0.018994133357697507  0.6144902238147676  0.5013200085812146  1.0000
  C   C30       1.0  0.9341314307823233  0.6069377567721139  0.75689520898823  1.0000
  C   C31       1.0  0.9357314529465666  0.613758449513945  0.23051662467140277  1.0000
  C   C32       1.0  0.93645754446648  0.8738166903457796  0.48791401546104657  1.0000
  C   C33       1.0  0.933405271731443  0.3468777803006502  0.49949789015560514  1.0000
  O   O2        1.0  0.9993879231247434  0.619303043908233  0.2899834632549476  1.0000
  O   O3        1.0  0.9980796321517384  0.6076810690676551  0.7089860280177303  1.0000
  O   O4        1.0  0.999957133896077  0.8231891539942682  0.49178173296802274  1.0000
  O   O5        1.0  0.9975103643844598  0.40379496551568894  0.5071876450609096  1.0000
  O   O6        1.0  0.8723506160041095  0.8168993256984265  0.48022387600887934  1.0000
  O   O7        1.0  0.8704731244171966  0.6013929735852885  0.6974280938972524  1.0000
  O   O8        1.0  0.8717814202092518  0.6130148827577764  0.278423796643845  1.0000
  O   O9        1.0  0.8699038610913723  0.3975067950050088  0.49562808648923645  1.0000
