data_image0
_chemical_formula_structural       NC6NCNCH5C9H10C6NCOH7Zn2C4O8
_chemical_formula_sum              "N4 C28 H22 O9 Zn2"
_cell_length_a       14.933214217465613
_cell_length_b       10.297183801781406
_cell_length_c       9.273733555595832
_cell_angle_alpha    86.14735742997276
_cell_angle_beta     89.97675588165802
_cell_angle_gamma    90.03175022610812

_space_group_name_H-M_alt    "P 1"
_space_group_IT_number       1

loop_
  _space_group_symop_operation_xyz
  'x, y, z'

loop_
  _atom_site_type_symbol
  _atom_site_label
  _atom_site_symmetry_multiplicity
  _atom_site_fract_x
  _atom_site_fract_y
  _atom_site_fract_z
  _atom_site_occupancy
  N   N1        1.0  0.8430015511275752  0.4070838459278088  0.4086784038244483  1.0000
  C   C1        1.0  0.7655111446874115  0.4079721079228073  0.4076876105855531  1.0000
  C   C2        1.0  0.6691125213824209  0.40907954246553907  0.4064522139282103  1.0000
  C   C3        1.0  0.6213022007667371  0.32373393246998217  0.5016686752803983  1.0000
  C   C4        1.0  0.5277686168465665  0.3246990076806666  0.5005920118192255  1.0000
  C   C5        1.0  0.4811430076442107  0.4109607941899462  0.4043534483910609  1.0000
  C   C6        1.0  0.3845677900877427  0.40908146523482686  0.40645014245653355  1.0000
  N   N2        1.0  0.3070824068909626  0.4075136860805131  0.4081988753951392  1.0000
  C   C7        1.0  0.5290519165068512  0.49738408775340054  0.30793479077503827  1.0000
  N   N3        1.0  0.48372545524832844  0.5870432242559063  0.20790618596882135  1.0000
  C   C8        1.0  0.6230660004499686  0.49555798013524743  0.30997221877250314  1.0000
  H   H1        1.0  0.6563108826121714  0.25644465826634155  0.5767404086082931  1.0000
  H   H2        1.0  0.4916961995075428  0.25797578009824873  0.5750321019435083  1.0000
  H   H3        1.0  0.5200705903868462  0.6503691201225659  0.13725614046171758  1.0000
  H   H4        1.0  0.4139831927770342  0.591813855531764  0.20258386803949824  1.0000
  H   H5        1.0  0.6602629648787585  0.561609860695226  0.2362809559260319  1.0000
  C   C9        1.0  0.07504941862557124  0.02582517043709598  0.40864286012895645  1.0000
  C   C10       1.0  0.07242056159283908  0.03421608184340941  0.25698601124435755  1.0000
  C   C11       1.0  0.07107351412948204  0.9218985035489076  0.17928777285924213  1.0000
  C   C12       1.0  0.0724099998716548  0.7990392947620513  0.2563982121395696  1.0000
  C   C13       1.0  0.07504311600070485  0.7887624617939825  0.40824688381136226  1.0000
  C   C14       1.0  0.07634478685671908  0.9026219252957329  0.4833779752606223  1.0000
  C   C15       1.0  0.06822997185986318  0.940406061309137  0.015260182327318846  1.0000
  C   C16       1.0  0.015785628858974606  0.8408647160445049  0.9350855729989228  1.0000
  C   C17       1.0  0.11780401192470791  0.8412231369352239  0.9304017861008651  1.0000
  H   H6        1.0  0.07607090447128552  0.35013034499592144  0.46708109963779987  1.0000
  H   H7        1.0  0.07140586578476515  0.12887780210227695  0.1984381002335147  1.0000
  H   H8        1.0  0.07142130948918024  0.7108881942588912  0.1994761675339809  1.0000
  H   H9        1.0  0.07837255643101851  0.8954207176614569  0.6003844193239691  1.0000
  H   H10       1.0  0.08000443555535955  0.5621359570882251  0.6950462797655595  1.0000
  H   H11       1.0  0.06731682951012391  0.04061092440467685  0.9625388303674319  1.0000
  H   H12       1.0  0.9859119871085461  0.757833814258897  0.0007044341649651295  1.0000
  H   H13       1.0  0.9841811914239279  0.8807223202440201  0.8331496336202348  1.0000
  H   H14       1.0  0.1499010595702773  0.7584107635831204  0.993176250614749  1.0000
  H   H15       1.0  0.1458248295992196  0.8812878421845047  0.8257270496400333  1.0000
  C   C18       1.0  0.07499505280931001  0.4032009365247058  0.9852200589079122  1.0000
  C   C19       1.0  0.9926912063538386  0.3956686802845337  0.0592604326824635  1.0000
  C   C20       1.0  0.9112016452786899  0.39866461341421505  0.9843935540314468  1.0000
  C   C21       1.0  0.9119920264140046  0.41341538050056664  0.83303734735779  1.0000
  C   C22       1.0  0.9929493977115345  0.4190079514441622  0.7577953783436779  1.0000
  C   C23       1.0  0.07509746284609657  0.41138667445420984  0.8316697373245397  1.0000
  N   N4        1.0  0.8286323715636972  0.39403195100366983  0.0644957203976444  1.0000
  C   C24       1.0  0.747955385447958  0.33413738060903486  0.01782770460864968  1.0000
  O   O1        1.0  0.7474850703334766  0.26539047994599296  0.9105130379142765  1.0000
  H   H16       1.0  0.2860129661177928  0.4935983253308726  0.08126865431006003  1.0000
  H   H17       1.0  0.9916446856788802  0.38938763455221137  0.17638472069694067  1.0000
  H   H18       1.0  0.8501474398557451  0.4220072230498061  0.7724821476352514  1.0000
  H   H19       1.0  0.9912061483597082  0.4270202368265039  0.6407518488060089  1.0000
  H   H20       1.0  0.21792775344346882  0.4667809097505566  0.5463872364010477  1.0000
  H   H21       1.0  0.8283113852631571  0.4285720768840027  0.16789712406288237  1.0000
  H   H22       1.0  0.6867498150093021  0.3449751843686443  0.07830613262858876  1.0000
  Zn  Zn1       1.0  0.9769252630457378  0.40720448343159443  0.4085483555098486  1.0000
  Zn  Zn2       1.0  0.17315868183074676  0.4073825060013505  0.4083407646228678  1.0000
  C   C25       1.0  0.07507615167321773  0.40466430779035023  0.6716752925575553  1.0000
  C   C26       1.0  0.07500993606963927  0.40992432402411394  0.14521396591375568  1.0000
  C   C27       1.0  0.07503899052909335  0.6444955259433012  0.4025786045944062  1.0000
  C   C28       1.0  0.07504703027523513  0.17009154582246014  0.4143107315954166  1.0000
  O   O2        1.0  0.14948449082455328  0.41224264562807056  0.19883060594876234  1.0000
  O   O3        1.0  0.14953822120181237  0.40248011719400667  0.6179006814749508  1.0000
  O   O4        1.0  0.1495072094039962  0.5961468725138948  0.4006032024020032  1.0000
  O   O5        1.0  0.1495154356480449  0.21857589849517667  0.4161279770260147  1.0000
  O   O6        1.0  0.0005684422636034158  0.5960110908783589  0.40076114316996103  1.0000
  O   O7        1.0  0.0005994540351119671  0.4023458955477643  0.618058544587657  1.0000
  O   O8        1.0  0.0005457235081345294  0.41210836195642875  0.19898673631772468  1.0000
  O   O9        1.0  0.0005766683411148063  0.2184416065771315  0.4162842154539321  1.0000
