data_image0
_chemical_formula_structural       NC8NC6H8C8H10C7F3H5Zn2C4O8
_chemical_formula_sum              "N2 C33 H23 F3 Zn2 O8"
_cell_length_a       17.457602349358154
_cell_length_b       9.275653711864159
_cell_length_c       9.272291681409872
_cell_angle_alpha    86.24699051760598
_cell_angle_beta     93.27365386630078
_cell_angle_gamma    91.13236207428555

_space_group_name_H-M_alt    "P 1"
_space_group_IT_number       1

loop_
  _space_group_symop_operation_xyz
  'x, y, z'

loop_
  _atom_site_type_symbol
  _atom_site_label
  _atom_site_symmetry_multiplicity
  _atom_site_fract_x
  _atom_site_fract_y
  _atom_site_fract_z
  _atom_site_occupancy
  N   N1        1.0  0.7084918592739615  0.5989322734918929  0.47911260798967725  1.0000
  C   C1        1.0  0.647628204507774  0.5478533405563506  0.467184361798783  1.0000
  C   C2        1.0  0.5719112426932246  0.4843175850887642  0.4523562374064813  1.0000
  C   C3        1.0  0.5134698595882197  0.5296365255084028  0.5356534215757058  1.0000
  C   C4        1.0  0.4391816194625539  0.4684579802169004  0.5215140667831486  1.0000
  C   C5        1.0  0.3771552114638106  0.516310470511328  0.6097285560618286  1.0000
  C   C6        1.0  0.3022711070360772  0.5362565652826874  0.5478580520499756  1.0000
  C   C7        1.0  0.2438312090464084  0.5813724310624477  0.6312745632180718  1.0000
  C   C8        1.0  0.167496263357173  0.6019690282711101  0.5669455820827096  1.0000
  N   N2        1.0  0.10613592010138372  0.6185216129101683  0.5152252296449931  1.0000
  C   C9        1.0  0.2597840115282526  0.6068171105432083  0.7771270348461952  1.0000
  C   C10       1.0  0.3338828429830854  0.5873066040062696  0.8394291540429366  1.0000
  C   C11       1.0  0.39231203757820593  0.5423951210932463  0.7565214977007497  1.0000
  C   C12       1.0  0.42462122679789027  0.36119440881749254  0.4224841871256304  1.0000
  C   C13       1.0  0.48305099610891944  0.3161887469074649  0.33963205986287504  1.0000
  C   C14       1.0  0.556556139385636  0.3774974703065124  0.354382485852748  1.0000
  H   H1        1.0  0.5256691943428867  0.6137571324905711  0.609876207271081  1.0000
  H   H2        1.0  0.2895834069953231  0.5186297180733328  0.43451239801266967  1.0000
  H   H3        1.0  0.21499532921044853  0.6416777736364601  0.8425590777473033  1.0000
  H   H4        1.0  0.3460464948994444  0.6066586459641263  0.9523650183155955  1.0000
  H   H5        1.0  0.4490750875373921  0.5262121098268313  0.8076781863304894  1.0000
  H   H6        1.0  0.36834737710102666  0.31076960805133946  0.4105176205741159  1.0000
  H   H7        1.0  0.47135416610720826  0.2332954600616428  0.2640818998061838  1.0000
  H   H8        1.0  0.6013519042460844  0.34167656827621795  0.2895154202186274  1.0000
  C   C15       1.0  0.9094659580838801  0.18543204764135457  0.496018970755534  1.0000
  C   C16       1.0  0.8909738873460673  0.26680300140230584  0.36575873363147915  1.0000
  C   C17       1.0  0.8655846962526423  0.19924999486028924  0.24045177645793056  1.0000
  C   C18       1.0  0.8598252431418779  0.04841281588196322  0.24453537747175913  1.0000
  C   C19       1.0  0.8791348502444994  0.9658703829950175  0.37209142014830054  1.0000
  C   C20       1.0  0.9051692494326607  0.03201115124140007  0.49833194510990303  1.0000
  C   C21       1.0  0.8470955078390191  0.28792644852083993  0.10140376726619804  1.0000
  C   C22       1.0  0.9185194381636671  0.3124729503550121  0.015113158360229525  1.0000
  H   H9        1.0  0.9798694247802112  0.4551911046991306  0.7022424785310493  1.0000
  H   H10       1.0  0.8946330641793467  0.38376799719063337  0.3622068848010973  1.0000
  H   H11       1.0  0.8410953175950311  0.9944225988187078  0.14826739383371046  1.0000
  H   H12       1.0  0.8755833469268536  0.8492166125881594  0.3708888415490341  1.0000
  H   H13       1.0  0.9132856719807481  0.7353820915566917  0.7368148265109022  1.0000
  H   H14       1.0  0.8021284900633512  0.2322827930533704  0.03462799510904068  1.0000
  H   H15       1.0  0.8239060443220503  0.3941708371571351  0.1248516588909463  1.0000
  H   H16       1.0  0.963457777106433  0.3714035507824516  0.07871625075006095  1.0000
  H   H17       1.0  0.9414382134196003  0.20743617405746195  0.9875282849823778  1.0000
  H   H18       1.0  0.9036692631970471  0.37792078755177716  0.9131397528191839  1.0000
  C   C23       1.0  0.9057213742351157  0.6049419526398185  0.07365798393801448  1.0000
  C   C24       1.0  0.9577848949306264  0.5167653668424694  0.15831590942622564  1.0000
  C   C25       1.0  0.013952206159304264  0.44171060801831086  0.09437137509838922  1.0000
  C   C26       1.0  0.020290087513899605  0.45459299873856374  0.9440947469550008  1.0000
  C   C27       1.0  0.9667219635568566  0.5379188219428653  0.8581147327866038  1.0000
  C   C28       1.0  0.9089138286338797  0.6125013201651996  0.9206929216958923  1.0000
  C   C29       1.0  0.07963958007991549  0.3701963118383795  0.8746205729351497  1.0000
  F   F1        1.0  0.1440086544702759  0.34902244291804596  0.9673077710554048  1.0000
  F   F2        1.0  0.10223886670423202  0.44346373490887014  0.748830870137474  1.0000
  F   F3        1.0  0.04869397132314335  0.23728490689260598  0.8414317184982161  1.0000
  H   H19       1.0  0.7961936577181191  0.8908997818270495  0.14473179137916348  1.0000
  H   H20       1.0  0.9560576745445823  0.5080722206827978  0.2751782573522339  1.0000
  H   H21       1.0  0.05295554055513766  0.37441214860068106  0.16290589002857736  1.0000
  H   H22       1.0  0.9688900381267652  0.5418715127076525  0.7413361137041132  1.0000
  H   H23       1.0  0.7343300349978997  0.7420222102835008  0.7919364452921758  1.0000
  Zn  Zn1       1.0  0.8232433966808919  0.604581542433614  0.48954224715540073  1.0000
  Zn  Zn2       1.0  0.9913844729300869  0.6128606309458797  0.5048073658148289  1.0000
  C   C30       1.0  0.9083378285799802  0.6053298698883461  0.7605693680228556  1.0000
  C   C31       1.0  0.9062918684289465  0.6121142139247889  0.23378055816511356  1.0000
  C   C32       1.0  0.9059558147866781  0.8719382242986186  0.4921472814242425  1.0000
  C   C33       1.0  0.9086738339269584  0.3455041255395574  0.502202711713952  1.0000
  O   O1        1.0  0.9702920255709266  0.6176568726643221  0.2933121726083314  1.0000
  O   O2        1.0  0.9719528617458245  0.6060697566301159  0.7126232072971057  1.0000
  O   O3        1.0  0.9700285009638374  0.8213593455686485  0.4958703992389523  1.0000
  O   O4        1.0  0.9722163285178537  0.4023672902471911  0.5100648673492723  1.0000
  O   O5        1.0  0.842411483714791  0.8150748803085579  0.48428474040414  1.0000
  O   O6        1.0  0.8443358354137348  0.5997870225212387  0.7010374762952503  1.0000
  O   O7        1.0  0.8426749930095112  0.6113740728520264  0.28172470750848294  1.0000
  O   O8        1.0  0.844599296413164  0.3960844810897488  0.49847751034981913  1.0000
