data_image0
_chemical_formula_structural       NC12NC2H8C9H10C7ONH5Zn2C4O8
_chemical_formula_sum              "N3 C34 H23 O9 Zn2"
_cell_length_a       19.240039667572717
_cell_length_b       10.297183801781406
_cell_length_c       9.273042158839658
_cell_angle_alpha    86.13565984305119
_cell_angle_beta     90.09323012154856
_cell_angle_gamma    89.99762600624447

_space_group_name_H-M_alt    "P 1"
_space_group_IT_number       1

loop_
  _space_group_symop_operation_xyz
  'x, y, z'

loop_
  _atom_site_type_symbol
  _atom_site_label
  _atom_site_symmetry_multiplicity
  _atom_site_fract_x
  _atom_site_fract_y
  _atom_site_fract_z
  _atom_site_occupancy
  N   N1        1.0  0.6531985192268611  0.40659634022135394  0.40940670613171615  1.0000
  C   C1        1.0  0.5930501503363875  0.40659642336383517  0.40940661515392623  1.0000
  C   C2        1.0  0.5182321130731018  0.40659653923754413  0.4094064627103391  1.0000
  C   C3        1.0  0.4818498384555374  0.3432012167927343  0.5242090318971486  1.0000
  C   C4        1.0  0.4091791681617637  0.34309121533216547  0.5243051336058677  1.0000
  C   C5        1.0  0.3718998779355627  0.4065966294334151  0.409406209973596  1.0000
  C   C6        1.0  0.4089962662616406  0.47010223261842304  0.2945075021635306  1.0000
  C   C7        1.0  0.48166703264349614  0.46999199688219734  0.29460373994153666  1.0000
  C   C8        1.0  0.2946947874146824  0.4065965497471229  0.4094061041139275  1.0000
  C   C9        1.0  0.2575459669841025  0.29374506600848643  0.4559299983093326  1.0000
  C   C10       1.0  0.1848751967211907  0.29385103505084986  0.45582859008545645  1.0000
  C   C11       1.0  0.14836250054740027  0.40659642117942507  0.4094061717764179  1.0000
  C   C12       1.0  0.0735444636113883  0.40659631002060764  0.40940644780663726  1.0000
  N   N2        1.0  0.013396146941568501  0.40659627137786736  0.40940667914032325  1.0000
  C   C13       1.0  0.1847973151824892  0.5193418826001508  0.3629836947306327  1.0000
  C   C14       1.0  0.25746792937604634  0.5194480301028213  0.36288210596576853  1.0000
  H   H1        1.0  0.5096360880650408  0.29412630290217373  0.6138434166378468  1.0000
  H   H2        1.0  0.38215819771924825  0.29482633734936226  0.6151771864994542  1.0000
  H   H3        1.0  0.38183070587117107  0.5183671371262952  0.2036353928229726  1.0000
  H   H4        1.0  0.5093105547393226  0.5190668133833298  0.20496966134004735  1.0000
  H   H5        1.0  0.2846683732159151  0.20489301394408432  0.4905636019423387  1.0000
  H   H6        1.0  0.15719036436556516  0.20590927351450564  0.49160820687803897  1.0000
  H   H7        1.0  0.1570523241035393  0.6072836197459355  0.3272040940984753  1.0000
  H   H8        1.0  0.2845320019206997  0.6083001608946945  0.3282484526055629  1.0000
  C   C15       1.0  0.8333032635955515  0.02512269564471414  0.40961090252035803  1.0000
  C   C16       1.0  0.8311580246153614  0.033544011340024715  0.2579377421597904  1.0000
  C   C17       1.0  0.8300587951881842  0.9212420102437429  0.1802311467145583  1.0000
  C   C18       1.0  0.8311494207451657  0.798367342446361  0.2573498794491518  1.0000
  C   C19       1.0  0.8332980980475269  0.7880600658672289  0.4092148841934107  1.0000
  C   C20       1.0  0.8343603335593184  0.9019044676470005  0.48435405568676143  1.0000
  C   C21       1.0  0.8277383754520302  0.9397824526189011  0.01618591391364199  1.0000
  C   C22       1.0  0.7869780883335098  0.8403044792146188  0.9359499336931925  1.0000
  C   C23       1.0  0.8661567773925567  0.8405692512119334  0.931371128530628  1.0000
  H   H9        1.0  0.8341364925409424  0.34941614658005227  0.46805543614819034  1.0000
  H   H10       1.0  0.8303299899642503  0.12821746915772406  0.1993835342135566  1.0000
  H   H11       1.0  0.8303426942791436  0.7102276555645277  0.2004217105285251  1.0000
  H   H12       1.0  0.8360150821199125  0.8946798028810189  0.6013730839326739  1.0000
  H   H13       1.0  0.8373471118146574  0.5613760727703525  0.6960451164337034  1.0000
  H   H14       1.0  0.8269931898506865  0.03999788464629028  0.9634588922676715  1.0000
  H   H15       1.0  0.7638369193311926  0.757289151652887  0.0015438129899711978  1.0000
  H   H16       1.0  0.7623777233668174  0.8802101618680758  0.8339722036243837  1.0000
  H   H17       1.0  0.891112410673032  0.757715565271089  0.994184382009561  1.0000
  H   H18       1.0  0.8878328706359482  0.8806273015036539  0.8267159584646544  1.0000
  C   C24       1.0  0.8329683497111563  0.4025766005303263  0.9861500869470068  1.0000
  C   C25       1.0  0.769131333495287  0.4108487555443506  0.058826613698293125  1.0000
  C   C26       1.0  0.7065493346908077  0.43168612177125043  0.982559649359299  1.0000
  C   C27       1.0  0.7081896898359284  0.4426822753544548  0.8310552412598922  1.0000
  C   C28       1.0  0.7708889036875336  0.4325028633919768  0.7573702740188165  1.0000
  C   C29       1.0  0.8336330208735839  0.4106061235126346  0.8326757579117765  1.0000
  C   C30       1.0  0.6401332518669122  0.4406539701308976  0.062415028498213676  1.0000
  O   O1        1.0  0.6354902763798652  0.39038369967761133  0.18981174326833017  1.0000
  N   N3        1.0  0.5810128302726314  0.5065576954278055  0.9988443718606423  1.0000
  H   H19       1.0  0.001596297766528031  0.45219607915033905  0.08608435473108167  1.0000
  H   H20       1.0  0.6609255676230141  0.4555262992337897  0.7684254514458121  1.0000
  H   H21       1.0  0.9472937523344551  0.438000047535424  0.5497397329545111  1.0000
  H   H22       1.0  0.5843596261312968  0.5626537259067192  0.9011494271262942  1.0000
  H   H23       1.0  0.5340360546371412  0.5064114859826366  0.05508691859513282  1.0000
  Zn  Zn1       1.0  0.757143789608771  0.40659293103278854  0.40941501118251944  1.0000
  Zn  Zn2       1.0  0.9094509046385328  0.4065891957538499  0.40941014279311383  1.0000
  C   C31       1.0  0.8335058502707304  0.4039132992942016  0.6726669423883516  1.0000
  C   C32       1.0  0.8330905072654841  0.4092704678632315  0.1461583521522083  1.0000
  C   C33       1.0  0.833290977493405  0.6437941791932487  0.40354609257530183  1.0000
  C   C34       1.0  0.8333053281419636  0.16938802796316213  0.41527927962157807  1.0000
  O   O2        1.0  0.8909312608936941  0.41150990607271276  0.19985674306172665  1.0000
  O   O3        1.0  0.8912626724842414  0.40167004216722146  0.618964442079025  1.0000
  O   O4        1.0  0.891088382007473  0.5953769006284317  0.4016474511041619  1.0000
  O   O5        1.0  0.8911054993134458  0.21780305588046048  0.41717362596201757  1.0000
  O   O6        1.0  0.7754891429589086  0.5953790709087947  0.40165152800769466  1.0000
  O   O7        1.0  0.775663433361574  0.40167377245122343  0.6189684413203171  1.0000
  O   O8        1.0  0.7753320204569543  0.4115135746510099  0.1998590094037873  1.0000
  O   O9        1.0  0.7755062589587729  0.21780671619241643  0.4171760003727303  1.0000
