data_image0
_chemical_formula_structural       NC9NC3NH7C8H6C8NH11Zn2C4O8
_chemical_formula_sum              "N4 C32 H24 Zn2 O8"
_cell_length_a       16.053384444249904
_cell_length_b       9.27514070457351
_cell_length_c       9.275652972338538
_cell_angle_alpha    86.0727604772434
_cell_angle_beta     90.23845156290304
_cell_angle_gamma    89.76770978158073

_space_group_name_H-M_alt    "P 1"
_space_group_IT_number       1

loop_
  _space_group_symop_operation_xyz
  'x, y, z'

loop_
  _atom_site_type_symbol
  _atom_site_label
  _atom_site_symmetry_multiplicity
  _atom_site_fract_x
  _atom_site_fract_y
  _atom_site_fract_z
  _atom_site_occupancy
  N   N1        1.0  0.7867405112948864  0.5482112884935257  0.4105383417673958  1.0000
  C   C1        1.0  0.7354837396776969  0.5245632065788106  0.3274147335523325  1.0000
  C   C2        1.0  0.6717857896968484  0.49518035326375603  0.22415493400227748  1.0000
  C   C3        1.0  0.6846879745155876  0.4808233650786109  0.07903054823220201  1.0000
  C   C4        1.0  0.6076418183458364  0.45232682489720216  0.020970798789699877  1.0000
  C   C5        1.0  0.5510270379472476  0.45088363642035373  0.13380465042100487  1.0000
  C   C6        1.0  0.4601666179288141  0.4243635620815694  0.12236963259469989  1.0000
  C   C7        1.0  0.405010409165544  0.47246332474586034  0.22670360768153186  1.0000
  C   C8        1.0  0.3192641491705391  0.4473108073969563  0.21575161139041854  1.0000
  C   C9        1.0  0.2633509784731359  0.49736486637409  0.32272261352886167  1.0000
  N   N2        1.0  0.2184133373288946  0.5376012604565903  0.4087105489869256  1.0000
  C   C10       1.0  0.2879473907824213  0.373934305815641  0.10048056108400871  1.0000
  C   C11       1.0  0.3420968700023193  0.3259688708091468  0.9963818190732759  1.0000
  C   C12       1.0  0.4276341376514368  0.3509345267467707  0.006893236207110576  1.0000
  N   N3        1.0  0.5909099393556445  0.477196123857879  0.25767302681966586  1.0000
  H   H1        1.0  0.7432291514805662  0.4900351608808891  0.02176791790380616  1.0000
  H   H2        1.0  0.5947986684323963  0.43630184302360325  0.9086463115473419  1.0000
  H   H3        1.0  0.42806410283944113  0.5312803590257102  0.31540502715076935  1.0000
  H   H4        1.0  0.22176483513411097  0.353927081724359  0.0910744937090775  1.0000
  H   H5        1.0  0.3177626100649519  0.26897276821581073  0.9074251859929502  1.0000
  H   H6        1.0  0.4681622326480401  0.3110539377054103  0.9255067312749058  1.0000
  H   H7        1.0  0.5652121220386218  0.4804978058535465  0.3606269089037113  1.0000
  C   C13       1.0  4.616510808808098e-05  0.11952101808934068  0.4086271351820021  1.0000
  C   C14       1.0  0.011358972318105568  0.20180597752978366  0.27709673846104077  1.0000
  C   C15       1.0  0.029958524088343985  0.13518988446142988  0.15070152153645197  1.0000
  C   C16       1.0  0.03769284653683492  0.9850881843078056  0.1534089274582633  1.0000
  C   C17       1.0  0.02530282096690994  0.9012330724190936  0.28258159805216176  1.0000
  C   C18       1.0  0.005115603792085869  0.9662803655810351  0.41063417508988787  1.0000
  C   C19       1.0  0.05741099038557196  0.9166667710045729  0.022980077047218606  1.0000
  C   C20       1.0  0.07392072288148867  0.8593656594890274  0.9137831519190612  1.0000
  H   H8        1.0  0.015235363720830232  0.19802033795773746  0.7627280631624036  1.0000
  H   H9        1.0  0.007757803475647372  0.3186898531328841  0.27269710312223006  1.0000
  H   H10       1.0  0.03912413312478203  0.2010394819235064  0.051018473820053645  1.0000
  H   H11       1.0  0.029500915248131365  0.7845214666748487  0.2823857665215146  1.0000
  H   H12       1.0  0.01214618790381361  0.6691763196286986  0.6492266194565319  1.0000
  H   H13       1.0  0.08841272237746022  0.8090656246037313  0.8179311836609235  1.0000
  C   C21       1.0  0.0007097567992346844  0.5401362645860339  0.9863610917917033  1.0000
  C   C22       1.0  0.9472472074170191  0.6357739222215733  0.05296051790047551  1.0000
  C   C23       1.0  0.9004118679713844  0.7396630675951713  0.9707048638162109  1.0000
  C   C24       1.0  0.9059056296082816  0.7465532207700438  0.8199130524257221  1.0000
  C   C25       1.0  0.957534583194027  0.6510248185837653  0.7519134665749306  1.0000
  C   C26       1.0  0.004452057956774838  0.5456651263761707  0.8329001730385426  1.0000
  C   C27       1.0  0.8425408658551602  0.8397366076991614  0.043729919744769134  1.0000
  C   C28       1.0  0.7564750858254127  0.7713973435570078  0.06471294696144936  1.0000
  N   N4        1.0  0.7005644709446374  0.8702194476630739  0.13339098570677832  1.0000
  H   H14       1.0  0.06048056215738251  0.3244264790759763  0.2822020955571989  1.0000
  H   H15       1.0  0.943261102746549  0.631860031569148  0.16979531742848186  1.0000
  H   H16       1.0  0.8694360605531911  0.8251193570632925  0.7546703090996654  1.0000
  H   H17       1.0  0.9590754939593785  0.6571799388569088  0.6349019019331026  1.0000
  H   H18       1.0  0.11789037994793028  0.41080592883571515  0.5616233727921419  1.0000
  H   H19       1.0  0.8687780537058702  0.8644289416180504  0.15039381534752794  1.0000
  H   H20       1.0  0.8364956359100812  0.9439913672953493  0.9776953759347484  1.0000
  H   H21       1.0  0.7302886723568809  0.7478623506785054  0.9576344570791502  1.0000
  H   H22       1.0  0.7617367367205939  0.6679914490462942  0.13263597129323768  1.0000
  H   H23       1.0  0.6414425759466807  0.8232493591885754  0.13792816555896104  1.0000
  H   H24       1.0  0.7201124988474663  0.8769563581494688  0.24044543028931667  1.0000
  Zn  Zn1       1.0  0.9113119757147528  0.5451456727924695  0.41001918720859276  1.0000
  Zn  Zn2       1.0  0.0938418312041871  0.5406552070288897  0.4092414561301405  1.0000
  C   C29       1.0  0.0037084160288665155  0.5388764163243385  0.672872561254132  1.0000
  C   C30       1.0  0.001447395626877681  0.5469262345353484  0.14638821937464797  1.0000
  C   C31       1.0  0.004127709816597495  0.8061874148210784  0.4045110277098256  1.0000
  C   C32       1.0  0.0010280295236477785  0.2796135058680409  0.41474982592444953  1.0000
  O   O1        1.0  0.0709640451944875  0.5474946121731505  0.19979962545770902  1.0000
  O   O2        1.0  0.07272769497843767  0.5348987887035832  0.6188704577798718  1.0000
  O   O3        1.0  0.07306535285920425  0.7507558333593689  0.40216662827248073  1.0000
  O   O4        1.0  0.07062632461263663  0.3316375786575645  0.4165033471818054  1.0000
  O   O5        1.0  0.9345274200177982  0.7541633026976902  0.402757296414751  1.0000
  O   O6        1.0  0.9341897721640241  0.538307989746367  0.6194610531744713  1.0000
  O   O7        1.0  0.9324261144738665  0.5509037516545368  0.2003884877827333  1.0000
  O   O8        1.0  0.9320883943045942  0.3350467085326463  0.41709231754794795  1.0000
