data_image0
_chemical_formula_structural       NC9NC4H8C7OCH9C8H6Zn2C4O8
_chemical_formula_sum              "N2 C33 H23 O9 Zn2"
_cell_length_a       16.32274767691083
_cell_length_b       10.30083208314754
_cell_length_c       9.275144076552241
_cell_angle_alpha    85.93959476357365
_cell_angle_beta     89.93057160658579
_cell_angle_gamma    89.51862078510035

_space_group_name_H-M_alt    "P 1"
_space_group_IT_number       1

loop_
  _space_group_symop_operation_xyz
  'x, y, z'

loop_
  _atom_site_type_symbol
  _atom_site_label
  _atom_site_symmetry_multiplicity
  _atom_site_fract_x
  _atom_site_fract_y
  _atom_site_fract_z
  _atom_site_occupancy
  N   N1        1.0  0.7640913860616146  0.40190492070293543  0.3978374266498286  1.0000
  C   C1        1.0  0.7114928090111139  0.3540938195311931  0.3375994116375922  1.0000
  C   C2        1.0  0.646112485894771  0.29471205956744484  0.2627833153072059  1.0000
  C   C3        1.0  0.6572183676327283  0.21348837891040806  0.1604434456397117  1.0000
  C   C4        1.0  0.5776346970010877  0.1738508165546222  0.1105049924317243  1.0000
  C   C5        1.0  0.5190208363877188  0.23185952712673272  0.18359708644272343  1.0000
  C   C6        1.0  0.428999015646121  0.21652837073915898  0.16428341890187004  1.0000
  C   C7        1.0  0.373775066186164  0.284141218118366  0.24946876950881647  1.0000
  C   C8        1.0  0.28899447329268435  0.2710384732523836  0.2329620852122536  1.0000
  C   C9        1.0  0.23337002962714073  0.34072985859838867  0.3207653382885043  1.0000
  N   N2        1.0  0.18866685333628452  0.39675026179461703  0.3913442824550275  1.0000
  C   C10       1.0  0.2583841931252404  0.19021353459723134  0.13113297551824177  1.0000
  C   C11       1.0  0.3122867186287089  0.12269024773627724  0.04606083790256821  1.0000
  C   C12       1.0  0.3969065732320185  0.1354400641340887  0.06212273461300999  1.0000
  C   C13       1.0  0.5572402098472637  0.31644259002683106  0.29016681300354175  1.0000
  H   H1        1.0  0.7159521298724482  0.18190430403288205  0.12064579045592772  1.0000
  H   H2        1.0  0.5689742514246414  0.10746680230691275  0.026862539483076826  1.0000
  H   H3        1.0  0.3962345382556065  0.34723870914248156  0.3289636746284996  1.0000
  H   H4        1.0  0.1929330747956968  0.179419588816506  0.11753514075241522  1.0000
  H   H5        1.0  0.2884343464648955  0.060164623556364226  0.9672866963048116  1.0000
  H   H6        1.0  0.436390749266704  0.08142578383324327  0.9940709382613099  1.0000
  H   H7        1.0  0.5409803036122399  0.2824037370958028  0.4028297350201506  1.0000
  H   H8        1.0  0.5403418321422241  0.420343976798786  0.2655290493672615  1.0000
  C   C14       1.0  0.9764066056553178  0.01799144807523745  0.3947416905735288  1.0000
  C   C15       1.0  0.9529344752830766  0.026770550673357093  0.24873818363681258  1.0000
  C   C16       1.0  0.9401613622923336  0.9140582420357886  0.1756694339041649  1.0000
  C   C17       1.0  0.9528735995176496  0.7915099588947139  0.2483582700522666  1.0000
  C   C18       1.0  0.9763595683013891  0.7806536825838499  0.3944523994058746  1.0000
  C   C19       1.0  0.9877965328779692  0.8944310797488199  0.46687243757178526  1.0000
  C   C20       1.0  0.9173907587970411  0.9246136856504448  0.01835217797719135  1.0000
  O   O1        1.0  0.9897795713593187  0.9291319488975592  0.9348440452645876  1.0000
  C   C21       1.0  0.9692271060768497  0.9390765543544928  0.7868617702805651  1.0000
  H   H9        1.0  0.9445071934071428  0.12119546966354956  0.19124353192018373  1.0000
  H   H10       1.0  0.9444037819169974  0.7047863354077591  0.19060281907234922  1.0000
  H   H11       1.0  0.00590619673563575  0.8868972894895065  0.5794723242613893  1.0000
  H   H12       1.0  0.02156061137189758  0.5529409276675056  0.6695946322544231  1.0000
  H   H13       1.0  0.8795622180482261  0.014192517994058736  0.994833807901558  1.0000
  H   H14       1.0  0.8795936024026282  0.839100590884966  0.9945028137647088  1.0000
  H   H15       1.0  0.026652341569992626  0.9425190276860653  0.7226716585793125  1.0000
  H   H16       1.0  0.9341947160702968  0.03022084948846837  0.7573386503913375  1.0000
  H   H17       1.0  0.9342073244412767  0.8527364338716092  0.7569812674499019  1.0000
  C   C22       1.0  0.9744535077052371  0.39668869410205204  0.9713420511390959  1.0000
  C   C23       1.0  0.9210324294615556  0.4820258152764367  0.03810055222473575  1.0000
  C   C24       1.0  0.8741847315685481  0.5737171439738147  0.9558471876462282  1.0000
  C   C25       1.0  0.8799107368064247  0.5819458898847278  0.8053259834765742  1.0000
  C   C26       1.0  0.9316310141084494  0.4965341884083776  0.7368376966487125  1.0000
  C   C27       1.0  0.9783126401970978  0.4019564740298976  0.8178520567765335  1.0000
  C   C28       1.0  0.8318729189010998  0.6772213575527128  0.7207195476897663  1.0000
  C   C29       1.0  0.7916557718747574  0.756989293936444  0.64986794626981  1.0000
  H   H18       1.0  0.14477700150559114  0.224154459946299  0.08740611417806932  1.0000
  H   H19       1.0  0.916934614482446  0.47989262052011084  0.1548341749031794  1.0000
  H   H20       1.0  0.8340422046314447  0.6391335899611965  0.009874794837273713  1.0000
  H   H21       1.0  0.9339794200233457  0.5019016545533266  0.6197151188266292  1.0000
  H   H22       1.0  0.09121575266919452  0.2816878576635118  0.5463564588782508  1.0000
  H   H23       1.0  0.7563534652216427  0.827008527723294  0.5876734725948065  1.0000
  Zn  Zn1       1.0  0.8866147389512309  0.4004139640086519  0.3959719705358493  1.0000
  Zn  Zn2       1.0  0.06614356110649444  0.39823063591255287  0.39322155030141626  1.0000
  C   C30       1.0  0.9775816713226027  0.39578751121325073  0.6578454937007778  1.0000
  C   C31       1.0  0.9751785897280935  0.402858704225038  0.1313481379466208  1.0000
  C   C32       1.0  0.9763380366005228  0.6364585976511006  0.38876355931985596  1.0000
  C   C33       1.0  0.9764221636361311  0.1621860588420303  0.4004301507010888  1.0000
  O   O2        1.0  0.04355218661387683  0.4040951890980393  0.18400387435697652  1.0000
  O   O3        1.0  0.04546629460743756  0.3928929486139403  0.6031018374386512  1.0000
  O   O4        1.0  0.04446113224541736  0.5872379151094387  0.3858162851852365  1.0000
  O   O5        1.0  0.04455728722162311  0.20975023196448128  0.40128931947599056  1.0000
  O   O6        1.0  0.9082009515716912  0.5888943687031527  0.3879042022922763  1.0000
  O   O7        1.0  0.9092061134833428  0.39455096189924177  0.6051896771031464  1.0000
  O   O8        1.0  0.9072919976470328  0.4057531463470039  0.18608998114717856  1.0000
  O   O9        1.0  0.9082970987446423  0.21140818059793487  0.40337553433159523  1.0000
