data_image0
_chemical_formula_structural       NC8NC6H8C6NO2H5C6SCNH5Zn2C4O8
_chemical_formula_sum              "N4 C31 H18 O10 S1 Zn2"
_cell_length_a       17.457602349358154
_cell_length_b       9.273392599741051
_cell_length_c       10.302218930750287
_cell_angle_alpha    85.67519561885129
_cell_angle_beta     92.89432631333469
_cell_angle_gamma    91.0881455882028

_space_group_name_H-M_alt    "P 1"
_space_group_IT_number       1

loop_
  _space_group_symop_operation_xyz
  'x, y, z'

loop_
  _atom_site_type_symbol
  _atom_site_label
  _atom_site_symmetry_multiplicity
  _atom_site_fract_x
  _atom_site_fract_y
  _atom_site_fract_z
  _atom_site_occupancy
  N   N1        1.0  0.7132593382115283  0.6132328781488783  0.6292249544494489  1.0000
  C   C1        1.0  0.6524609516120499  0.5622464786318611  0.6185356902361783  1.0000
  C   C2        1.0  0.5768251424157652  0.49882574036476823  0.6052477947766316  1.0000
  C   C3        1.0  0.5180644194488695  0.5434024483749968  0.6801947112194078  1.0000
  C   C4        1.0  0.4438538226843268  0.482333394458353  0.6675246171182458  1.0000
  C   C5        1.0  0.3814892852715397  0.5293997922021956  0.7468960324714893  1.0000
  C   C6        1.0  0.3068188862861975  0.549913730721064  0.6911758872129756  1.0000
  C   C7        1.0  0.24805930839783816  0.5942862181372746  0.7662304282515722  1.0000
  C   C8        1.0  0.17194662217278103  0.6154731790208112  0.7082963333010376  1.0000
  N   N2        1.0  0.11076497809480336  0.6325004125233464  0.6617174614193291  1.0000
  C   C9        1.0  0.2634765720690992  0.6184146268216486  0.8975139175811466  1.0000
  C   C10       1.0  0.3373599554093938  0.59833249249546  0.9536222154537175  1.0000
  C   C11       1.0  0.3961069108391279  0.554159831361845  0.8790255884570701  1.0000
  C   C12       1.0  0.4296964775330031  0.37593577564415526  0.5784738953378681  1.0000
  C   C13       1.0  0.4884438493005821  0.3316684023406782  0.5039273513695472  1.0000
  C   C14       1.0  0.5618690951648919  0.3928621269195314  0.5171474548453866  1.0000
  H   H1        1.0  0.52996003755912  0.6268751744693538  0.7469345172832476  1.0000
  H   H2        1.0  0.294546426311953  0.5333104531953519  0.589150078063033  1.0000
  H   H3        1.0  0.2184373638251726  0.6526920197842878  0.956387329934201  1.0000
  H   H4        1.0  0.3491090846373374  0.6166652172365916  0.055277426818626685  1.0000
  H   H5        1.0  0.45269312624211494  0.5375074024551667  0.9250966465708748  1.0000
  H   H6        1.0  0.37348774714622657  0.32560405797682307  0.567749498080162  1.0000
  H   H7        1.0  0.47705497051209483  0.24943542554498  0.43599134644274035  1.0000
  H   H8        1.0  0.6069137754287305  0.35761906966152557  0.45878361119920946  1.0000
  C   C15       1.0  0.9143538427801713  0.19945160985728097  0.6448461781374453  1.0000
  C   C16       1.0  0.9045638596731359  0.28233257332675965  0.5254445415330178  1.0000
  C   C17       1.0  0.8880057975596907  0.21644299798362845  0.40979319849814444  1.0000
  C   C18       1.0  0.8806896860759734  0.06567225399574728  0.41031050324652885  1.0000
  C   C19       1.0  0.8916759382583432  0.9816809759850177  0.5289045519911539  1.0000
  C   C20       1.0  0.9096778689463735  0.04627087322028122  0.6461080210408701  1.0000
  N   N3        1.0  0.8629373772786895  0.9983076592871173  0.29075449665457503  1.0000
  O   O1        1.0  0.8528514222942645  0.08092574215693561  0.17466429522159355  1.0000
  O   O2        1.0  0.8561830416409956  0.8640470031342286  0.2904096651984343  1.0000
  H   H9        1.0  0.8987939001505962  0.2751534561291915  0.9622312385908796  1.0000
  H   H10       1.0  0.907916222866536  0.39933773307237147  0.5218826189346506  1.0000
  H   H11       1.0  0.8801516865801375  0.28398632388238476  0.3199171270709793  1.0000
  H   H12       1.0  0.887971336183215  0.8648991908716636  0.5295259275622581  1.0000
  H   H13       1.0  0.9018147836049685  0.7477884379786305  0.8608266216101185  1.0000
  C   C21       1.0  0.9119439672959406  0.6229253265702717  0.26419620069013816  1.0000
  C   C22       1.0  0.9845552845787783  0.5592442380469826  0.2737797787448253  1.0000
  C   C23       1.0  0.020654998672294377  0.527101613483788  0.16156784901747412  1.0000
  C   C24       1.0  0.9847432918516341  0.559074727216665  0.0386405531038101  1.0000
  C   C25       1.0  0.9120877288043694  0.6227971757626567  0.02675802047551046  1.0000
  C   C26       1.0  0.8760742987030735  0.6543192262927712  0.14013526374155408  1.0000
  S   S1        1.0  0.11347245538950258  0.446379254501277  0.17525145919365093  1.0000
  C   C27       1.0  0.07432288738019066  0.2692384818470579  0.18397400171279354  1.0000
  N   N4        1.0  0.04863380167239643  0.15311328989920914  0.18969047199852734  1.0000
  H   H14       1.0  0.8843201556052307  0.6472287233220999  0.5878800102135004  1.0000
  H   H15       1.0  0.013327003648366812  0.5340983005236031  0.36815193538096724  1.0000
  H   H16       1.0  0.013643876672365014  0.533812532613593  0.9527557850507452  1.0000
  H   H17       1.0  0.8200719083731985  0.7034126993545886  0.13189712065539294  1.0000
  H   H18       1.0  0.775175519535515  0.7430480791366032  0.7971365139973595  1.0000
  Zn  Zn1       1.0  0.8279709020841881  0.6187892044343357  0.6386090810605574  1.0000
  Zn  Zn2       1.0  0.9960534672539137  0.626932262699786  0.6523439472662476  1.0000
  C   C28       1.0  0.9120905712605113  0.6170772459745297  0.8826088128702436  1.0000
  C   C29       1.0  0.9119356235122891  0.6286461293390273  0.40834449558887276  1.0000
  C   C30       1.0  0.9105568023260578  0.8862047117875422  0.6406952278894498  1.0000
  C   C31       1.0  0.913469344670546  0.3595169284083455  0.6502581425241774  1.0000
  O   O3        1.0  0.975719315508903  0.6336500407875898  0.4619342809395237  1.0000
  O   O4        1.0  0.9758776629977134  0.6182526396568928  0.8394430977859019  1.0000
  O   O5        1.0  0.9746382655685741  0.8355764299973609  0.6440960983037618  1.0000
  O   O6        1.0  0.9769586555075389  0.41632625799928413  0.6572811783980558  1.0000
  O   O7        1.0  0.8470656564722223  0.8293952063575822  0.6336718452348868  1.0000
  O   O8        1.0  0.8483050443192172  0.6120731483575279  0.8290187780686528  1.0000
  O   O9        1.0  0.8481466968645442  0.6274704995075278  0.4515084001111833  1.0000
  O   O10       1.0  0.8493860369353433  0.4101467063898047  0.6468553948994609  1.0000
