data_image0
_chemical_formula_structural       NC9NC5H8C6NH7C6NCH7Zn2C4O8
_chemical_formula_sum              "N4 C31 H22 Zn2 O8"
_cell_length_a       17.807436237873137
_cell_length_b       9.274771166103582
_cell_length_c       9.273390368590327
_cell_angle_alpha    86.06293122453995
_cell_angle_beta     89.39974432744097
_cell_angle_gamma    88.98784114054227

_space_group_name_H-M_alt    "P 1"
_space_group_IT_number       1

loop_
  _space_group_symop_operation_xyz
  'x, y, z'

loop_
  _atom_site_type_symbol
  _atom_site_label
  _atom_site_symmetry_multiplicity
  _atom_site_fract_x
  _atom_site_fract_y
  _atom_site_fract_z
  _atom_site_occupancy
  N   N1        1.0  0.7158416470902222  0.5239307328052214  0.39575021385317477  1.0000
  C   C1        1.0  0.655041665427062  0.4847266741370895  0.38359135133436584  1.0000
  C   C2        1.0  0.5794131707676046  0.4359611423296792  0.368467046439675  1.0000
  C   C3        1.0  0.5608928921402326  0.35542513795923125  0.2520891519936961  1.0000
  C   C4        1.0  0.4874608611394892  0.3079527846640713  0.23731296430852947  1.0000
  C   C5        1.0  0.4314981086146613  0.34059685041105925  0.3388794649028151  1.0000
  C   C6        1.0  0.3534594815646557  0.2902745345217026  0.3232670431683009  1.0000
  C   C7        1.0  0.2917767085255668  0.38136104168906715  0.3518786785513699  1.0000
  C   C8        1.0  0.2182011447138214  0.3336633995080077  0.3371181086772638  1.0000
  C   C9        1.0  0.1554845438085367  0.4277426300275986  0.3661278368603622  1.0000
  N   N2        1.0  0.1050733496703923  0.5033758354769944  0.3894508645812284  1.0000
  C   C10       1.0  0.2057232500412348  0.19459249458874042  0.2937183229029229  1.0000
  C   C11       1.0  0.2665485697396524  0.10349050715047792  0.265097406398686  1.0000
  C   C12       1.0  0.34000232177528084  0.15074766967098352  0.2796340464783136  1.0000
  C   C13       1.0  0.45071277458843256  0.4216843756436215  0.45549959916226945  1.0000
  C   C14       1.0  0.5241965301188415  0.4689434831367045  0.47010345526801617  1.0000
  H   H1        1.0  0.6031538565116248  0.3296124818341364  0.17255140602601893  1.0000
  H   H2        1.0  0.47422604599570567  0.24736730914858085  0.14540384852474178  1.0000
  H   H3        1.0  0.30086264553238  0.48992487144254654  0.3837173627926535  1.0000
  H   H4        1.0  0.1490527370921695  0.15667452546087302  0.28203313280953957  1.0000
  H   H5        1.0  0.2567692796869639  0.9958231503951143  0.2319247654423773  1.0000
  H   H6        1.0  0.38624618916010367  0.07752091077794887  0.25863514352523465  1.0000
  H   H7        1.0  0.4091653955373543  0.44691374143237067  0.536475116746187  1.0000
  H   H8        1.0  0.53796710335474  0.5308719967943125  0.5608539738659066  1.0000
  C   C15       1.0  0.9081552461732182  0.0901866795114592  0.39342340790419034  1.0000
  C   C16       1.0  0.8908757127043111  0.1730381378813188  0.2648164320747906  1.0000
  C   C17       1.0  0.8806085155764953  0.10715245524585092  0.13527823923144514  1.0000
  C   C18       1.0  0.8876602493312248  0.9570257761373359  0.13340692384004926  1.0000
  C   C19       1.0  0.903550997870573  0.8729094126326163  0.26026585026376203  1.0000
  C   C20       1.0  0.9127668743466505  0.9371086183800368  0.3917901172505227  1.0000
  N   N3        1.0  0.8637904604952947  0.19306398653114343  0.005247256152142393  1.0000
  H   H9        1.0  0.9926724116838811  0.16873607818340575  0.7074808149905263  1.0000
  H   H10       1.0  0.8870888138196399  0.2898249435571991  0.26432408791312856  1.0000
  H   H11       1.0  0.8801161480086622  0.9048763353369673  0.03373460066655887  1.0000
  H   H12       1.0  0.9068610018708336  0.7565267306683509  0.2560845629400219  1.0000
  H   H13       1.0  0.9666484408589572  0.639477658553439  0.605518938000732  1.0000
  H   H14       1.0  0.8586157849188821  0.30541065863370437  0.005284190739877521  1.0000
  H   H15       1.0  0.856317006597377  0.14495321347677104  0.9079440257532267  1.0000
  C   C21       1.0  0.910471379393011  0.509148931758232  0.969369084444912  1.0000
  C   C22       1.0  0.9794364120177925  0.5026409018023443  0.04186072019223032  1.0000
  C   C23       1.0  0.04727126049853991  0.5096016442663038  0.9653287013326208  1.0000
  C   C24       1.0  0.04786526870722602  0.5233701404313409  0.8136657090492343  1.0000
  C   C25       1.0  0.9793447755764585  0.5274220748808014  0.7403617526924973  1.0000
  C   C26       1.0  0.9104507478646545  0.5181463546674472  0.8158444005578125  1.0000
  N   N4        1.0  0.11697855954561787  0.5319242180612767  0.7317364611205619  1.0000
  C   C27       1.0  0.19113414887586622  0.5281781582305285  0.797524219304298  1.0000
  H   H16       1.0  0.7915493066121795  0.4461401284669488  0.257261187333979  1.0000
  H   H17       1.0  0.09901132005112398  0.5055420052021621  0.025614791792032635  1.0000
  H   H18       1.0  0.7348095614499055  0.415358194645473  0.7234020611354368  1.0000
  H   H19       1.0  0.1145937039350371  0.5416099300320238  0.6188816350180675  1.0000
  H   H20       1.0  0.1965121629593265  0.6204258941345699  0.8667354680064642  1.0000
  H   H21       1.0  0.19973415383628557  0.4246149783006209  0.8631286862637778  1.0000
  H   H22       1.0  0.23520772312474822  0.5367554360306359  0.711900306516112  1.0000
  Zn  Zn1       1.0  0.8281654862391683  0.5179952742419685  0.393940700515235  1.0000
  Zn  Zn2       1.0  0.992749428028925  0.509299665249948  0.3912722493369425  1.0000
  C   C28       1.0  0.9104216752202485  0.510700938966054  0.6558535543543311  1.0000
  C   C29       1.0  0.9104950462033674  0.5165957265730389  0.12935950430987764  1.0000
  C   C30       1.0  0.9118914435422633  0.7769614703690024  0.38635555174416414  1.0000
  C   C31       1.0  0.9090252122845572  0.25033346641676796  0.39885758801188703  1.0000
  O   O1        1.0  0.9729617029176201  0.515788709488457  0.18204109956441816  1.0000
  O   O2        1.0  0.9728704161977451  0.5049070977488228  0.6011462536083418  1.0000
  O   O3        1.0  0.9740564306951696  0.7199159045947998  0.38352472051725583  1.0000
  O   O4        1.0  0.9717756323176517  0.30077991477678023  0.3996625254811841  1.0000
  O   O5        1.0  0.8491392257860283  0.7265150276840096  0.3855504252740206  1.0000
  O   O6        1.0  0.8479532207209863  0.5115079525602291  0.6031718781762916  1.0000
  O   O7        1.0  0.8480445072594575  0.5223894956270868  0.18406499140874666  1.0000
  O   O8        1.0  0.8468584365976196  0.30738069174998395  0.40168652540286026  1.0000
