data_image0
_chemical_formula_structural       NC9NC5H8C7OCH10C8NH11Zn2C4O8
_chemical_formula_sum              "N3 C34 H29 O9 Zn2"
_cell_length_a       17.807436237873137
_cell_length_b       10.30083208314754
_cell_length_c       9.275652972338538
_cell_angle_alpha    85.92062759394871
_cell_angle_beta     89.8368236096327
_cell_angle_gamma    88.38439813745397

_space_group_name_H-M_alt    "P 1"
_space_group_IT_number       1

loop_
  _space_group_symop_operation_xyz
  'x, y, z'

loop_
  _atom_site_type_symbol
  _atom_site_label
  _atom_site_symmetry_multiplicity
  _atom_site_fract_x
  _atom_site_fract_y
  _atom_site_fract_z
  _atom_site_occupancy
  N   N1        1.0  0.7010067379019883  0.3783707306503194  0.39817698352046604  1.0000
  C   C1        1.0  0.6403728716152567  0.3431132228113303  0.385955971757624  1.0000
  C   C2        1.0  0.5649510061152567  0.2992567657099893  0.37075436004736906  1.0000
  C   C3        1.0  0.5464032856828136  0.22717350825186022  0.25424927436146794  1.0000
  C   C4        1.0  0.4731721907865581  0.1844802495284383  0.23939783018369098  1.0000
  C   C5        1.0  0.4174399769457047  0.21349254252671512  0.3410155998677671  1.0000
  C   C6        1.0  0.339614554114573  0.16823603795965214  0.32532340341343335  1.0000
  C   C7        1.0  0.2775472888806081  0.2501517819661536  0.35407943412654186  1.0000
  C   C8        1.0  0.2041739606136186  0.207255590390488  0.33924325016535395  1.0000
  C   C9        1.0  0.141058048524965  0.2918647929624636  0.3684021207571757  1.0000
  N   N2        1.0  0.09032584064467115  0.3598847452485623  0.39184504867046166  1.0000
  C   C10       1.0  0.1922842562126005  0.08218553414659668  0.29562300006466313  1.0000
  C   C11       1.0  0.253494115627419  0.0002558851517695534  0.26685766371344166  1.0000
  C   C12       1.0  0.3267471462954539  0.04275626879595395  0.2814692200574964  1.0000
  C   C13       1.0  0.4366800349843641  0.2860715319014293  0.4577637993055212  1.0000
  C   C14       1.0  0.5099633296076845  0.3285734129677784  0.47244257440879545  1.0000
  H   H1        1.0  0.5884850781570735  0.20422968018879173  0.17467098429523187  1.0000
  H   H2        1.0  0.4598991421712837  0.13027007104539567  0.14739305413625736  1.0000
  H   H3        1.0  0.28616583102547  0.3477937505712918  0.3860902316056547  1.0000
  H   H4        1.0  0.1357747109537801  0.048084366506304876  0.2838776991405594  1.0000
  H   H5        1.0  0.2441719194755615  0.9034262367437649  0.2335143391512529  1.0000
  H   H6        1.0  0.3733081952655056  0.9768945505035521  0.26035422349822146  1.0000
  H   H7        1.0  0.3953208287342762  0.30848467004362873  0.5387789278017954  1.0000
  H   H8        1.0  0.5237600918561387  0.38399738315546533  0.5632908906373861  1.0000
  C   C15       1.0  0.8956914462724307  0.9877907238444634  0.3951618786176847  1.0000
  C   C16       1.0  0.8742019973136063  0.9973489326227113  0.2491539994611769  1.0000
  C   C17       1.0  0.8625063596106115  0.8850587631993432  0.17608267232639796  1.0000
  C   C18       1.0  0.8741462639860194  0.7620903618415137  0.24877407457587888  1.0000
  C   C19       1.0  0.89564838138902  0.7504545187076112  0.39487257858599323  1.0000
  C   C20       1.0  0.906118976815639  0.863851922908045  0.4672947074608315  1.0000
  C   C21       1.0  0.841662776240627  0.8963745372827985  0.018761661402077804  1.0000
  O   O1        1.0  0.908059385737664  0.8986435668448922  0.9352835787686026  1.0000
  C   C22       1.0  0.8892475990314807  0.9092761602366227  0.7872981004586048  1.0000
  H   H9        1.0  0.9047736782628859  0.3115156049757313  0.45063948139429355  1.0000
  H   H10       1.0  0.8664877286376466  0.09205503664084456  0.1916579354571908  1.0000
  H   H11       1.0  0.8663930516925397  0.6756493341741809  0.1910172032678774  1.0000
  H   H12       1.0  0.9226989355491936  0.855717035518055  0.5798979689630288  1.0000
  H   H13       1.0  0.9370326918501951  0.521243145937192  0.6700234180349962  1.0000
  H   H14       1.0  0.8069810133912607  0.9871480808535726  0.9952296721484815  1.0000
  H   H15       1.0  0.8070098674352827  0.8120552633856293  0.9948987001886458  1.0000
  H   H16       1.0  0.9419188152067709  0.9109337502003321  0.7231317633428276  1.0000
  H   H17       1.0  0.8571311646073225  0.0015290852828064884  0.7577626083796152  1.0000
  H   H18       1.0  0.857142807929187  0.8240443765285397  0.7574052413120889  1.0000
  C   C23       1.0  0.8939976665964358  0.3666711035078039  0.971774638473636  1.0000
  C   C24       1.0  0.8452665891775822  0.4539281673387822  0.03868202498828598  1.0000
  C   C25       1.0  0.8024666360603416  0.5484811756760515  0.9566428929375332  1.0000
  C   C26       1.0  0.8073830912243343  0.5545742607646293  0.8057751496101342  1.0000
  C   C27       1.0  0.8544601269001947  0.46745353990052124  0.7374865650506934  1.0000
  C   C28       1.0  0.8973421594535604  0.37157415055011994  0.8182597826811828  1.0000
  C   C29       1.0  0.7497360595016722  0.6398253044230937  0.030010443230835456  1.0000
  C   C30       1.0  0.6724985994494328  0.5800447797548203  0.05207811829140829  1.0000
  N   N3        1.0  0.6215426233039417  0.67022105627722  0.12108138419742276  1.0000
  H   H19       1.0  0.9490715604065888  0.1711214811966486  0.2675595275051179  1.0000
  H   H20       1.0  0.8416934454198463  0.45048494387565485  0.15556904314022724  1.0000
  H   H21       1.0  0.7740684787352763  0.6261016708671037  0.740707178821872  1.0000
  H   H22       1.0  0.8558161015229211  0.4729662581979334  0.6204425170165058  1.0000
  H   H23       1.0  0.00037017427231833425  0.24774546924109225  0.5461492296321229  1.0000
  H   H24       1.0  0.7732609000853927  0.6615257179542928  0.13633346061045737  1.0000
  H   H25       1.0  0.743716624946645  0.7338639910197123  0.9637631931651272  1.0000
  H   H26       1.0  0.6490132376860906  0.5593858595613503  0.94533690769551  1.0000
  H   H27       1.0  0.6778068150712748  0.4867869656097738  0.12021982707619559  1.0000
  H   H28       1.0  0.5684853783313426  0.6291327966807161  0.1263637171834191  1.0000
  H   H29       1.0  0.6391333584351164  0.6758854115891846  0.22791274553253585  1.0000
  Zn  Zn1       1.0  0.813355853134352  0.3730326578684864  0.3963580606792185  1.0000
  Zn  Zn2       1.0  0.9779767546282238  0.36521230137681493  0.393675824413269  1.0000
  C   C31       1.0  0.8967085753811833  0.36547419864009845  0.658257962086819  1.0000
  C   C32       1.0  0.8946258305028636  0.37277231450851755  0.13177603455620335  1.0000
  C   C33       1.0  0.895629942757065  0.6062617464566442  0.38918390688479687  1.0000
  C   C34       1.0  0.8957044073451212  0.13198320963403654  0.4008501681062715  1.0000
  O   O2        1.0  0.957309422556174  0.3718464868575  0.18445607217717574  1.0000
  O   O3        1.0  0.9589684369094479  0.36046357462127604  0.6035417546806563  1.0000
  O   O4        1.0  0.9580965911826025  0.554902613344985  0.3862625645711155  1.0000
  O   O5        1.0  0.9581812116815617  0.1774074594658461  0.40173515513221597  1.0000
  O   O6        1.0  0.8331513399039497  0.5608375024495285  0.3882987308680055  1.0000
  O   O7        1.0  0.8340231852355914  0.36640002345382755  0.6055778435372343  1.0000
  O   O8        1.0  0.8323641640883724  0.3777828803985017  0.18649042821026507  1.0000
  O   O9        1.0  0.8332359536381533  0.18334384434486647  0.40376961922753996  1.0000
