data_image0
_chemical_formula_structural       NC9NC3NH7C7F3H5C6OCH7Zn2C4O8
_chemical_formula_sum              "N3 C30 H19 F3 O9 Zn2"
_cell_length_a       16.053384444249904
_cell_length_b       9.272718291674593
_cell_length_c       9.273891588657152
_cell_angle_alpha    86.50478335773057
_cell_angle_beta     89.48625385378584
_cell_angle_gamma    88.75080299671951

_space_group_name_H-M_alt    "P 1"
_space_group_IT_number       1

loop_
  _space_group_symop_operation_xyz
  'x, y, z'

loop_
  _atom_site_type_symbol
  _atom_site_label
  _atom_site_symmetry_multiplicity
  _atom_site_fract_x
  _atom_site_fract_y
  _atom_site_fract_z
  _atom_site_occupancy
  N   N1        1.0  0.782933556788348  0.5443777041503026  0.4184655547908358  1.0000
  C   C1        1.0  0.732553032437375  0.5205121699209454  0.3352142010450285  1.0000
  C   C2        1.0  0.6699436587099323  0.49085918678301715  0.23179567841496665  1.0000
  C   C3        1.0  0.6840988578550551  0.47612691956855535  0.08658786573580768  1.0000
  C   C4        1.0  0.6077878707520281  0.4474765514269423  0.0283767913575701  1.0000
  C   C5        1.0  0.5503284497227174  0.4463230968197527  0.14121016022836042  1.0000
  C   C6        1.0  0.4598277337856217  0.4197693344479685  0.12963695524007002  1.0000
  C   C7        1.0  0.4033823742751136  0.46814502330976776  0.23422674696037185  1.0000
  C   C8        1.0  0.3179780818957084  0.4429602810468482  0.2231436827706299  1.0000
  C   C9        1.0  0.2607355854160568  0.49329736001671304  0.33038079601847603  1.0000
  N   N2        1.0  0.2147293665987168  0.5337612579807838  0.4165826471226962  1.0000
  C   C10       1.0  0.2882936050954631  0.369275646550409  0.10748510490316734  1.0000
  C   C11       1.0  0.3437290624883605  0.3210349116520248  0.0031312571930741636  1.0000
  C   C12       1.0  0.4289296392510862  0.34603162996500947  0.01377274622399116  1.0000
  N   N3        1.0  0.5889973562172509  0.47295817736101237  0.26522262144507125  1.0000
  H   H1        1.0  0.742981525689398  0.48519305220067777  0.0293694368425006  1.0000
  H   H2        1.0  0.5959650379933521  0.43116031134126737  0.9159622649034166  1.0000
  H   H3        1.0  0.4251558296009674  0.5271995485471548  0.32323857090052033  1.0000
  H   H4        1.0  0.2223883526517919  0.34924100494398735  0.09797473829641025  1.0000
  H   H5        1.0  0.3206582674324666  0.26380095759170796  0.9138736433729022  1.0000
  H   H6        1.0  0.4704876046738133  0.30593541981669925  0.9321744555172882  1.0000
  H   H7        1.0  0.5624813829045857  0.476524972640858  0.3682000049758948  1.0000
  C   C13       1.0  0.0006603033484566808  0.11561298854600509  0.4143319343701408  1.0000
  C   C14       1.0  0.9501980028629073  0.19726326080639708  0.31493584696574  1.0000
  C   C15       1.0  0.8938032483988924  0.13031818453617317  0.22693915310459858  1.0000
  C   C16       1.0  0.8900885287937589  0.9791972396338222  0.2353825954797537  1.0000
  C   C17       1.0  0.9406232910882547  0.8965578442419613  0.33165921442966795  1.0000
  C   C18       1.0  0.9970105665697592  0.9625148300881524  0.4207286399340483  1.0000
  C   C19       1.0  0.8418553827693406  0.21951917860905734  0.11837922227776355  1.0000
  F   F1        1.0  0.8202754660130342  0.35194389319431263  0.1708602683979643  1.0000
  F   F2        1.0  0.7692244273802595  0.14963148989123054  0.08858026277359232  1.0000
  F   F3        1.0  0.8872133500370788  0.24204150159156998  0.9919164087543743  1.0000
  H   H8        1.0  0.09857322315553761  0.19471887259686455  0.7249888422142867  1.0000
  H   H9        1.0  0.9535455903868969  0.3140889663799047  0.3082123202599374  1.0000
  H   H10       1.0  0.8486693098142821  0.9244946184121784  0.16624698248731185  1.0000
  H   H11       1.0  0.9372164200894252  0.7798900994940371  0.33361346464994135  1.0000
  H   H12       1.0  0.17530537467035032  0.8437901857671872  0.5934424169371653  1.0000
  C   C20       1.0  0.00021683856435906112  0.5352112914931124  0.9942201346164047  1.0000
  C   C21       1.0  0.06818682048537572  0.594440817887887  0.06295632787644069  1.0000
  C   C22       1.0  0.13138433895731016  0.6645543271530883  0.9834110131663243  1.0000
  C   C23       1.0  0.12683741010119998  0.675794058674354  0.8320740772181581  1.0000
  C   C24       1.0  0.060621635194644474  0.6156483593783038  0.7619814581578566  1.0000
  C   C25       1.0  0.9974540275448183  0.542916480890709  0.840840369900107  1.0000
  O   O1        1.0  0.19708657445355085  0.7220643557056423  0.05877662648879234  1.0000
  C   C26       1.0  0.26537038053478845  0.7962675475252108  0.9919742648757559  1.0000
  H   H13       1.0  0.8024183482142381  0.45151658256339705  0.1054326222191635  1.0000
  H   H14       1.0  0.17459604763666348  0.7296783433293286  0.7673585485345442  1.0000
  H   H15       1.0  0.05991732431397347  0.6230968005201376  0.6449593469175445  1.0000
  H   H16       1.0  0.8655757578260721  0.4808207971819858  0.5654804753953835  1.0000
  H   H17       1.0  0.24258459507826743  0.8943993915029224  0.9284132517097397  1.0000
  H   H18       1.0  0.3004192245804884  0.7238467192506854  0.9208695617937696  1.0000
  H   H19       1.0  0.3078719301517676  0.8296866659282995  0.07689216214661032  1.0000
  Zn  Zn1       1.0  0.9075404873598041  0.5413102570477211  0.4179304761300531  1.0000
  Zn  Zn2       1.0  0.09012242474864252  0.5368170642644483  0.41712941860504515  1.0000
  C   C27       1.0  0.9979991694648591  0.5357154818312635  0.6807676545550742  1.0000
  C   C28       1.0  0.9996657281300126  0.5424136111593132  0.1542923866595045  1.0000
  C   C29       1.0  0.9977149132912957  0.8023801848674561  0.41377519401844537  1.0000
  C   C30       1.0  0.9999499292165162  0.27574717785953307  0.4212849112370938  1.0000
  O   O2        1.0  0.06876969125017873  0.5431193411806581  0.20771005205120252  1.0000
  O   O3        1.0  0.0674706782065755  0.5315984308323445  0.6267415818606907  1.0000
  O   O4        1.0  0.06724019881272758  0.7469335875973324  0.4111432963843274  1.0000
  O   O5        1.0  0.06900010864943562  0.32778419528068875  0.42330822979533594  1.0000
  O   O6        1.0  0.9286627411527747  0.7503431275662875  0.41175166520555373  1.0000
  O   O7        1.0  0.9288932133274459  0.5350097025996932  0.6273498869067484  1.0000
  O   O8        1.0  0.930192232298731  0.546530546922867  0.20831662360106057  1.0000
  O   O9        1.0  0.9304226493863414  0.33119539169268597  0.42391490934321563  1.0000
