data_image0
_chemical_formula_structural       NC8NC6H8C6NCH9C6OCH7Zn2C4O8
_chemical_formula_sum              "N3 C32 H24 O9 Zn2"
_cell_length_a       17.457602349358154
_cell_length_b       9.273386996610926
_cell_length_c       9.273891588657152
_cell_angle_alpha    85.97842517681073
_cell_angle_beta     92.54290593679646
_cell_angle_gamma    91.0935878010965

_space_group_name_H-M_alt    "P 1"
_space_group_IT_number       1

loop_
  _space_group_symop_operation_xyz
  'x, y, z'

loop_
  _atom_site_type_symbol
  _atom_site_label
  _atom_site_symmetry_multiplicity
  _atom_site_fract_x
  _atom_site_fract_y
  _atom_site_fract_z
  _atom_site_occupancy
  N   N1        1.0  0.718050911076159  0.5999114438512116  0.4725311779697186  1.0000
  C   C1        1.0  0.6572922321147755  0.548804658323615  0.4608625719423534  1.0000
  C   C2        1.0  0.5817057851927308  0.485234257225525  0.4463573997567405  1.0000
  C   C3        1.0  0.5226781893659841  0.5305737907172672  0.5293648725742921  1.0000
  C   C4        1.0  0.4485146818532612  0.46936187731372625  0.515536375132585  1.0000
  C   C5        1.0  0.38586752194447305  0.517236097173297  0.6034447440886792  1.0000
  C   C6        1.0  0.31139355489618037  0.5371968365713187  0.5415271528981247  1.0000
  C   C7        1.0  0.25236673080283806  0.582333175244474  0.6246548488635095  1.0000
  C   C8        1.0  0.17645828665620614  0.6029449196471401  0.5602776045920708  1.0000
  N   N2        1.0  0.11544085297329862  0.6195096786677718  0.5085184831084368  1.0000
  C   C9        1.0  0.267318505781189  0.6077838045031705  0.7702637859440631  1.0000
  C   C10       1.0  0.341004067634112  0.5882588721735226  0.83261050891105  1.0000
  C   C11       1.0  0.4000166413905383  0.5433270016948974  0.7499902524940665  1.0000
  C   C12       1.0  0.4346764002899831  0.36204400711183626  0.4171121127598092  1.0000
  C   C13       1.0  0.49368921663650595  0.3170179018907524  0.3345478008706202  1.0000
  C   C14       1.0  0.5670654222246944  0.3783600314955742  0.34898623384971383  1.0000
  H   H1        1.0  0.5343345450404771  0.6147371759893536  0.6031155159688961  1.0000
  H   H2        1.0  0.29948276619293485  0.5195665646863892  0.4283602522057106  1.0000
  H   H3        1.0  0.2220696868598962  0.6426602315078314  0.8354718664245877  1.0000
  H   H4        1.0  0.352392773351625  0.6076153255615406  0.9453595137797721  1.0000
  H   H5        1.0  0.45644042968573023  0.5271320543854744  0.8011843620959342  1.0000
  H   H6        1.0  0.3785074777417339  0.311591721265313  0.40540201730077796  1.0000
  H   H7        1.0  0.4825437878155835  0.23408259741426973  0.2594648618537627  1.0000
  H   H8        1.0  0.6123179454474904  0.34252279724667756  0.2843473674753707  1.0000
  C   C15       1.0  0.9191053858877509  0.18617931525248643  0.4914467957873887  1.0000
  C   C16       1.0  0.932962596487118  0.2691618904417503  0.36237611544869974  1.0000
  C   C17       1.0  0.9396000090880323  0.20380984331272337  0.23264355997228647  1.0000
  C   C18       1.0  0.9324847235213315  0.05312811898753056  0.22865882113994426  1.0000
  C   C19       1.0  0.9199801778589818  0.9692452525751667  0.35739927584532927  1.0000
  C   C20       1.0  0.9143937141846259  0.03323113049520865  0.48961604137159465  1.0000
  N   N3        1.0  0.9384820403203621  0.9826837894517118  0.09617743231965425  1.0000
  C   C21       1.0  0.951680445064597  0.059961519176084735  0.9567164730849295  1.0000
  H   H9        1.0  0.9340570384799098  0.45119751564669724  0.7294408630845564  1.0000
  H   H10       1.0  0.936878972688716  0.3859849662736876  0.36096241931245254  1.0000
  H   H11       1.0  0.9495655420189001  0.2720196466411576  0.13563899472935637  1.0000
  H   H12       1.0  0.9163677144817188  0.8526455005426155  0.3547982982865445  1.0000
  H   H13       1.0  0.9415671350588822  0.906378293816662  0.8431414415921352  1.0000
  H   H14       1.0  0.9330518777855779  0.8700758462267978  0.09867459529630107  1.0000
  H   H15       1.0  0.9042201907254408  0.13596840603628957  0.9273750285722172  1.0000
  H   H16       1.0  0.007180550234865854  0.12025248289317879  0.9619751062101427  1.0000
  H   H17       1.0  0.9538709883900348  0.9818626925617662  0.8715841343644536  1.0000
  C   C22       1.0  0.9180269836090017  0.6059474453074519  0.06737808745385832  1.0000
  C   C23       1.0  0.9804837728400159  0.6699622767696376  0.14150684524289492  1.0000
  C   C24       1.0  0.03853117334163828  0.7445322953681492  0.0668349942030968  1.0000
  C   C25       1.0  0.03432877126394618  0.7554591857326067  0.9149953640081523  1.0000
  C   C26       1.0  0.973487806977772  0.6906505128413516  0.8396721837350016  1.0000
  C   C27       1.0  0.9154721155377706  0.6134629649369141  0.9136846979960493  1.0000
  O   O1        1.0  0.098903748020464  0.8066680952061955  0.14741085847478663  1.0000
  C   C28       1.0  0.16162542350972103  0.8856857233678865  0.08588869218966755  1.0000
  H   H18       1.0  0.7361307140506315  0.5083695331568265  0.16206978357039814  1.0000
  H   H19       1.0  0.07819400597713357  0.8127117041819424  0.8539543362989415  1.0000
  H   H20       1.0  0.9728277452843113  0.698053227635304  0.7225189113808042  1.0000
  H   H21       1.0  0.7942063943003653  0.5421079144672687  0.6273686601415349  1.0000
  H   H22       1.0  0.14049936243256236  0.9822698559836294  0.0194181713644439  1.0000
  H   H23       1.0  0.19399585824829013  0.8156831576547399  0.018526117266076444  1.0000
  H   H24       1.0  0.20068535829307432  0.922095355902229  0.1742123287821753  1.0000
  Zn  Zn1       1.0  0.8327290606419822  0.605563277224187  0.48292466525640915  1.0000
  Zn  Zn2       1.0  0.0007627193186263696  0.6138461250633764  0.4981368188522495  1.0000
  C   C29       1.0  0.9159853019630942  0.6062966710675164  0.7537269099877211  1.0000
  C   C30       1.0  0.9175083023705158  0.6131146427029486  0.22733487773620834  1.0000
  C   C31       1.0  0.9152977211296155  0.8730691336416357  0.4842195279041141  1.0000
  C   C32       1.0  0.9181958352725055  0.34634044518163143  0.49684233519888643  1.0000
  O   O2        1.0  0.9811021609610907  0.6186570250885955  0.2867907843886288  1.0000
  O   O3        1.0  0.979925109578233  0.6070396868195949  0.7058162634747056  1.0000
  O   O4        1.0  0.9793690152145811  0.8224617950791657  0.48818706456845606  1.0000
  O   O5        1.0  0.9816581982550127  0.40323492336048683  0.5044198700382501  1.0000
  O   O6        1.0  0.8518335243639698  0.8161744761020507  0.47664160887166357  1.0000
  O   O7        1.0  0.8523896093174844  0.6007540999646507  0.6942707272000976  1.0000
  O   O8        1.0  0.85356666626094  0.6123713725917597  0.27524351575287054  1.0000
  O   O9        1.0  0.8541227032829648  0.39694926150716214  0.49287270946037554  1.0000
