data_image0
_chemical_formula_structural       NC11NC3H8C12NCOCH13C12NCOH11Zn2C4O8
_chemical_formula_sum              "N4 C45 H32 O10 Zn2"
_cell_length_a       17.807433833752565
_cell_length_b       10.299155265289649
_cell_length_c       10.299148425239203
_cell_angle_alpha    85.52041506248939
_cell_angle_beta     88.51012908396928
_cell_angle_gamma    90.66237101144993

_space_group_name_H-M_alt    "P 1"
_space_group_IT_number       1

loop_
  _space_group_symop_operation_xyz
  'x, y, z'

loop_
  _atom_site_type_symbol
  _atom_site_label
  _atom_site_symmetry_multiplicity
  _atom_site_fract_x
  _atom_site_fract_y
  _atom_site_fract_z
  _atom_site_occupancy
  N   N1        1.0  0.7073116841899677  0.43918058828680406  0.534157009772606  1.0000
  C   C1        1.0  0.656490079578614  0.4044239355607435  0.6007336113369521  1.0000
  C   C2        1.0  0.59326287843403  0.3611895257553358  0.6835464080046152  1.0000
  C   C3        1.0  0.604985968394465  0.297584168328364  0.8062909737985524  1.0000
  C   C4        1.0  0.5436661261953514  0.2560305931676281  0.8868192193043825  1.0000
  C   C5        1.0  0.47046882128492595  0.27776882017913623  0.8452438261349532  1.0000
  C   C6        1.0  0.4577689715346925  0.3415289302135149  0.7220389880698688  1.0000
  C   C7        1.0  0.3800035630468768  0.36459851865270476  0.6776823818443576  1.0000
  C   C8        1.0  0.3612427052734269  0.34777887252443196  0.5480973131214899  1.0000
  C   C9        1.0  0.28801547281779294  0.3694783872259156  0.5064778558212901  1.0000
  C   C10       1.0  0.2326060747062958  0.4083164368877161  0.5936230474024617  1.0000
  C   C11       1.0  0.15724217590677783  0.43067502495869614  0.5506420185683587  1.0000
  N   N2        1.0  0.0966549746200097  0.4486496687349038  0.5160883995457095  1.0000
  C   C12       1.0  0.25067540065722543  0.42534689421714256  0.7226768865223623  1.0000
  C   C13       1.0  0.3238498415876356  0.4036123413181347  0.7645518010014638  1.0000
  C   C14       1.0  0.5199461242132616  0.38307793333409723  0.6415271608152233  1.0000
  H   H1        1.0  0.661450688821808  0.280154703066944  0.8396636565282972  1.0000
  H   H2        1.0  0.5528611856434481  0.2065357605008955  0.9815756422013193  1.0000
  H   H3        1.0  0.42382784086971137  0.24318420072634783  0.9086968730064968  1.0000
  H   H4        1.0  0.4029380922814104  0.3161634387560168  0.47938449165684677  1.0000
  H   H5        1.0  0.2745917188347753  0.3556382094398445  0.40643993453600347  1.0000
  H   H6        1.0  0.20826357443752236  0.45573943440471326  0.7908752359139966  1.0000
  H   H7        1.0  0.3367448503813374  0.4189981054034628  0.8644065335634886  1.0000
  H   H8        1.0  0.5114492084982529  0.43393511078435787  0.5470046994274549  1.0000
  C   C15       1.0  0.9020708104565884  0.06251971806003077  0.5252373347102854  1.0000
  C   C16       1.0  0.889257635988587  0.07197602683595926  0.39089778329963193  1.0000
  C   C17       1.0  0.8826883446674391  0.9596311814516105  0.32267044483285057  1.0000
  C   C18       1.0  0.8890780513292059  0.8367120444083437  0.39059831212848906  1.0000
  C   C19       1.0  0.9019030530045611  0.8253007484404098  0.5250189106693472  1.0000
  C   C20       1.0  0.9083238193820655  0.9387204015519103  0.5915107174315692  1.0000
  C   C21       1.0  0.8691344806524731  0.9706085061772012  0.18055537781628517  1.0000
  C   C22       1.0  0.9072464083757812  0.06568725579907952  0.09736365078028353  1.0000
  C   C23       1.0  0.8944975109749038  0.07588691471362942  0.963623615530051  1.0000
  C   C24       1.0  0.8438489244061347  0.9903408138291843  0.9102198376703519  1.0000
  C   C25       1.0  0.8048193432376006  0.8970560661274984  0.9933859872047686  1.0000
  C   C26       1.0  0.8175956083481196  0.8866010721632341  0.12708741441749516  1.0000
  N   N3        1.0  0.828682869374441  0.00028212064068888293  0.773353433826304  1.0000
  C   C27       1.0  0.8835523482673173  0.03860247127843697  0.672582770157411  1.0000
  O   O1        1.0  0.9524682019841397  0.04279885760565126  0.6972447944506808  1.0000
  C   C28       1.0  0.8596060979600716  0.06453647290622944  0.5351449400018842  1.0000
  H   H9        1.0  0.9070226253867805  0.38635917412088383  0.5769032955787148  1.0000
  H   H10       1.0  0.8833214675275265  0.16690279293216984  0.339360176124055  1.0000
  H   H11       1.0  0.8850445743570327  0.7498413182078759  0.3381535390792272  1.0000
  H   H12       1.0  0.9182094177531265  0.9307117496099556  0.6951290579517515  1.0000
  H   H13       1.0  0.9265594451836111  0.5964902140299937  0.7785790542083442  1.0000
  H   H14       1.0  0.94735664822754  0.1316909762302083  0.13559720653132934  1.0000
  H   H15       1.0  0.9233271401790989  0.15207365092398106  0.9027012812865522  1.0000
  H   H16       1.0  0.7646371347044633  0.8317550814614758  0.954288677623087  1.0000
  H   H17       1.0  0.7863518419842962  0.8139715521080404  0.18895478701017976  1.0000
  H   H18       1.0  0.7757736986726782  0.9701423759323389  0.74473332923366  1.0000
  H   H19       1.0  0.8053766894335256  0.11666548664644716  0.5332076837162751  1.0000
  H   H20       1.0  0.8526609746223907  0.9707806601391493  0.4902401651110182  1.0000
  H   H21       1.0  0.9023820808085288  0.125695925935978  0.47776080711189195  1.0000
  C   C29       1.0  0.9020433908002364  0.44406744029470224  0.14372925118625512  1.0000
  C   C30       1.0  0.97825796769546  0.48148259527149384  0.13621230564988562  1.0000
  C   C31       1.0  0.016781067445274637  0.5002357411533358  0.015274519216307066  1.0000
  C   C32       1.0  0.9780996690700571  0.48113856942423455  0.9009625978601109  1.0000
  C   C33       1.0  0.9019304375965174  0.4437529930817022  0.9065269744061184  1.0000
  C   C34       1.0  0.8643491632193445  0.4254276517606137  0.028395317686066294  1.0000
  C   C35       1.0  0.09736155368332233  0.5397911145012002  0.008417268773358797  1.0000
  C   C36       1.0  0.14785595536792728  0.4836439297774973  0.9224928951628235  1.0000
  C   C37       1.0  0.22364577095158997  0.5210032002507422  0.9161909903732192  1.0000
  C   C38       1.0  0.2507160535511508  0.6139414385912263  0.9964163334015832  1.0000
  C   C39       1.0  0.20014668899549637  0.6719331539188185  0.08077524172174444  1.0000
  C   C40       1.0  0.12432289908429817  0.6346797337102055  0.08717553280217749  1.0000
  N   N4        1.0  0.3287294549137771  0.652048454492471  0.986249747859822  1.0000
  C   C41       1.0  0.37193450750030554  0.6897750091052899  0.09296390869408877  1.0000
  O   O2        1.0  0.3465179211894285  0.6749932571753994  0.20850781861168974  1.0000
  H   H22       1.0  0.7583118263111506  0.37268714816688675  0.3652646574260978  1.0000
  H   H23       1.0  0.008061866835571864  0.49440377455851864  0.22475195283343163  1.0000
  H   H24       1.0  0.00724485576255196  0.4972402319034759  0.8073725648811796  1.0000
  H   H25       1.0  0.8055988104393617  0.39658770799718623  0.03340231621169231  1.0000
  H   H26       1.0  0.872635916927127  0.42933725000131734  0.581193953358377  1.0000
  H   H27       1.0  0.128931308041623  0.40966839544329253  0.861220106423879  1.0000
  H   H28       1.0  0.26161540611578293  0.47638529646362354  0.8494874854694237  1.0000
  H   H29       1.0  0.21864453834770514  0.7480630079880819  0.13966058676130277  1.0000
  H   H30       1.0  0.0864413243297999  0.6819662319751807  0.1519815862388656  1.0000
  H   H31       1.0  0.3576254612569254  0.6438112375370848  0.897728317816231  1.0000
  H   H32       1.0  0.42833550853601765  0.728189258557989  0.07451159292064768  1.0000
  Zn  Zn1       1.0  0.8196677469849467  0.44190968239419676  0.528950285266478  1.0000
  Zn  Zn2       1.0  0.9842988978329786  0.4459099499313981  0.5213057139380857  1.0000
  C   C42       1.0  0.90195125680503  0.4386383489974366  0.7623434600775423  1.0000
  C   C43       1.0  0.9020171854006093  0.44918296569217137  0.2879125826557878  1.0000
  C   C44       1.0  0.9019316413168932  0.6811209080334268  0.5198848123347826  1.0000
  C   C45       1.0  0.9020367450446205  0.20669884485131984  0.5303713026979682  1.0000
  O   O3        1.0  0.964485055639816  0.45241219729304216  0.3334007524712401  1.0000
  O   O4        1.0  0.964434621024827  0.4384442482607631  0.7110528639123146  1.0000
  O   O5        1.0  0.9644179388548131  0.6342519602716632  0.5152658291466483  1.0000
  O   O6        1.0  0.9645016816447453  0.2566044932481355  0.5291876924605015  1.0000
  O   O7        1.0  0.839464906992649  0.6312151377137813  0.5210683093459467  1.0000
  O   O8        1.0  0.839481588826257  0.435408986144064  0.7168552744140779  1.0000
  O   O9        1.0  0.8395320237323748  0.44937689056214697  0.3392016014602721  1.0000
  O   O10       1.0  0.8395486497218573  0.25356917718756855  0.534988638827824  1.0000
