data_image0
_chemical_formula_structural       NC10NC3NCH9C12NCOCH13C16H10Zn2C4O8
_chemical_formula_sum              "N4 C48 H32 O9 Zn2"
_cell_length_a       19.437513618241372
_cell_length_b       10.299155265289647
_cell_length_c       10.299151387937776
_cell_angle_alpha    85.56903598390942
_cell_angle_beta     90.33614197722552
_cell_angle_gamma    89.50051482239499

_space_group_name_H-M_alt    "P 1"
_space_group_IT_number       1

loop_
  _space_group_symop_operation_xyz
  'x, y, z'

loop_
  _atom_site_type_symbol
  _atom_site_label
  _atom_site_symmetry_multiplicity
  _atom_site_fract_x
  _atom_site_fract_y
  _atom_site_fract_z
  _atom_site_occupancy
  N   N1        1.0  0.6477095984830087  0.4099655989096871  0.5753264919409864  1.0000
  C   C1        1.0  0.5887730443336453  0.42697570395936424  0.572346902433984  1.0000
  C   C2        1.0  0.5153285496179344  0.4482282819312032  0.5686484216508916  1.0000
  C   C3        1.0  0.47358716489451874  0.34702685309544634  0.5570102823263101  1.0000
  C   C4        1.0  0.3976956473578623  0.3570896067392768  0.5497867931258664  1.0000
  C   C5        1.0  0.3581010137356244  0.4379684496867622  0.6155126636004655  1.0000
  C   C6        1.0  0.2819210426442971  0.42935642559184983  0.6070703262868193  1.0000
  C   C7        1.0  0.2488092334244306  0.30800502814391817  0.6117391479530634  1.0000
  C   C8        1.0  0.17707626974596022  0.3016301474363958  0.604572392134588  1.0000
  C   C9        1.0  0.1374845616466611  0.4161340810523701  0.5930991470496827  1.0000
  C   C10       1.0  0.06363720261281981  0.4094209342232607  0.5857643699396669  1.0000
  N   N2        1.0  0.004269023832982798  0.4040241544497034  0.5798676674272836  1.0000
  C   C11       1.0  0.1698797922618495  0.5371751615746017  0.5891756699326491  1.0000
  C   C12       1.0  0.2415971063134201  0.5438040741100592  0.5964043942488171  1.0000
  C   C13       1.0  0.3867612083748432  0.5302928243890082  0.7054136790693291  1.0000
  N   N3        1.0  0.4437350276337412  0.5935022651315864  0.6849961499105324  1.0000
  C   C14       1.0  0.487583860021079  0.5841992554952349  0.5718900315019957  1.0000
  H   H1        1.0  0.4959904936080691  0.2519596535486732  0.5449089360158679  1.0000
  H   H2        1.0  0.37299833597597665  0.2875513763361328  0.4914829632353564  1.0000
  H   H3        1.0  0.278276595696793  0.2180910127230189  0.6227788767874964  1.0000
  H   H4        1.0  0.15250097443076108  0.2073988287065336  0.6084793177073591  1.0000
  H   H5        1.0  0.13972714807025313  0.6264350639269576  0.5804482362065215  1.0000
  H   H6        1.0  0.2656907997510833  0.6384482151846653  0.5924819223517275  1.0000
  H   H7        1.0  0.3567493313516339  0.5507104417061102  0.789776430726054  1.0000
  H   H8        1.0  0.5303223556122744  0.6545186165370733  0.5776387290790232  1.0000
  H   H9        1.0  0.4579162609120144  0.6122770360605239  0.48123817348483366  1.0000
  C   C15       1.0  0.8260694395882044  0.025596079350036945  0.577716824447976  1.0000
  C   C16       1.0  0.8143309939885366  0.03544477074043062  0.44264209741488547  1.0000
  C   C17       1.0  0.8083127342832517  0.9233016506599007  0.37403779293672956  1.0000
  C   C18       1.0  0.8141665213529035  0.8001876346243317  0.44233221775908405  1.0000
  C   C19       1.0  0.8259158008008731  0.7883835573154044  0.577488673362603  1.0000
  C   C20       1.0  0.8317979878473147  0.9016058817754848  0.6443489360620955  1.0000
  C   C21       1.0  0.7958957255492423  0.9346940321046907  0.2311450527388048  1.0000
  C   C22       1.0  0.8307959962469439  0.028195017221374526  0.15017193013230412  1.0000
  C   C23       1.0  0.819116434052194  0.03878502708873977  0.015700412167144906  1.0000
  C   C24       1.0  0.7727308804986472  0.9551962205768347  0.9593590601143815  1.0000
  C   C25       1.0  0.7369902233528542  0.8635255009908461  0.040253319921082165  1.0000
  C   C26       1.0  0.7486948476598505  0.8526790410743055  0.17468782160636076  1.0000
  N   N4        1.0  0.7588375921503041  0.9656207970211445  0.8216210186468889  1.0000
  C   C27       1.0  0.8090838589151561  0.0016858123034517703  0.724043210026152  1.0000
  O   O1        1.0  0.8721976585439052  0.003178141932123077  0.7527054634409152  1.0000
  C   C28       1.0  0.7871496631391875  0.028449779342362595  0.5852239250248612  1.0000
  H   H10       1.0  0.8306059040400089  0.3492836804037367  0.6296669199154508  1.0000
  H   H11       1.0  0.8088930640158675  0.13056242380755867  0.3907631869887041  1.0000
  H   H12       1.0  0.8104710453187769  0.713431788540461  0.3896566882652941  1.0000
  H   H13       1.0  0.8408544124082464  0.8932944764384846  0.7485344798043831  1.0000
  H   H14       1.0  0.8485039389229484  0.55881375101437  0.8324638421572674  1.0000
  H   H15       1.0  0.867530077885153  0.09264524122428952  0.19073211304388837  1.0000
  H   H16       1.0  0.845516679138043  0.1137799768607257  0.9564562006250004  1.0000
  H   H17       1.0  0.7001902061593136  0.7997801237920125  0.9988252610744671  1.0000
  H   H18       1.0  0.7200837686258342  0.78133756984005  0.23473682318129296  1.0000
  H   H19       1.0  0.7103825663937019  0.9375488144848702  0.7899304342999504  1.0000
  H   H20       1.0  0.7374863917296326  0.08272145581552781  0.5801377627692363  1.0000
  H   H21       1.0  0.7807879391671976  0.9349303909891843  0.5399188202231029  1.0000
  H   H22       1.0  0.8263220676394514  0.08786899619344334  0.5303275285355658  1.0000
  C   C29       1.0  0.8260325161251277  0.4068203752370301  0.196232336665932  1.0000
  C   C30       1.0  0.7596392685272197  0.4618837318829181  0.19046227325237375  1.0000
  C   C31       1.0  0.7259354498074926  0.4899766298698802  0.0703802020594686  1.0000
  C   C32       1.0  0.7595195070967931  0.46226334952315806  0.9551483017580544  1.0000
  C   C33       1.0  0.8259526910988579  0.4071591800935513  0.9589731965557587  1.0000
  C   C34       1.0  0.8588008917790675  0.37977886066892697  0.07993650918992468  1.0000
  C   C35       1.0  0.6556994346204862  0.5482273035527763  0.06532158125504872  1.0000
  C   C36       1.0  0.6382040548227012  0.6483385063227572  0.9697643790796132  1.0000
  C   C37       1.0  0.5720865860795595  0.703125014068974  0.9651313443545139  1.0000
  C   C38       1.0  0.5225971313140203  0.658623283548879  0.05574248346979527  1.0000
  C   C39       1.0  0.5394688448688371  0.5590808531426581  0.15112948409793936  1.0000
  C   C40       1.0  0.6055665928290279  0.5042070747293823  0.15601185858151467  1.0000
  C   C41       1.0  0.45453866813455174  0.7150719795222296  0.05084487896006485  1.0000
  C   C42       1.0  0.3975406655817609  0.7623469102435207  0.04674311919220919  1.0000
  C   C43       1.0  0.3307965972736219  0.8177054293717744  0.041939999681100515  1.0000
  C   C44       1.0  0.27380780566207025  0.8649729581199959  0.03783900921135607  1.0000
  H   H23       1.0  0.8515555858094795  0.3855783237600108  0.5259320266281555  1.0000
  H   H24       1.0  0.7343552986612377  0.48470107498012593  0.2794374656812715  1.0000
  H   H25       1.0  0.733409370827937  0.48207886534567573  0.8624371174272354  1.0000
  H   H26       1.0  0.9100108781032236  0.3373035383374752  0.08367162359199143  1.0000
  H   H27       1.0  0.9511691424340896  0.30239743378519224  0.7589563892265906  1.0000
  H   H28       1.0  0.675914068739665  0.6854149073356013  0.8996870698554535  1.0000
  H   H29       1.0  0.5596287149237011  0.7803874830833232  0.8910973968774254  1.0000
  H   H30       1.0  0.5014916310254747  0.5236502222889408  0.22153431183694838  1.0000
  H   H31       1.0  0.6172115572482837  0.4261964588288732  0.22964266130684896  1.0000
  H   H32       1.0  0.22376694141098197  0.9064776885699727  0.034238008381544345  1.0000
  Zn  Zn1       1.0  0.750604951957336  0.4082475402281736  0.5766444871191616  1.0000
  Zn  Zn2       1.0  0.9013736776014237  0.4057315474887939  0.5785603453550248  1.0000
  C   C45       1.0  0.8259672940170465  0.40192111995148294  0.8148003532386086  1.0000
  C   C46       1.0  0.826012981588048  0.41205957909516977  0.3404046271335248  1.0000
  C   C47       1.0  0.8259418229682713  0.6441982194233551  0.5723565740795342  1.0000
  C   C48       1.0  0.8260384014970943  0.16978092008809334  0.5828484753444481  1.0000
  O   O2        1.0  0.883222372404511  0.41285743145417  0.3895172247551693  1.0000
  O   O3        1.0  0.883187877650103  0.399212707354264  0.767141474133572  1.0000
  O   O4        1.0  0.8831665380164687  0.5948545426610752  0.5713663969275262  1.0000
  O   O5        1.0  0.8832436605993098  0.2172156062535855  0.5852922039296311  1.0000
  O   O6        1.0  0.7687349175094836  0.5967634823233778  0.569912627883935  1.0000
  O   O7        1.0  0.7687562568328802  0.4011232074117671  0.7656876353775122  1.0000
  O   O8        1.0  0.7687907518055542  0.414767885557743  0.38806182460637834  1.0000
  O   O9        1.0  0.7688120399892223  0.21912605111092787  0.5838369011518048  1.0000
