data_image0
_chemical_formula_structural       NC12NC2H8C6NCH9C7ONH5Zn2C4O8
_chemical_formula_sum              "N4 C32 H22 O9 Zn2"
_cell_length_a       19.240039667572717
_cell_length_b       9.273386996610926
_cell_length_c       9.273042158839658
_cell_angle_alpha    86.06883900085258
_cell_angle_beta     90.09323012154856
_cell_angle_gamma    89.39858615406628

_space_group_name_H-M_alt    "P 1"
_space_group_IT_number       1

loop_
  _space_group_symop_operation_xyz
  'x, y, z'

loop_
  _atom_site_type_symbol
  _atom_site_label
  _atom_site_symmetry_multiplicity
  _atom_site_fract_x
  _atom_site_fract_y
  _atom_site_fract_z
  _atom_site_occupancy
  N   N1        1.0  0.645325401237996  0.5620992379595624  0.4075481681815776  1.0000
  C   C1        1.0  0.5851770318821505  0.5620993302936621  0.4075480770939317  1.0000
  C   C2        1.0  0.5103589939702868  0.5620994589775119  0.40754792449723987  1.0000
  C   C3        1.0  0.4743315609226013  0.49169561812459595  0.5224342580230117  1.0000
  C   C4        1.0  0.401661506338149  0.49157345571537103  0.5225305050768334  1.0000
  C   C5        1.0  0.3640267583278959  0.5620995591447714  0.4075476716413211  1.0000
  C   C6        1.0  0.4007676878115665  0.6326258725616345  0.29256505377817943  1.0000
  C   C7        1.0  0.47343907121405043  0.6325034499769666  0.292661437210836  1.0000
  C   C8        1.0  0.2868216682530424  0.5620994706489519  0.4075475658869421  1.0000
  C   C9        1.0  0.2503045095304355  0.4367719607515576  0.4542205709247833  1.0000
  C   C10       1.0  0.1776331461287888  0.43688964494821714  0.4541190226838452  1.0000
  C   C11       1.0  0.1404893821053901  0.5620993278677595  0.4075476337193096  1.0000
  C   C12       1.0  0.06567134579156551  0.5620992044200441  0.407547909896403  1.0000
  N   N2        1.0  0.005523029338039999  0.5620991615052482  0.4075481412811474  1.0000
  C   C13       1.0  0.1762931284694391  0.6873090944031959  0.3609761859185432  1.0000
  C   C14       1.0  0.24896314852536866  0.6874269767894157  0.36087445690081726  1.0000
  H   H1        1.0  0.502392496720534  0.4371953443791716  0.6121334855243918  1.0000
  H   H2        1.0  0.3749106880837282  0.4379727694621391  0.6134663304293866  1.0000
  H   H3        1.0  0.373331975084534  0.6862265882723504  0.20162917194360586  1.0000
  H   H4        1.0  0.500807907666564  0.6870036155663075  0.20296251597734516  1.0000
  H   H5        1.0  0.2779242458557885  0.33809708235744484  0.4889715749135184  1.0000
  H   H6        1.0  0.15044054871287268  0.33922569207661657  0.4900148370638551  1.0000
  H   H7        1.0  0.1480559025873009  0.7849730201877971  0.32508038773118586  1.0000
  H   H8        1.0  0.27552989053582155  0.786101942614526  0.32612340308085974  1.0000
  C   C15       1.0  0.827565361608259  0.1384526860276485  0.40825640629502025  1.0000
  C   C16       1.0  0.8396737409315684  0.22055546767216772  0.2779343620286003  1.0000
  C   C17       1.0  0.8452380053493918  0.15467967676544636  0.147604262982707  1.0000
  C   C18       1.0  0.8387770662670696  0.0043438263380055605  0.14426397034251148  1.0000
  C   C19       1.0  0.8278931842175661  0.9212733612873973  0.27413330481503984  1.0000
  C   C20       1.0  0.823289793138495  0.9857347529921839  0.4068523758520104  1.0000
  N   N3        1.0  0.8437518115285798  0.9334032659595068  0.011243077612885781  1.0000
  C   C21       1.0  0.8552272212284951  0.00981812523802273  0.8705906957577393  1.0000
  H   H9        1.0  0.8419382384109463  0.40309010922114735  0.644890041431113  1.0000
  H   H10       1.0  0.8432174460426483  0.337182733087402  0.2761660494274991  1.0000
  H   H11       1.0  0.8539313487464469  0.2222504665674476  0.04969988201189146  1.0000
  H   H12       1.0  0.8246109316310478  0.8048483401661937  0.2718595312468093  1.0000
  H   H13       1.0  0.8491373630023118  0.8580708226060865  0.7579074441483749  1.0000
  H   H14       1.0  0.8388402298514113  0.8210676284971998  0.01423191142986968  1.0000
  H   H15       1.0  0.8121219982131661  0.08812789126383766  0.8455479000056694  1.0000
  H   H16       1.0  0.9055338001792661  0.06737231670894281  0.8708232696936942  1.0000
  H   H17       1.0  0.8569168567250184  0.9314826792643953  0.7852622980212262  1.0000
  C   C22       1.0  0.8251177313435166  0.5576351055509976  0.9842968602852262  1.0000
  C   C23       1.0  0.7612344135338034  0.5668217688986769  0.056962457025119484  1.0000
  C   C24       1.0  0.6985357820905274  0.5899627603639344  0.9806679602414538  1.0000
  C   C25       1.0  0.7001145886505222  0.6021745674344026  0.8291490229070733  1.0000
  C   C26       1.0  0.7628707795531449  0.5908697949031723  0.7554775057389862  1.0000
  C   C27       1.0  0.825737458992282  0.5665523132623929  0.8308119218286873  1.0000
  C   C28       1.0  0.6320695036801492  0.5999220277729032  0.060511490148266844  1.0000
  O   O1        1.0  0.627707905130674  0.5440942476759196  0.18797462710556623  1.0000
  N   N4        1.0  0.5725802002749811  0.6731115819621283  0.9968537548151115  1.0000
  H   H18       1.0  0.9934679451274772  0.6127401470784593  0.08416556577438782  1.0000
  H   H19       1.0  0.6527785747992163  0.6164385316866385  0.7665022622640993  1.0000
  H   H20       1.0  0.9392448589039076  0.596974707105667  0.5478397012366515  1.0000
  H   H21       1.0  0.5756130107676689  0.7354091750654044  0.8990846903077219  1.0000
  H   H22       1.0  0.5256042430151543  0.672949208681074  0.05309649473637146  1.0000
  Zn  Zn1       1.0  0.7492706907020995  0.5620954518763002  0.4075564777369469  1.0000
  Zn  Zn2       1.0  0.9015778266392754  0.5620913036525228  0.4075516142829716  1.0000
  C   C29       1.0  0.825647750021628  0.5591195798530586  0.6708119495443974  1.0000
  C   C30       1.0  0.8252024214270379  0.565068997393833  0.14429628087302257  1.0000
  C   C31       1.0  0.8240901960381075  0.8255199173033907  0.4013741447485594  1.0000
  C   C32       1.0  0.82675993224148  0.2986669274802931  0.4137341653864128  1.0000
  O   O2        1.0  0.8830306402855006  0.5675560113440741  0.19799171280932382  1.0000
  O   O3        1.0  0.8834171283804485  0.5566283247940191  0.6171124132542309  1.0000
  O   O4        1.0  0.8821586057694796  0.7717499821859184  0.39953947710351456  1.0000
  O   O5        1.0  0.8842891107931697  0.35243436313528753  0.41556454087454187  1.0000
  O   O6        1.0  0.7665593545732413  0.7717523923964413  0.3995435511394527  1.0000
  O   O7        1.0  0.7678178683783256  0.5566324674706564  0.6171164075666931  1.0000
  O   O8        1.0  0.7674313793146892  0.5675600854932796  0.19799397430408572  1.0000
  O   O9        1.0  0.7686898499506943  0.35243842810428694  0.4155669104488786  1.0000
