data_image0
_chemical_formula_structural       NC6NCNCH5C7NH5C6OCH7Zn2C4O8
_chemical_formula_sum              "N4 C26 H17 O9 Zn2"
_cell_length_a       14.933214217465613
_cell_length_b       9.275154477615127
_cell_length_c       9.273891588657152
_cell_angle_alpha    86.29931945807607
_cell_angle_beta     89.64588733206324
_cell_angle_gamma    89.46799387830556

_space_group_name_H-M_alt    "P 1"
_space_group_IT_number       1

loop_
  _space_group_symop_operation_xyz
  'x, y, z'

loop_
  _atom_site_type_symbol
  _atom_site_label
  _atom_site_symmetry_multiplicity
  _atom_site_fract_x
  _atom_site_fract_y
  _atom_site_fract_z
  _atom_site_occupancy
  N   N1        1.0  0.8391224960979528  0.5644648436404976  0.415417294830269  1.0000
  C   C1        1.0  0.7616295916262267  0.5654524332824221  0.4144307572397308  1.0000
  C   C2        1.0  0.6652278543896388  0.5666837041132058  0.4132006662680896  1.0000
  C   C3        1.0  0.6176574788719982  0.4717945041126723  0.5080082403958115  1.0000
  C   C4        1.0  0.5241211815823307  0.47286749674018314  0.5069362005726596  1.0000
  C   C5        1.0  0.4772530513630571  0.5687753226669008  0.411110913736181  1.0000
  C   C6        1.0  0.3806831174256494  0.5666858417657172  0.41319860401650566  1.0000
  N   N2        1.0  0.3032021432936197  0.5649427497030077  0.41493982574991417  1.0000
  C   C7        1.0  0.5249189848091028  0.6648627156697864  0.3151063064956028  1.0000
  N   N3        1.0  0.47934045019804034  0.7645477925678557  0.2155072548682253  1.0000
  C   C8        1.0  0.6189382023460526  0.6628324072777354  0.3171349857014041  1.0000
  H   H1        1.0  0.6528553414466964  0.3969807510469399  0.5827575936390341  1.0000
  H   H2        1.0  0.4882363540213541  0.3986830874678312  0.5810566225034586  1.0000
  H   H3        1.0  0.515507547758226  0.834954971149646  0.14516060105764428  1.0000
  H   H4        1.0  0.40958477506713875  0.7698518893424664  0.21020779284051905  1.0000
  H   H5        1.0  0.6559494650505492  0.7362703978696854  0.2437601746346529  1.0000
  C   C9        1.0  0.07376377759386621  0.14130211364644207  0.41350789560466716  1.0000
  C   C10       1.0  0.04963148873871084  0.22330983023463083  0.2864415644463145  1.0000
  C   C11       1.0  0.01819174692364191  0.15615324529677535  0.16611495908969154  1.0000
  C   C12       1.0  0.01036463750920147  0.006072606077663909  0.17143773188621014  1.0000
  C   C13       1.0  0.03533708170178351  0.922831945602116  0.295606256985792  1.0000
  C   C14       1.0  0.06856945009412452  0.9880944904030882  0.41686171589102994  1.0000
  C   C15       1.0  0.9928734976475493  0.24172773445155318  0.03751806814932812  1.0000
  N   N4        1.0  0.972524657688924  0.3105140221509055  0.934159107067674  1.0000
  H   H6        1.0  0.08988098467214695  0.2211816579465338  0.7673111469214475  1.0000
  H   H7        1.0  0.05330361431411593  0.34023442876223675  0.282160870439792  1.0000
  H   H8        1.0  0.9857240734524041  0.9530861628492886  0.07895966943452248  1.0000
  H   H9        1.0  0.030635295903662877  0.8063583636448288  0.29548423995140194  1.0000
  H   H10       1.0  0.08322574031031897  0.6914779943640121  0.6539159898082814  1.0000
  C   C16       1.0  0.07265702476447405  0.5608812326791803  0.9918928190671529  1.0000
  C   C17       1.0  0.14561742228376257  0.6218560034874969  0.060632272066531316  1.0000
  C   C18       1.0  0.21343236688397238  0.6935919368083391  0.9810361455828285  1.0000
  C   C19       1.0  0.20852876839605647  0.7047146359984688  0.8296445790539271  1.0000
  C   C20       1.0  0.13745504488238022  0.6428687799140862  0.7595575350851052  1.0000
  C   C21       1.0  0.06967617856456187  0.5685152944769679  0.8384767252830678  1.0000
  O   O1        1.0  0.2839581326420302  0.752788976779367  0.056403991319495576  1.0000
  C   C22       1.0  0.3572333189720691  0.8287451980636072  0.9895522879372769  1.0000
  H   H11       1.0  0.8602028349421884  0.47210606631136304  0.10277844921379176  1.0000
  H   H12       1.0  0.2597754643770508  0.7598249768222538  0.7648874331674418  1.0000
  H   H13       1.0  0.13668691518265597  0.650298987003062  0.6425065330173894  1.0000
  H   H14       1.0  0.9280359603159715  0.5030324321166288  0.5629214327016392  1.0000
  H   H15       1.0  0.33259738880088174  0.9262897879135646  0.9255678680372919  1.0000
  H   H16       1.0  0.3950101080051212  0.757226219773327  0.9188178009381874  1.0000
  H   H17       1.0  0.4028608016061821  0.8632556828942084  0.0744851700070781  1.0000
  Zn  Zn1       1.0  0.973045852604511  0.5645989633872448  0.4152878249894709  1.0000
  Zn  Zn2       1.0  0.16927880300234976  0.5647969083445037  0.41508108600358495  1.0000
  C   C23       1.0  0.07027287307378251  0.5613284353687973  0.6784315110063204  1.0000
  C   C24       1.0  0.07205391373331471  0.5680692590213159  0.1519375464128545  1.0000
  C   C25       1.0  0.06956690044293046  0.8279808842978547  0.41048367463724644  1.0000
  C   C26       1.0  0.07275982975896648  0.30141507844544924  0.41988545284157763  1.0000
  O   O2        1.0  0.14632092474598823  0.5705504552103526  0.2055715376562708  1.0000
  O   O3        1.0  0.14494213902479736  0.5589963833772195  0.6246401904062004  1.0000
  O   O4        1.0  0.14437104803688125  0.774321620671008  0.40827042375804456  1.0000
  O   O5        1.0  0.14689194909016945  0.35522522718856236  0.42194119633697036  1.0000
  O   O6        1.0  0.9954326395520341  0.7741706444771392  0.40842771471905936  1.0000
  O   O7        1.0  0.9960037201804922  0.5588471387641121  0.6247974113705397  1.0000
  O   O8        1.0  0.9973825123714931  0.5704011447256296  0.20572702537950804  1.0000
  O   O9        1.0  0.9979535363947507  0.3550759073657939  0.42209679209063844  1.0000
