data_image0
_chemical_formula_structural       NC12NC2H8C7OC4NC3H8C7OC6OCH12Zn2C4O8
_chemical_formula_sum              "N3 C46 H28 O11 Zn2"
_cell_length_a       19.240039667572717
_cell_length_b       10.299371701877257
_cell_length_c       10.299362532796529
_cell_angle_alpha    85.59861751689631
_cell_angle_beta     90.01509071760941
_cell_angle_gamma    90.00851160782973

_space_group_name_H-M_alt    "P 1"
_space_group_IT_number       1

loop_
  _space_group_symop_operation_xyz
  'x, y, z'

loop_
  _atom_site_type_symbol
  _atom_site_label
  _atom_site_symmetry_multiplicity
  _atom_site_fract_x
  _atom_site_fract_y
  _atom_site_fract_z
  _atom_site_occupancy
  N   N1        1.0  0.6543882113561087  0.42083923563880793  0.5680077420276277  1.0000
  C   C1        1.0  0.5942398425339561  0.42083931959520554  0.5680076601235957  1.0000
  C   C2        1.0  0.5194218053827636  0.42083943683917674  0.5680075228650063  1.0000
  C   C3        1.0  0.4829575446302956  0.35640562297027695  0.6713939967237277  1.0000
  C   C4        1.0  0.4102867999102926  0.3562947678588202  0.6714804955558389  1.0000
  C   C5        1.0  0.3730895704206912  0.42083952933486807  0.5680072952204385  1.0000
  C   C6        1.0  0.41026801936061796  0.4853844778575015  0.4645342894969611  1.0000
  C   C7        1.0  0.48293871120287185  0.48527338728333247  0.4646209107377388  1.0000
  C   C8        1.0  0.29588447996134853  0.4208394506442041  0.5680071997749492  1.0000
  C   C9        1.0  0.25869356234539176  0.3075911136119551  0.609833646937435  1.0000
  C   C10       1.0  0.18602286958960368  0.3076979862243187  0.609742363599441  1.0000
  C   C11       1.0  0.1495521930364616  0.42083932148954917  0.5680072606346509  1.0000
  C   C12       1.0  0.0747341559075237  0.42083920782243056  0.5680075092497621  1.0000
  N   N2        1.0  0.014585839081566998  0.42083916706253977  0.5680077176520115  1.0000
  C   C13       1.0  0.186029027338508  0.5339807325664565  0.5262721048089012  1.0000
  C   C14       1.0  0.2586997191761396  0.5340877852505962  0.5261806589473299  1.0000
  H   H1        1.0  0.5106798249182469  0.30651977003566366  0.7521153826669391  1.0000
  H   H2        1.0  0.38320112829151237  0.3072073438386837  0.7533176921487823  1.0000
  H   H3        1.0  0.383167160186252  0.5344719289145992  0.382697042066408  1.0000
  H   H4        1.0  0.5106462024089163  0.5351591400394857  0.3838998005493375  1.0000
  H   H5        1.0  0.28578413741039066  0.21844496678622627  0.6409664002384088  1.0000
  H   H6        1.0  0.15830554472087008  0.21945133836717787  0.6419084273027329  1.0000
  H   H7        1.0  0.158316528759551  0.6222273558911107  0.4941060556464145  1.0000
  H   H8        1.0  0.2857956229283379  0.6232340112395083  0.49504786090588104  1.0000
  C   C15       1.0  0.8344539905906987  0.03946873900690263  0.5678807213028803  1.0000
  C   C16       1.0  0.8378115757914593  0.04876752541690377  0.43121943589529543  1.0000
  C   C17       1.0  0.8387158513322034  0.936288644110704  0.3622288750318807  1.0000
  C   C18       1.0  0.8378202183062203  0.8134993074485468  0.43153682338628224  1.0000
  C   C19       1.0  0.8345267361697228  0.8021996786837252  0.5681459263401174  1.0000
  C   C20       1.0  0.8326798136986276  0.915785749104095  0.6355116259957947  1.0000
  C   C21       1.0  0.8429911693765562  0.9459637813503807  0.21798269612722357  1.0000
  O   O1        1.0  0.8764347098201338  0.8602000276339308  0.16303827308435004  1.0000
  C   C22       1.0  0.8093151753387736  0.052851827325488536  0.13607267992999406  1.0000
  C   C23       1.0  0.839064946245314  0.09745915162027341  0.016105571626607196  1.0000
  C   C24       1.0  0.8072224392755032  0.1973380989909898  0.937316876399481  1.0000
  C   C25       1.0  0.8383202507196849  0.24312880072522763  0.8151636764598704  1.0000
  N   N3        1.0  0.8633215082433777  0.27993490092451245  0.716970217576141  1.0000
  C   C26       1.0  0.7451111225349509  0.2525289129791699  0.9774876671058932  1.0000
  C   C27       1.0  0.7147743909710687  0.20771042598041897  0.09571527160945115  1.0000
  C   C28       1.0  0.746417340232516  0.10812894956106889  0.1744925695587114  1.0000
  H   H9        1.0  0.84050586770212  0.14367496401929133  0.37833420745842616  1.0000
  H   H10       1.0  0.8390324979118621  0.7266454510720535  0.378525962201151  1.0000
  H   H11       1.0  0.8300917411444004  0.9078131726573786  0.7408677362127338  1.0000
  H   H12       1.0  0.8338465218789523  0.4703984766274313  0.6206698099049344  1.0000
  H   H13       1.0  0.8872599095348959  0.055358268697896174  0.9845295070745061  1.0000
  H   H14       1.0  0.7200474003652563  0.3297265875186528  0.917249772594376  1.0000
  H   H15       1.0  0.6664605883986552  0.24982713899015074  0.1261383604459112  1.0000
  H   H16       1.0  0.7213203616759996  0.07344684272466595  0.2646465266557452  1.0000
  C   C29       1.0  0.8344361094825513  0.42071368456725655  0.18664640471863247  1.0000
  C   C30       1.0  0.7684554359284513  0.36203299809671874  0.18991366803988963  1.0000
  C   C31       1.0  0.7348771483355969  0.3337594409939186  0.0743905309899151  1.0000
  C   C32       1.0  0.7686511776805345  0.36219655611153867  0.9546594250195586  1.0000
  C   C33       1.0  0.8345446255221689  0.4209547392062507  0.9493802636010837  1.0000
  C   C34       1.0  0.8669998272989716  0.45012989614421395  0.06591256053746042  1.0000
  C   C35       1.0  0.6655565273718294  0.27046169491018457  0.08017134467425469  1.0000
  O   O2        1.0  0.6513490580694967  0.19125499807211452  0.17604036864090378  1.0000
  C   C36       1.0  0.6123563155456409  0.2970129575343814  0.977265775730277  1.0000
  C   C37       1.0  0.6070233377090941  0.42038567217533584  0.909455276592278  1.0000
  C   C38       1.0  0.5561531864369679  0.4445653159095637  0.8137681053434083  1.0000
  C   C39       1.0  0.5093913320456454  0.34690089724734596  0.7846853442827834  1.0000
  C   C40       1.0  0.5139934035975307  0.2237217374542333  0.8534141268680182  1.0000
  C   C41       1.0  0.5648573143316131  0.19941489444022917  0.9491736588985011  1.0000
  O   O3        1.0  0.45936125297674335  0.37606052816584556  0.6877109428228882  1.0000
  C   C42       1.0  0.4086774006284197  0.28629916902334607  0.6483071215074827  1.0000
  H   H17       1.0  0.959060195002677  0.5309526915328315  0.3877890253264611  1.0000
  H   H18       1.0  0.7427196998340081  0.3392920346438342  0.28243984561849356  1.0000
  H   H19       1.0  0.7438032795023741  0.3371164554166639  0.8655966355269644  1.0000
  H   H20       1.0  0.917831997842748  0.49545337444043736  0.06257285399375068  1.0000
  H   H21       1.0  0.8599392986470418  0.44301278682594697  0.6199187322615156  1.0000
  H   H22       1.0  0.6416735203965884  0.49863648842311203  0.9313066859704886  1.0000
  H   H23       1.0  0.5528507607279404  0.5400248235826359  0.7622376628237242  1.0000
  H   H24       1.0  0.4785449253464428  0.1461567106092896  0.8336597318152249  1.0000
  H   H25       1.0  0.5674844520597447  0.10377351828463219  0.0005908461336576709  1.0000
  H   H26       1.0  0.3760358815359359  0.33499430903228133  0.5702406611341995  1.0000
  H   H27       1.0  0.3747356909487897  0.25408612411359743  0.7318455990308377  1.0000
  H   H28       1.0  0.434577975686518  0.20097910500849034  0.609621622653155  1.0000
  Zn  Zn1       1.0  0.7583334759267795  0.42083575099962944  0.568015222174467  1.0000
  Zn  Zn2       1.0  0.9106405937794222  0.4208320615281482  0.568010832666116  1.0000
  C   C43       1.0  0.834522060248882  0.41573548593836374  0.8052054198176087  1.0000
  C   C44       1.0  0.8344536728207237  0.4259339652156817  0.3308207630105937  1.0000
  C   C45       1.0  0.8345086702764725  0.6580256755195262  0.5629206559326421  1.0000
  C   C46       1.0  0.8344670106823988  0.18364221534871494  0.5731055955927904  1.0000
  O   O4        1.0  0.8922593241669625  0.4276788731894088  0.37920532693681497  1.0000
  O   O5        1.0  0.8923139870593628  0.41398679789649434  0.7568171501713732  1.0000
  O   O6        1.0  0.8923023955110282  0.6096391906066145  0.5611704896213523  1.0000
  O   O7        1.0  0.8922708637302287  0.23202648974003193  0.5748518901174051  1.0000
  O   O8        1.0  0.7767031540010281  0.6096413227904167  0.5611741647178454  1.0000
  O   O9        1.0  0.7767147456851519  0.4139904903687712  0.7568207565653033  1.0000
  O   O10       1.0  0.7766600826125389  0.42768251991204415  0.3792073719224833  1.0000
  O   O11       1.0  0.7766716221859284  0.23203012720459457  0.5748540324671718  1.0000
