data_image0
_chemical_formula_structural       NC9NC4H8C7OCH9C9H10Zn2C4O8
_chemical_formula_sum              "N2 C34 H27 O9 Zn2"
_cell_length_a       16.32274767691083
_cell_length_b       10.30083208314754
_cell_length_c       9.272679976505534
_cell_angle_alpha    86.00090220550724
_cell_angle_beta     89.86705810092191
_cell_angle_gamma    89.51862078510035

_space_group_name_H-M_alt    "P 1"
_space_group_IT_number       1

loop_
  _space_group_symop_operation_xyz
  'x, y, z'

loop_
  _atom_site_type_symbol
  _atom_site_label
  _atom_site_symmetry_multiplicity
  _atom_site_fract_x
  _atom_site_fract_y
  _atom_site_fract_z
  _atom_site_occupancy
  N   N1        1.0  0.7651087038660489  0.4003441042683413  0.3975303566873418  1.0000
  C   C1        1.0  0.7125483758710407  0.3524743196113007  0.3372807964765607  1.0000
  C   C2        1.0  0.6472155583874726  0.29301967428955766  0.2624503609172626  1.0000
  C   C3        1.0  0.6583864224020403  0.21169629479224827  0.160090876823328  1.0000
  C   C4        1.0  0.5788344609604779  0.17201008271777485  0.11014285242749232  1.0000
  C   C5        1.0  0.520174189396162  0.23008999913595174  0.18324895524567464  1.0000
  C   C6        1.0  0.43016463216526213  0.21474002749815857  0.16393158605352443  1.0000
  C   C7        1.0  0.3748865929548075  0.282435861895927  0.24913326325731577  1.0000
  C   C8        1.0  0.29011648123477857  0.26931703632467885  0.2326234152949602  1.0000
  C   C9        1.0  0.23443628554123971  0.3390939590329287  0.3204434967143996  1.0000
  N   N2        1.0  0.189688294062641  0.3951831197808708  0.391035968018617  1.0000
  C   C10       1.0  0.2595708590290322  0.18839289640832216  0.13077478906660067  1.0000
  C   C11       1.0  0.3135274023966659  0.12078673282017194  0.04568634655244752  1.0000
  C   C12       1.0  0.3981370582512542  0.13355219661405426  0.06175132168083674  1.0000
  C   C13       1.0  0.5583258947663086  0.314776881575598  0.28983910692594184  1.0000
  H   H1        1.0  0.7171454547759317  0.18007344929599567  0.12028559403377681  1.0000
  H   H2        1.0  0.5702271254478959  0.1055445845324401  0.026484368593267627  1.0000
  H   H3        1.0  0.3972955885097656  0.3456107963433517  0.3286434043448956  1.0000
  H   H4        1.0  0.19412837485412382  0.17758570370476257  0.11717434814414517  1.0000
  H   H5        1.0  0.2897250490874365  0.058184367380119006  0.9668971071280983  1.0000
  H   H6        1.0  0.43766444482225086  0.07947162069257964  0.9936864825437784  1.0000
  H   H7        1.0  0.541994451473577  0.28084778413579037  0.40252362188187685  1.0000
  H   H8        1.0  0.541443161188791  0.41865426639729225  0.2651966212238226  1.0000
  C   C14       1.0  0.9774258891450583  0.016427615794545325  0.39443402728326293  1.0000
  C   C15       1.0  0.9540464659484733  0.02506448271887884  0.2484025373614591  1.0000
  C   C16       1.0  0.9413197490858671  0.9122809909770894  0.17531978329578535  1.0000
  C   C17       1.0  0.9539858314150286  0.7898035208308746  0.24802255096279802  1.0000
  C   C18       1.0  0.9773790354810129  0.7790895684775698  0.39414468067015734  1.0000
  C   C19       1.0  0.9887700158388562  0.8929375167761413  0.4665785988372441  1.0000
  C   C20       1.0  0.9186490366054207  0.9226831771367404  0.01797237599423874  1.0000
  O   O1        1.0  0.9910908739428594  0.927120087300137  0.9344482381398306  1.0000
  C   C21       1.0  0.9706323722852976  0.9369205293802285  0.7864376009206757  1.0000
  H   H9        1.0  0.9456556911872501  0.11943339079058313  0.19089686623841096  1.0000
  H   H10       1.0  0.9455526865275965  0.7030236323564735  0.1902560305917584  1.0000
  H   H11       1.0  0.006808182664066901  0.8855134205994396  0.579200066384844  1.0000
  H   H12       1.0  0.022405372752693605  0.5516448553480111  0.6693396471903841  1.0000
  H   H13       1.0  0.8808354292079442  0.01223909803607315  0.9944494983953769  1.0000
  H   H14       1.0  0.8808670237321718  0.8371468484746294  0.9941184408202964  1.0000
  H   H15       1.0  0.028098366278600063  0.940300469119425  0.7222351865632999  1.0000
  H   H16       1.0  0.9356187284384702  0.028036063281424273  0.7569088226398031  1.0000
  H   H17       1.0  0.935631563735253  0.8505512995044113  0.7565513712024683  1.0000
  C   C22       1.0  0.9757416353177604  0.39471238862630303  0.970953239210384  1.0000
  C   C23       1.0  0.031420897422434146  0.3137095700679826  0.05039833819731343  1.0000
  C   C24       1.0  0.09113387663662142  0.24318070848814144  0.9809105030874683  1.0000
  C   C25       1.0  0.09718680847101922  0.25133453652187554  0.8299525371739951  1.0000
  C   C26       1.0  0.04052430111282623  0.33058690129401413  0.7491388715923333  1.0000
  C   C27       1.0  0.9790632508831058  0.4008048178529906  0.8176254938985394  1.0000
  C   C28       1.0  0.1645399478178657  0.1722909954795575  0.7628038093114662  1.0000
  C   C29       1.0  0.1450364320837058  0.11309990428420491  0.6210248695473828  1.0000
  C   C30       1.0  0.2026519448157337  0.22867383716150136  0.6222808867752709  1.0000
  H   H18       1.0  0.8523837632307726  0.48401091256566264  0.2457576243562087  1.0000
  H   H19       1.0  0.03012437895991682  0.30717500087898686  0.1674952630730575  1.0000
  H   H20       1.0  0.13354820805858347  0.1826532985682694  0.04591695863404688  1.0000
  H   H21       1.0  0.04235650738331298  0.33617837210499646  0.6323298073994779  1.0000
  H   H22       1.0  0.7930640450973354  0.525229956681855  0.7057213613169355  1.0000
  H   H23       1.0  0.20736105737237076  0.11335412436110183  0.8343573063798035  1.0000
  H   H24       1.0  0.08418304137804866  0.13599962676275146  0.5722656550190615  1.0000
  H   H25       1.0  0.17686295976422817  0.019227208083847595  0.6062796069770519  1.0000
  H   H26       1.0  0.1768362054071715  0.32171843179384463  0.5741673578852472  1.0000
  H   H27       1.0  0.2681617869189741  0.202340418238512  0.6082657390813289  1.0000
  Zn  Zn1       1.0  0.887633241255759  0.3988513302587555  0.3956645430406449  1.0000
  Zn  Zn2       1.0  0.06716380983271564  0.39666532272102234  0.3929135956615557  1.0000
  C   C31       1.0  0.9784338929998974  0.39447999295883523  0.6575882568006302  1.0000
  C   C32       1.0  0.9763651190111869  0.4010382756459774  0.1309899927329412  1.0000
  C   C33       1.0  0.9773611159967852  0.634888941513539  0.3884547502628808  1.0000
  C   C34       1.0  0.9774378351504931  0.16062776822246683  0.4001235776592582  1.0000
  O   O2        1.0  0.04470528132606799  0.4023260573974179  0.18365582112476808  1.0000
  O   O3        1.0  0.04635327661250588  0.3915320994430467  0.6028341083869867  1.0000
  O   O4        1.0  0.04548608305878951  0.5856653877564446  0.38550691125465075  1.0000
  O   O5        1.0  0.04557241319353733  0.20819277834159114  0.4009829111021703  1.0000
  O   O6        1.0  0.9092245766299353  0.587323875385523  0.3875952285312101  1.0000
  O   O7        1.0  0.9100917697824568  0.3931921466882693  0.604922348206159  1.0000
  O   O8        1.0  0.9084437677535848  0.4039860469181488  0.18574232773752541  1.0000
  O   O9        1.0  0.9093109000422991  0.20985275935208758  0.40306952580104194  1.0000
