data_image0
_chemical_formula_structural       NC8NH4C9H10C6ClH5Zn2C4O8
_chemical_formula_sum              "N2 C27 H19 Cl1 Zn2 O8"
_cell_length_a       13.859017124695912
_cell_length_b       10.297183801781406
_cell_length_c       10.302974078461048
_cell_angle_alpha    85.53397833117516
_cell_angle_beta     89.99985762628332
_cell_angle_gamma    89.9976557662862

_space_group_name_H-M_alt    "P 1"
_space_group_IT_number       1

loop_
  _space_group_symop_operation_xyz
  'x, y, z'

loop_
  _atom_site_type_symbol
  _atom_site_label
  _atom_site_symmetry_multiplicity
  _atom_site_fract_x
  _atom_site_fract_y
  _atom_site_fract_z
  _atom_site_occupancy
  N   N1        1.0  0.9085488370393584  0.42168432786075427  0.5673160667933834  1.0000
  C   C1        1.0  0.8361950477038522  0.4010933500150191  0.5167386230955037  1.0000
  C   C2        1.0  0.7461912295832135  0.37548118678332043  0.4538267832163343  1.0000
  C   C3        1.0  0.658575165750105  0.40045045512843985  0.5151579115509202  1.0000
  C   C4        1.0  0.5709609096906018  0.37548229097834485  0.453826260930732  1.0000
  C   C5        1.0  0.5711451266455211  0.3255381028382116  0.3311446555205495  1.0000
  C   C6        1.0  0.6585786268737037  0.3006648025523313  0.27004960718108806  1.0000
  C   C7        1.0  0.7460104855830619  0.3255359864980629  0.3311457178401356  1.0000
  C   C8        1.0  0.48095520896093313  0.40109418463406343  0.5167381741451138  1.0000
  N   N2        1.0  0.40859996261910553  0.4216846184607961  0.567315872098628  1.0000
  H   H1        1.0  0.6585737804380118  0.4391092079972325  0.6101164129935313  1.0000
  H   H2        1.0  0.5038503912719936  0.3058863694010041  0.2828703428231356  1.0000
  H   H3        1.0  0.6585800753890572  0.26208501658601535  0.17528341243312506  1.0000
  H   H4        1.0  0.8133066080115025  0.30588236077110104  0.28287230602274915  1.0000
  C   C9        1.0  0.15858239353214088  0.040208925784558154  0.5674999323326708  1.0000
  C   C10       1.0  0.1557695522158933  0.050068912639809726  0.43088445223571753  1.0000
  C   C11       1.0  0.15432822816949  0.9385039848498022  0.36089234672275006  1.0000
  C   C12       1.0  0.1557582485144524  0.8148978198222436  0.4303549508642177  1.0000
  C   C13       1.0  0.15857565403148952  0.8031500523751093  0.5671432295794872  1.0000
  C   C14       1.0  0.1599684191271349  0.9162817337313667  0.6348227976934107  1.0000
  C   C15       1.0  0.15128567470221044  0.9586004516709894  0.2131330583725439  1.0000
  C   C16       1.0  0.0947869027912791  0.8598835041772404  0.14086269115527128  1.0000
  C   C17       1.0  0.20471318939593683  0.8601917866105964  0.13673843087806414  1.0000
  H   H5        1.0  0.1596754334726449  0.36394801058293563  0.6201422587752716  1.0000
  H   H6        1.0  0.1546838428987738  0.1452977768991448  0.3781433396271187  1.0000
  H   H7        1.0  0.15470034826830717  0.7272981158509424  0.3790784487489667  1.0000
  H   H8        1.0  0.16213810165145492  0.9079471039540791  0.7402245094155578  1.0000
  H   H9        1.0  0.163884122352991  0.5737453776287552  0.8254977716162143  1.0000
  H   H10       1.0  0.1503086303767236  0.059316017310010696  0.16564062557064907  1.0000
  H   H11       1.0  0.06258924356261851  0.7762459725419152  0.1999446044110806  1.0000
  H   H12       1.0  0.06074614392190591  0.900756456983438  0.04900902784108907  1.0000
  H   H13       1.0  0.23928984621613125  0.7767423197124179  0.19331575522506128  1.0000
  H   H14       1.0  0.23491950740401954  0.9012425496045304  0.0424731210756657  1.0000
  C   C18       1.0  0.15857902391905612  0.4216795051789286  0.186079101090473  1.0000
  C   C19       1.0  0.14179623089721116  0.286756297802063  0.19537585267947755  1.0000
  C   C20       1.0  0.13346911623392144  0.2198110772077786  0.08303185605938457  1.0000
  C   C21       1.0  0.14179627405094752  0.28675637116671515  0.9602679536740578  1.0000
  C   C22       1.0  0.1585790214584677  0.42167943812330516  0.9485641201952424  1.0000
  C   C23       1.0  0.1668886266766807  0.4884833759599887  0.062122665444929615  1.0000
  Cl  Cl1       1.0  0.1125034238720306  0.0512599381056793  0.09614925013777786  1.0000
  H   H15       1.0  0.16490136874378014  0.47250274862592395  0.5098801143169487  1.0000
  H   H16       1.0  0.1351213353242222  0.23309418749671051  0.28959861760005845  1.0000
  H   H17       1.0  0.1351214027498624  0.2330941689603665  0.8743976515347938  1.0000
  H   H18       1.0  0.17983197709997745  0.5925402031645275  0.05402440655076445  1.0000
  H   H19       1.0  0.16490118513961205  0.4725027371301105  0.6168524838410097  1.0000
  Zn  Zn1       1.0  0.052852793222268435  0.42168094341999063  0.5673235133990517  1.0000
  Zn  Zn2       1.0  0.2642959988942044  0.42167740600947456  0.5673190785935884  1.0000
  C   C24       1.0  0.15857690187084206  0.4165043505339943  0.8044405173892504  1.0000
  C   C25       1.0  0.15857419918434387  0.4268556379346151  0.3302022012128867  1.0000
  C   C26       1.0  0.15857194788654527  0.6589379361772592  0.5620372194570966  1.0000
  C   C27       1.0  0.1585790810316734  0.18442049155367846  0.5726055690918801  1.0000
  O   O1        1.0  0.23881417461646026  0.42858578561743893  0.3785695498586694  1.0000
  O   O2        1.0  0.2388174270896677  0.4147705380420015  0.7560694295647787  1.0000
  O   O3        1.0  0.23881234498958936  0.6105387244581217  0.5603270508322327  1.0000
  O   O4        1.0  0.23881918456521523  0.2328176084953502  0.5743118312459954  1.0000
  O   O5        1.0  0.07832953539606913  0.6105407409367369  0.5603307607413286  1.0000
  O   O6        1.0  0.07833461747792558  0.41477411526090885  0.7560730695217198  1.0000
  O   O7        1.0  0.07833136506932736  0.4285893175677991  0.37857162895368135  1.0000
  O   O8        1.0  0.07833637501421653  0.23282113115430045  0.5743140076809117  1.0000
