data_image0
_chemical_formula_structural       NC10NC3NCH9C13OH12C12OCH12Zn2C4O8
_chemical_formula_sum              "N3 C44 H33 O10 Zn2"
_cell_length_a       19.437513618241372
_cell_length_b       10.29915010939255
_cell_length_c       10.299794127170987
_cell_angle_alpha    85.55695120171342
_cell_angle_beta     90.34079441948666
_cell_angle_gamma    89.50394211810362

_space_group_name_H-M_alt    "P 1"
_space_group_IT_number       1

loop_
  _space_group_symop_operation_xyz
  'x, y, z'

loop_
  _atom_site_type_symbol
  _atom_site_label
  _atom_site_symmetry_multiplicity
  _atom_site_fract_x
  _atom_site_fract_y
  _atom_site_fract_z
  _atom_site_occupancy
  N   N1        1.0  0.6476916612253114  0.41018034317238605  0.5753052343528191  1.0000
  C   C1        1.0  0.5887555119824337  0.42719096926412603  0.5723246688706773  1.0000
  C   C2        1.0  0.5153115242207444  0.4484441946988085  0.568624967467662  1.0000
  C   C3        1.0  0.47356644638975004  0.3472439435594072  0.556994121807602  1.0000
  C   C4        1.0  0.3976749295865586  0.35730780092005654  0.5497703317924523  1.0000
  C   C5        1.0  0.3580857148698859  0.4381774832537537  0.615487515800428  1.0000
  C   C6        1.0  0.2819051036335559  0.42956664490617164  0.607046176544016  1.0000
  C   C7        1.0  0.2487896804054303  0.3082139466518354  0.6117228009314275  1.0000
  C   C8        1.0  0.1770562027513263  0.3018400773201806  0.604556830368256  1.0000
  C   C9        1.0  0.1374675956599769  0.41634626792019186  0.5930765807754359  1.0000
  C   C10       1.0  0.0636197046599052  0.40963415521245045  0.5857426198387576  1.0000
  N   N2        1.0  0.0042510982178319  0.4042382068087341  0.5798465734674252  1.0000
  C   C11       1.0  0.1698664631131416  0.5373885390871158  0.5891452837490385  1.0000
  C   C12       1.0  0.24158430184299032  0.5440164325190866  0.5963732028428606  1.0000
  C   C13       1.0  0.3867527456985275  0.5304892342869483  0.7053778622932065  1.0000
  N   N3        1.0  0.44372766091899185  0.5937019725637049  0.6849571796865981  1.0000
  C   C14       1.0  0.4875712545374973  0.5844153915326598  0.5718574054951584  1.0000
  H   H1        1.0  0.49596625474596967  0.2521780205603068  0.5448996862454467  1.0000
  H   H2        1.0  0.3729728806788521  0.2877777079665953  0.4914740612205506  1.0000
  H   H3        1.0  0.27825469640407613  0.2182978631718644  0.6227679272208848  1.0000
  H   H4        1.0  0.15247811341065165  0.20760770748550805  0.608469800623707  1.0000
  H   H5        1.0  0.13971624572964  0.6266501693203765  0.5804123788016105  1.0000
  H   H6        1.0  0.2656808016152469  0.6386616290746767  0.5924446597021671  1.0000
  H   H7        1.0  0.35674520022189526  0.5508946669002035  0.7897349890458483  1.0000
  H   H8        1.0  0.5303122140281977  0.6547342748360205  0.5776011535035577  1.0000
  H   H9        1.0  0.4579005747113458  0.6125065209854017  0.4812082782029761  1.0000
  C   C15       1.0  0.8260395131425292  0.025808509407145182  0.5777209091160194  1.0000
  C   C16       1.0  0.8247638710512213  0.014064672919500204  0.7145085947749221  1.0000
  C   C17       1.0  0.8240572455094652  0.8909766206189078  0.7835984112663099  1.0000
  C   C18       1.0  0.8246312445435042  0.7788114346177967  0.7141435286222191  1.0000
  C   C19       1.0  0.8259098417433406  0.7885998403535558  0.5774422752808188  1.0000
  C   C20       1.0  0.8266083962674524  0.9125591140862749  0.51002986116724  1.0000
  C   C21       1.0  0.8227017675980404  0.8795347977124658  0.9282140788691103  1.0000
  C   C22       1.0  0.7803920297883716  0.7873790963407966  0.9956932263578998  1.0000
  C   C23       1.0  0.7790937325805415  0.7766941415899905  0.13177613472486327  1.0000
  C   C24       1.0  0.8205329587930258  0.856999823858483  0.20284571970795018  1.0000
  C   C25       1.0  0.8621844283095865  0.9501203136671834  0.13600072776740868  1.0000
  C   C26       1.0  0.8634986960112768  0.9609807992131333  0.9999177341121115  1.0000
  C   C27       1.0  0.8176912288653437  0.847896463085429  0.34888853985700063  1.0000
  O   O1        1.0  0.7662661780901785  0.9319403849534413  0.38847221466532866  1.0000
  H   H10       1.0  0.8280003650861547  0.2552758361879057  0.3195220493406923  1.0000
  H   H11       1.0  0.8233631365767251  0.10087520963188966  0.7674966983794038  1.0000
  H   H12       1.0  0.8250205637091405  0.6836961149489659  0.7669793775553271  1.0000
  H   H13       1.0  0.8275926697371729  0.9208254453347372  0.4045880692436114  1.0000
  H   H14       1.0  0.826355327537596  0.4648901082312353  0.524861589065517  1.0000
  H   H15       1.0  0.7474924781515725  0.7249053312227396  0.9431680910090345  1.0000
  H   H16       1.0  0.7456226518775739  0.705935290446399  0.18172288446495377  1.0000
  H   H17       1.0  0.8938166366090704  0.014168361716155209  0.18925589009153254  1.0000
  H   H18       1.0  0.8969927793088962  0.032184907596769945  0.9507778805416939  1.0000
  H   H19       1.0  0.8682963315534206  0.8748926303022249  0.3897010899105896  1.0000
  H   H20       1.0  0.8065081407204466  0.7460712645593219  0.38655680842859286  1.0000
  H   H21       1.0  0.7665151127904216  0.9222838528225549  0.4850972661698392  1.0000
  C   C28       1.0  0.8259979023524199  0.4070903261277596  0.19623048552898315  1.0000
  C   C29       1.0  0.7585886463107931  0.3590872068495168  0.1981964043482538  1.0000
  C   C30       1.0  0.7244129061419401  0.334866559332033  0.08204540465763777  1.0000
  C   C31       1.0  0.7585418338075542  0.3593144715027029  0.9628908342285173  1.0000
  C   C32       1.0  0.8259514749892614  0.4073180918302448  0.958932658295419  1.0000
  C   C33       1.0  0.8593027425147423  0.4309343268194012  0.0761174742184918  1.0000
  C   C34       1.0  0.6530997027384134  0.28407484989446097  0.08517995996990457  1.0000
  C   C35       1.0  0.6038382933396098  0.33356670557284196  0.9933865403008566  1.0000
  C   C36       1.0  0.5368149723761577  0.28574981416802303  0.9966019231803793  1.0000
  C   C37       1.0  0.5180787544294043  0.18812048779635954  0.09108555544246166  1.0000
  C   C38       1.0  0.5666616530553337  0.137235232997434  0.18373342560855943  1.0000
  C   C39       1.0  0.6337783884177258  0.18569016372430158  0.18006762451815939  1.0000
  O   O2        1.0  0.55048421773674  0.038924245623380926  0.28038483636693257  1.0000
  C   C40       1.0  0.4845461753399932  0.9807449308703374  0.2956037418713733  1.0000
  H   H22       1.0  0.8516928809622233  0.42532310510128046  0.5229390823637925  1.0000
  H   H23       1.0  0.7321597846355506  0.34209745713931405  0.29014314343844605  1.0000
  H   H24       1.0  0.7327547882308522  0.3391481637972733  0.873238345761714  1.0000
  H   H25       1.0  0.911306439768728  0.46796587030469095  0.07383246312693514  1.0000
  H   H26       1.0  0.8516235761572436  0.4256710562958469  0.6299668508209906  1.0000
  H   H27       1.0  0.616909555570483  0.4104210026962702  0.9202063294080052  1.0000
  H   H28       1.0  0.4991921720911088  0.324775207656421  0.9257709148419934  1.0000
  H   H29       1.0  0.4658169540789116  0.15295442424278693  0.09126145740280966  1.0000
  H   H30       1.0  0.6710982101013788  0.14491966291829406  0.25072164324974766  1.0000
  H   H31       1.0  0.470373858768752  0.9325215836757403  0.20658030086511922  1.0000
  H   H32       1.0  0.48632672591896386  0.9062336041861643  0.3793253592274537  1.0000
  H   H33       1.0  0.4453480063027494  0.055662330677396676  0.3153545808618068  1.0000
  Zn  Zn1       1.0  0.7505870182781477  0.4084620837106012  0.576623276601214  1.0000
  Zn  Zn2       1.0  0.9013557485389111  0.40594579901878886  0.5785392044910058  1.0000
  C   C41       1.0  0.8259595756944443  0.40210093886608544  0.8147675011350988  1.0000
  C   C42       1.0  0.8259848372261148  0.4123085551796877  0.3403951277408326  1.0000
  C   C43       1.0  0.8259311256801593  0.6444145943871633  0.5723199496978193  1.0000
  C   C44       1.0  0.826013236054622  0.16999334010536968  0.5828427483297787  1.0000
  O   O3        1.0  0.8831964008097315  0.4130992573784604  0.3895051853465661  1.0000
  O   O4        1.0  0.8831779900171287  0.3993994548933559  0.7671112149955304  1.0000
  O   O5        1.0  0.8831542448902178  0.5950708094770008  0.5713330915583443  1.0000
  O   O6        1.0  0.8832200944938384  0.21742791291537422  0.5852832107564632  1.0000
  O   O7        1.0  0.7687226208732523  0.5969799706741123  0.5698792696751129  1.0000
  O   O8        1.0  0.7687463657359731  0.40131017650380385  0.765657323299989  1.0000
  O   O9        1.0  0.7687647766771173  0.41500993326219215  0.38804973234040974  1.0000
  O   O10       1.0  0.7687884703540601  0.21933857953864375  0.5838278551169529  1.0000
