data_image0
_chemical_formula_structural       NC9NC5H8C8NH7C8H5Zn2C4O8
_chemical_formula_sum              "N3 C34 H20 Zn2 O8"
_cell_length_a       17.807436237873137
_cell_length_b       9.27426342843186
_cell_length_c       9.27514407655224
_cell_angle_alpha    85.91390011552684
_cell_angle_beta     89.86257050345318
_cell_angle_gamma    89.00683889979415

_space_group_name_H-M_alt    "P 1"
_space_group_IT_number       1

loop_
  _space_group_symop_operation_xyz
  'x, y, z'

loop_
  _atom_site_type_symbol
  _atom_site_label
  _atom_site_symmetry_multiplicity
  _atom_site_fract_x
  _atom_site_fract_y
  _atom_site_fract_z
  _atom_site_occupancy
  N   N1        1.0  0.7092998134320825  0.5301020858882757  0.3974262773233808  1.0000
  C   C1        1.0  0.6484415182751293  0.4909464306546111  0.3852228248229349  1.0000
  C   C2        1.0  0.5727404879709097  0.4422411074626001  0.3700430549008442  1.0000
  C   C3        1.0  0.553712766592287  0.36215893067663596  0.25357104178411816  1.0000
  C   C4        1.0  0.4802098988793372  0.3147453946882419  0.2387408584501236  1.0000
  C   C5        1.0  0.4246835308888502  0.34699460013861383  0.3403470074532445  1.0000
  C   C6        1.0  0.3465700301373719  0.29673443546992617  0.3246773498876988  1.0000
  C   C7        1.0  0.2850242768380506  0.38770707952268235  0.3533925953726471  1.0000
  C   C8        1.0  0.2113779037936608  0.34006820132646354  0.33857777596586436  1.0000
  C   C9        1.0  0.1488005259143008  0.434031929074052  0.36769450351375554  1.0000
  N   N2        1.0  0.0985012626049891  0.5095722735809742  0.39110355136925096  1.0000
  C   C10       1.0  0.19869201383864024  0.20117003965488123  0.2950198060970066  1.0000
  C   C11       1.0  0.25938027177051387  0.11018195181476333  0.26629526176046747  1.0000
  C   C12       1.0  0.3329038075163338  0.15738123275595028  0.2808856479732289  1.0000
  C   C13       1.0  0.4444067618974596  0.42762734082058107  0.45706188963481176  1.0000
  C   C14       1.0  0.5179605865522713  0.474828306049723  0.47171949592135115  1.0000
  H   H1        1.0  0.5956319510576096  0.3366555016007484  0.17400196593964012  1.0000
  H   H2        1.0  0.4665748514043155  0.2545182313360823  0.14676081909449978  1.0000
  H   H3        1.0  0.2942639271396514  0.49614397244550174  0.38535470766532276  1.0000
  H   H4        1.0  0.14196541761908177  0.16329859605502617  0.28329149085788297  1.0000
  H   H5        1.0  0.24944176501859247  0.002646675362209635  0.23300016796718895  1.0000
  H   H6        1.0  0.3790460152658668  0.08423824601352847  0.25980350540896957  1.0000
  H   H7        1.0  0.40320716034216797  0.4525419235013533  0.5380681182735187  1.0000
  H   H8        1.0  0.5321267092860165  0.5364029567406583  0.562542422236227  1.0000
  C   C15       1.0  0.9015289213044992  0.09638098252818894  0.39460978138632175  1.0000
  C   C16       1.0  0.891267680851729  0.17936442438135902  0.26304357526311156  1.0000
  C   C17       1.0  0.8883773448604284  0.11369631710239503  0.13255010193986227  1.0000
  C   C18       1.0  0.89628723372264  0.9634830686035021  0.13038518987892214  1.0000
  C   C19       1.0  0.9045292875021175  0.8790953784845796  0.2611006177809463  1.0000
  C   C20       1.0  0.9062793231264643  0.9432820653461617  0.39393247185216396  1.0000
  C   C21       1.0  0.8920510127740984  0.8927391253381285  0.9898153869679354  1.0000
  C   C22       1.0  0.8139962560920522  0.8576969135311083  0.9590479210958729  1.0000
  N   N3        1.0  0.7523893411585031  0.8300375612573231  0.9347733475419467  1.0000
  H   H9        1.0  0.9677361305707852  0.17347007542954104  0.7258547808655469  1.0000
  H   H10       1.0  0.8871062456590084  0.2961863900544442  0.26075039094896213  1.0000
  H   H11       1.0  0.8806687309722981  0.18033504997917138  0.03278363721784361  1.0000
  H   H12       1.0  0.9077639785916477  0.7624219655138604  0.25914940641212336  1.0000
  H   H13       1.0  0.9479399657427434  0.6451616171700149  0.618950393032303  1.0000
  H   H14       1.0  0.9267714763868433  0.7918312451146403  0.9948294989104701  1.0000
  H   H15       1.0  0.9138517859460475  0.9657773663477686  0.8997597887526103  1.0000
  C   C23       1.0  0.9021186160627472  0.5169740017536097  0.9710167129672218  1.0000
  C   C24       1.0  0.8536806733871303  0.6135996250152933  0.03771068230040164  1.0000
  C   C25       1.0  0.8113088811277138  0.7170520613454434  0.9553921518541527  1.0000
  C   C26       1.0  0.8166099738897465  0.7259900078533099  0.804869024951381  1.0000
  C   C27       1.0  0.8634882214601097  0.6293408768721509  0.7364446354803317  1.0000
  C   C28       1.0  0.9056896239924714  0.5226890405702846  0.8175255642348974  1.0000
  C   C29       1.0  0.7731696544591941  0.8334639582427827  0.7201951294544569  1.0000
  C   C30       1.0  0.7368015444910176  0.9234448265114928  0.6492870491239212  1.0000
  H   H16       1.0  0.05717996448865547  0.31944361253512366  0.08723588032857865  1.0000
  H   H17       1.0  0.8499105526244016  0.6113737141911926  0.1544437703196726  1.0000
  H   H18       1.0  0.7749189767897514  0.7910936939590745  0.009370610751871622  1.0000
  H   H19       1.0  0.8656748821809326  0.6352192942345631  0.6193202553747841  1.0000
  H   H20       1.0  0.7048778905115858  0.002428844107144282  0.5870429989214325  1.0000
  Zn  Zn1       1.0  0.8216149568382615  0.5241738340927349  0.39561001396628354  1.0000
  Zn  Zn2       1.0  0.9861860850552199  0.5154888509296155  0.3929316733442382  1.0000
  C   C31       1.0  0.9049807272969901  0.5158641970237869  0.6575218505758521  1.0000
  C   C32       1.0  0.902822122510467  0.523800213568409  0.13101994749812373  1.0000
  C   C33       1.0  0.9053532970108763  0.7831611250324491  0.38831698653844154  1.0000
  C   C34       1.0  0.9024494872462953  0.25650155654751283  0.4002248906781323  1.0000
  O   O1        1.0  0.9655120759024401  0.5227889557615926  0.18370208337790062  1.0000
  O   O2        1.0  0.9671964444528314  0.5102826629226831  0.602806502101265  1.0000
  O   O3        1.0  0.9674964636225826  0.7261283672691552  0.38542168222479123  1.0000
  O   O4        1.0  0.9652120001776807  0.30694326396458615  0.40108679609079917  1.0000
  O   O5        1.0  0.8425889855557283  0.7327194240230414  0.3874548921261258  1.0000
  O   O6        1.0  0.8422889757761903  0.51687545165408  0.604839633766406  1.0000
  O   O7        1.0  0.8406045996836761  0.5293816825408487  0.18573348219415586  1.0000
  O   O8        1.0  0.8403045243538526  0.3135359811596532  0.4031183029770339  1.0000
