data_image0
_chemical_formula_structural       NC9NC3NH7C8NH7C12H10Zn2C4O8
_chemical_formula_sum              "N4 C36 H24 Zn2 O8"
_cell_length_a       16.053384444249904
_cell_length_b       9.274263428431858
_cell_length_c       10.299141136925904
_cell_angle_alpha    85.50362818377448
_cell_angle_beta     89.82059794555093
_cell_angle_gamma    89.79185309571561

_space_group_name_H-M_alt    "P 1"
_space_group_IT_number       1

loop_
  _space_group_symop_operation_xyz
  'x, y, z'

loop_
  _atom_site_type_symbol
  _atom_site_label
  _atom_site_symmetry_multiplicity
  _atom_site_fract_x
  _atom_site_fract_y
  _atom_site_fract_z
  _atom_site_occupancy
  N   N1        1.0  0.7938017888794267  0.5595802019076777  0.5634336683566747  1.0000
  C   C1        1.0  0.7428882936652608  0.5364919749233832  0.4885986630148509  1.0000
  C   C2        1.0  0.6796167751869395  0.5078045959639554  0.39563534750459245  1.0000
  C   C3        1.0  0.693124975898887  0.4944339838905252  0.26490657959574193  1.0000
  C   C4        1.0  0.6163156119235519  0.46632451474273395  0.2126697244150697  1.0000
  C   C5        1.0  0.5592265221249583  0.46411023981781546  0.3143462858461936  1.0000
  C   C6        1.0  0.4684075417095998  0.4376594648313806  0.30411659556063064  1.0000
  C   C7        1.0  0.4128250421115258  0.4850626255829205  0.3979954665224883  1.0000
  C   C8        1.0  0.3271185327702072  0.4599765623866024  0.38819719209417225  1.0000
  C   C9        1.0  0.2707684803922675  0.5093166579279953  0.4844467724331092  1.0000
  N   N2        1.0  0.2254796549778662  0.5489791374604185  0.5618163614489609  1.0000
  C   C10       1.0  0.2962677223165578  0.3873629737602898  0.2845338393452821  1.0000
  C   C11       1.0  0.3508425376825746  0.3400925786816203  0.19086655680382703  1.0000
  C   C12       1.0  0.4363418588495613  0.36499472745287154  0.20026835618108674  1.0000
  N   N3        1.0  0.5985956639201471  0.4895854865169558  0.4258882037220184  1.0000
  H   H1        1.0  0.751908970388213  0.5040399150183357  0.21328249684755818  1.0000
  H   H2        1.0  0.6039402896070899  0.45106134618378896  0.11150101283867064  1.0000
  H   H3        1.0  0.4355207725092278  0.5432933767664958  0.47775814317072895  1.0000
  H   H4        1.0  0.2301197027780516  0.36741335252938523  0.27611417819417006  1.0000
  H   H5        1.0  0.3268677656770748  0.28368510620969195  0.11086881738812182  1.0000
  H   H6        1.0  0.4772018985776587  0.32565674515191967  0.127044036768309  1.0000
  H   H7        1.0  0.5724662168039504  0.49218513202608505  0.5186488301840368  1.0000
  C   C13       1.0  0.007008906361735123  0.1307607828459996  0.5629108667359353  1.0000
  C   C14       1.0  0.9962148786115868  0.21442496180587495  0.4442553794643396  1.0000
  C   C15       1.0  0.9935908817451409  0.14961709589381478  0.32664374382661565  1.0000
  C   C16       1.0  0.0023731106254010212  0.9996202031393734  0.3247759605479241  1.0000
  C   C17       1.0  0.010931520901005019  0.9145065870308985  0.44264368708539004  1.0000
  C   C18       1.0  0.012280429083748821  0.9777873449640714  0.5623503711853215  1.0000
  C   C19       1.0  0.9983013473568217  0.9297744163222054  0.1980709251572144  1.0000
  C   C20       1.0  0.9118706749746728  0.8929701862362592  0.16952965965585798  1.0000
  N   N4        1.0  0.8436527902801267  0.8639200433333645  0.14701123590768495  1.0000
  H   H8        1.0  0.07896073361462586  0.20716121145524036  0.8620736710642466  1.0000
  H   H9        1.0  0.9916097968052121  0.33115765754821314  0.4421454808491334  1.0000
  H   H10       1.0  0.9854861599504264  0.21677387106665094  0.23666821827880427  1.0000
  H   H11       1.0  0.014527699411005067  0.7979292772372255  0.4409194522332596  1.0000
  H   H12       1.0  0.05748194454689015  0.6791149095824246  0.7655398037534111  1.0000
  H   H13       1.0  0.036786249941744176  0.8297123653017703  0.20295284904810718  1.0000
  H   H14       1.0  0.022881173670440624  0.004010593136557719  0.11715471703532376  1.0000
  C   C21       1.0  0.009550753765714456  0.5543994515474056  0.1812378837872679  1.0000
  C   C22       1.0  0.09665225543210765  0.5677951905256055  0.1790863816575259  1.0000
  C   C23       1.0  0.1409128814042595  0.5744585085662646  0.060861485372953  1.0000
  C   C24       1.0  0.09689466093167143  0.5675453176802656  0.9438199245640555  1.0000
  C   C25       1.0  0.00973860093289902  0.5541486264286227  0.9440233654916184  1.0000
  C   C26       1.0  0.9666032900741228  0.5476558052130092  0.06317615243579455  1.0000
  C   C27       1.0  0.23305751769214234  0.5886316693689153  0.05963017501389812  1.0000
  C   C28       1.0  0.2821384285856714  0.5085494139754858  0.9772732537118604  1.0000
  C   C29       1.0  0.36886412012560044  0.5220694744357175  0.9763521201043576  1.0000
  C   C30       1.0  0.40750843781718804  0.615460406293058  0.057305211500130016  1.0000
  C   C31       1.0  0.35950526250465775  0.6955257630538116  0.1394134080197693  1.0000
  C   C32       1.0  0.27275999424598485  0.6823678291729234  0.1408042005312471  1.0000
  H   H15       1.0  0.9760419073585215  0.5493200999034318  0.5095360871713219  1.0000
  H   H16       1.0  0.13038294591615873  0.5710845242035161  0.2697097663053225  1.0000
  H   H17       1.0  0.13058435800078705  0.5746165916243284  0.8522628270167748  1.0000
  H   H18       1.0  0.8994197155894815  0.5373273780777448  0.06411973908760671  1.0000
  H   H19       1.0  0.845187660566976  0.5297793062270775  0.7370516499594841  1.0000
  H   H20       1.0  0.2535533002711787  0.4341713254495519  0.9149169093943361  1.0000
  H   H21       1.0  0.4061485186824283  0.45977690139712324  0.9130229936997152  1.0000
  H   H22       1.0  0.4746473960613933  0.6257855003330035  0.056410587680907565  1.0000
  H   H23       1.0  0.38951035406552403  0.7681664299612971  0.20184573003202536  1.0000
  H   H24       1.0  0.23669026393351822  0.746802144444802  0.20402326478894595  1.0000
  Zn  Zn1       1.0  0.9183746719179158  0.5565171149145189  0.5629744443700504  1.0000
  Zn  Zn2       1.0  0.10090667796790953  0.5520304711888323  0.5622862081217002  1.0000
  C   C33       1.0  0.00966545672027941  0.5484506009272596  0.7998443606330677  1.0000
  C   C34       1.0  0.009617897765919366  0.5600987558642596  0.3254164106133833  1.0000
  C   C35       1.0  0.011278432651046218  0.8176830658425678  0.5572808228931281  1.0000
  C   C36       1.0  0.008004848782912077  0.2908645597058701  0.5679800189777593  1.0000
  O   O1        1.0  0.07891033776998091  0.5603025446112887  0.37354286339750553  1.0000
  O   O2        1.0  0.07891057894172882  0.5448404655252508  0.751195179311754  1.0000
  O   O3        1.0  0.08021214394522369  0.7622491083621821  0.5553234089380397  1.0000
  O   O4        1.0  0.07760871052090734  0.3428939136543676  0.5694145366184933  1.0000
  O   O5        1.0  0.941672577075711  0.7656536739816275  0.5558461161012855  1.0000
  O   O6        1.0  0.9403710228352493  0.5482467639204209  0.751717816078592  1.0000
  O   O7        1.0  0.9403707810216275  0.5637087932607772  0.37406393869921883  1.0000
  O   O8        1.0  0.9390691537289255  0.34630015195648967  0.5699357093009623  1.0000
