data_image0
_chemical_formula_structural       NC8NC6H8C12SCH10C13OH11Zn2C4O8
_chemical_formula_sum              "N2 C44 H29 S1 O9 Zn2"
_cell_length_a       17.457602349358154
_cell_length_b       10.299776766347527
_cell_length_c       10.299153481560891
_cell_angle_alpha    85.58387196387294
_cell_angle_beta     92.89209155736368
_cell_angle_gamma    91.66964631390691

_space_group_name_H-M_alt    "P 1"
_space_group_IT_number       1

loop_
  _space_group_symop_operation_xyz
  'x, y, z'

loop_
  _atom_site_type_symbol
  _atom_site_label
  _atom_site_symmetry_multiplicity
  _atom_site_fract_x
  _atom_site_fract_y
  _atom_site_fract_z
  _atom_site_occupancy
  N   N1        1.0  0.7219121545571298  0.4522588871841762  0.6264769164223527  1.0000
  C   C1        1.0  0.6608410996796055  0.4063306206386892  0.6158607738266909  1.0000
  C   C2        1.0  0.584866124943004  0.34920157503830773  0.6026638346525324  1.0000
  C   C3        1.0  0.5263428144854858  0.38939181672630707  0.6775634982159472  1.0000
  C   C4        1.0  0.4518056268068823  0.33438122344676446  0.6649810194743808  1.0000
  C   C5        1.0  0.38969175826596586  0.37681629295352453  0.744302603437752  1.0000
  C   C6        1.0  0.3151319594660587  0.3952623900250993  0.6885377805987152  1.0000
  C   C7        1.0  0.2566086997014221  0.43526875300635437  0.7635453998815284  1.0000
  C   C8        1.0  0.18061024798898082  0.45431982007018906  0.7055650634726142  1.0000
  N   N2        1.0  0.1195204105557546  0.4696304985059912  0.6589490240296401  1.0000
  C   C9        1.0  0.27215311774487916  0.45707235383771594  0.8948263729785185  1.0000
  C   C10       1.0  0.3459282056940719  0.43901538596703343  0.9509788048224946  1.0000
  C   C11       1.0  0.4044399054439688  0.39918925236123304  0.8764289187581827  1.0000
  C   C12       1.0  0.4370802764212001  0.2385024237696196  0.5760659198110077  1.0000
  C   C13       1.0  0.4955918849589735  0.19859101212171115  0.50156627038458  1.0000
  C   C14       1.0  0.569344380652025  0.25371419384972715  0.5146987128776798  1.0000
  H   H1        1.0  0.538684099507075  0.4646104499502017  0.7441961098362853  1.0000
  H   H2        1.0  0.30277217599173445  0.38025248693404684  0.5865107320527516  1.0000
  H   H3        1.0  0.2272964500401694  0.4879774384043867  0.9536637660061208  1.0000
  H   H4        1.0  0.35777391819486754  0.4555827655456297  0.05263258893630784  1.0000
  H   H5        1.0  0.4609363273444431  0.38421587591737677  0.9225364578463424  1.0000
  H   H6        1.0  0.38060238147416925  0.1931637969636179  0.5654136614438112  1.0000
  H   H7        1.0  0.4837639909680251  0.12448834380376739  0.43373531177390556  1.0000
  H   H8        1.0  0.6142013455255404  0.22193963268164849  0.4563724544547807  1.0000
  C   C15       1.0  0.9207922880444203  0.07958285990348268  0.6427175834558441  1.0000
  C   C16       1.0  0.9254261086375573  0.06827554229557499  0.7796104110790759  1.0000
  C   C17       1.0  0.9277002371817391  0.945404188311857  0.84897442258558  1.0000
  C   C18       1.0  0.9252794095277255  0.8329813623844442  0.7796136207534257  1.0000
  C   C19       1.0  0.920647637842983  0.8422968217134447  0.6427202110768442  1.0000
  C   C20       1.0  0.9184295729905674  0.9660378237676616  0.5750384482468796  1.0000
  C   C21       1.0  0.9325938416282  0.9345058588531869  0.9937908979692107  1.0000
  C   C22       1.0  0.8886975936372882  0.8391557972615912  0.06424891132713839  1.0000
  C   C23       1.0  0.8933260892447265  0.8291346551140548  0.20053671282181185  1.0000
  C   C24       1.0  0.9416598578604721  0.9141773506225067  0.2681575831629305  1.0000
  C   C25       1.0  0.9857394294973341  0.008962157861085679  0.1990876114044121  1.0000
  C   C26       1.0  0.9812234308521595  0.019338099818785988  0.0627985823376419  1.0000
  S   S1        1.0  0.9476834582273719  0.9008620052139817  0.44304049258702405  1.0000
  C   C27       1.0  0.8705920158723192  0.013563125813846002  0.4562733282850686  1.0000
  H   H9        1.0  0.926219446093212  0.15516145441852827  0.8326337254275658  1.0000
  H   H10       1.0  0.9280731429196141  0.7381097898312997  0.8326041675455215  1.0000
  H   H11       1.0  0.9148553019852232  0.9739924731505898  0.46943149523669553  1.0000
  H   H12       1.0  0.8500682948203268  0.7734860519103371  0.01397981147836091  1.0000
  H   H13       1.0  0.8590343975896232  0.7555953953080815  0.2534578575679045  1.0000
  H   H14       1.0  0.023552463147946234  0.07465272150562363  0.2508789883071848  1.0000
  H   H15       1.0  0.0164836781777007  0.09255126372449007  0.011369586010539614  1.0000
  H   H16       1.0  0.8859421362766144  0.1105448555518851  0.4086491160547657  1.0000
  H   H17       1.0  0.86172018723752  0.023895025734353977  0.5608284375561232  1.0000
  H   H18       1.0  0.816598615323226  0.9756555887017344  0.4097415220163963  1.0000
  C   C28       1.0  0.9206540876022322  0.46078953595114186  0.26134095291995796  1.0000
  C   C29       1.0  0.8413383635049024  0.4329442851744878  0.255534370503832  1.0000
  C   C30       1.0  0.801262751678729  0.41899500089455577  0.13543411899400692  1.0000
  C   C31       1.0  0.8415193134920471  0.433269486120349  0.02024118682723363  1.0000
  C   C32       1.0  0.9207858296833079  0.4610901530530198  0.02409680270345248  1.0000
  C   C33       1.0  0.9598903759438641  0.4746841252926975  0.14514235392068575  1.0000
  C   C34       1.0  0.7174064682418112  0.3895687948810287  0.13026820217481938  1.0000
  C   C35       1.0  0.668871535510433  0.45268428808178407  0.03363802758373269  1.0000
  C   C36       1.0  0.5899578142523623  0.4250364331656295  0.028854549903125408  1.0000
  C   C37       1.0  0.5582509624391482  0.33293998699014726  0.1197233882655546  1.0000
  C   C38       1.0  0.6062710028648544  0.27089826492991653  0.21723006334159975  1.0000
  C   C39       1.0  0.6851883693398158  0.29851663206817447  0.22219198782159255  1.0000
  C   C40       1.0  0.47323471549215057  0.30593920715668954  0.11669619460175928  1.0000
  O   O1        1.0  0.43875868999425144  0.3920199616779072  0.19338941832021628  1.0000
  H   H19       1.0  0.07026871880868457  0.5141741824033697  0.4795215682317282  1.0000
  H   H20       1.0  0.8104087788553229  0.42382935201144867  0.3444838291944183  1.0000
  H   H21       1.0  0.8110817137224954  0.4208875232631524  0.9275760635304091  1.0000
  H   H22       1.0  0.021030595949955502  0.49614666557292436  0.1488320926494986  1.0000
  H   H23       1.0  0.6917918446444384  0.5249410425977481  0.9629535767757685  1.0000
  H   H24       1.0  0.5535469393698358  0.47572532284140867  0.9544010791818345  1.0000
  H   H25       1.0  0.5826428287653715  0.2008169538202751  0.289296625982161  1.0000
  H   H26       1.0  0.7211381911278388  0.24760710102096217  0.2971310146699901  1.0000
  H   H27       1.0  0.4610774022276012  0.20362184574975786  0.15452028812145913  1.0000
  H   H28       1.0  0.4489481110679481  0.318243242374872  0.014582133395707467  1.0000
  H   H29       1.0  0.3829906597944114  0.37023007519173934  0.1881311741662461  1.0000
  Zn  Zn1       1.0  0.8366533104151537  0.45726847928043335  0.6358551638756222  1.0000
  Zn  Zn2       1.0  0.004779244303748429  0.4646102629741549  0.649581409318892  1.0000
  C   C41       1.0  0.9207601827497948  0.45585966984860693  0.8799194685513249  1.0000
  C   C42       1.0  0.9206742076102752  0.46602079121803586  0.40551738200842014  1.0000
  C   C43       1.0  0.9206701165369935  0.6981254404386218  0.6375440781037627  1.0000
  C   C44       1.0  0.9207642167613647  0.22375345787588352  0.6478928370071164  1.0000
  O   O2        1.0  0.9844838768585131  0.47055695128512903  0.4591133472699067  1.0000
  O   O3        1.0  0.9845542072749697  0.456894773875719  0.8367410321193629  1.0000
  O   O4        1.0  0.9844806178084795  0.6525274104693328  0.6410211192701163  1.0000
  O   O5        1.0  0.9845574089364316  0.2749243214379373  0.6548331580583766  1.0000
  O   O6        1.0  0.856875088409339  0.6469544183126719  0.6306034104452124  1.0000
  O   O7        1.0  0.8569486775644097  0.45132334196721535  0.8263232540524  1.0000
  O   O8        1.0  0.8568783469379087  0.464985473508321  0.4486940077693506  1.0000
  O   O9        1.0  0.8569518790312679  0.26935283441072766  0.6444139159276723  1.0000
