data_image0
_chemical_formula_structural       NC8NC6H8C7OC4NC3H8C6NCOC6H11Zn2C4O8
_chemical_formula_sum              "N4 C45 H27 O10 Zn2"
_cell_length_a       17.457602349358154
_cell_length_b       10.299371701877257
_cell_length_c       10.299662537453274
_cell_angle_alpha    85.55951811676591
_cell_angle_beta     92.86302956752768
_cell_angle_gamma    91.69730494660953

_space_group_name_H-M_alt    "P 1"
_space_group_IT_number       1

loop_
  _space_group_symop_operation_xyz
  'x, y, z'

loop_
  _atom_site_type_symbol
  _atom_site_label
  _atom_site_symmetry_multiplicity
  _atom_site_fract_x
  _atom_site_fract_y
  _atom_site_fract_z
  _atom_site_occupancy
  N   N1        1.0  0.722767989375617  0.45335331317078004  0.6270123555088631  1.0000
  C   C1        1.0  0.6616866971083535  0.4074319835776849  0.6163801818568839  1.0000
  C   C2        1.0  0.5856989857741572  0.35031156036377625  0.6031633019072635  1.0000
  C   C3        1.0  0.5271642074095294  0.390445301087454  0.6780758983619555  1.0000
  C   C4        1.0  0.4526147164850834  0.33544291430788453  0.6654742161979521  1.0000
  C   C5        1.0  0.3904886652767491  0.37781814374428496  0.7448094514399038  1.0000
  C   C6        1.0  0.31595166678015885  0.396307595395464  0.6890520692843332  1.0000
  C   C7        1.0  0.2574168512797064  0.43625736953599575  0.7640725547645297  1.0000
  C   C8        1.0  0.18144206800857737  0.45535351023345955  0.7060999095228904  1.0000
  N   N2        1.0  0.12037125807407753  0.47070042758472325  0.6594900515245354  1.0000
  C   C9        1.0  0.2729268267135018  0.45796064254737817  0.8953590307596659  1.0000
  C   C10       1.0  0.3466791084246753  0.4398600325260784  0.9515041527746027  1.0000
  C   C11       1.0  0.40520227454726915  0.40009014072625915  0.8769414564749601  1.0000
  C   C12       1.0  0.4378887769766967  0.2396299054759774  0.576526764886826  1.0000
  C   C13       1.0  0.4964118111017366  0.1997746947489145  0.5020142742913851  1.0000
  C   C14       1.0  0.5701764720186526  0.2548892502483677  0.5151659507584352  1.0000
  H   H1        1.0  0.539506926852005  0.465614720598247  0.7447339425638748  1.0000
  H   H2        1.0  0.30361922150431875  0.38137571516172714  0.5870214269823948  1.0000
  H   H3        1.0  0.2280609539217708  0.48882132506500375  0.9542063480593127  1.0000
  H   H4        1.0  0.3584980581762606  0.4563497176315541  0.05316208651627107  1.0000
  H   H5        1.0  0.4616799267178987  0.38508092520570303  0.9230429416431036  1.0000
  H   H6        1.0  0.3814008297463182  0.19429825908497023  0.565858684152732  1.0000
  H   H7        1.0  0.4845831848268094  0.12572219096616122  0.43415829693407537  1.0000
  H   H8        1.0  0.6150422264720037  0.2231586750936989  0.45682945268812936  1.0000
  C   C15       1.0  0.9215331785821225  0.08065487803733153  0.6431212323865051  1.0000
  C   C16       1.0  0.925279831086671  0.09021067836439546  0.5067627584489273  1.0000
  C   C17       1.0  0.9262984036965608  0.9778234635044882  0.43785376818051036  1.0000
  C   C18       1.0  0.9252892772997896  0.8549426552622783  0.5070809250428749  1.0000
  C   C19       1.0  0.9216134002220898  0.8433891361796724  0.6433929965010485  1.0000
  C   C20       1.0  0.9195547694320451  0.9568392754884515  0.7105921312361048  1.0000
  C   C21       1.0  0.9310603349994684  0.9878051026792929  0.2939931533618987  1.0000
  O   O1        1.0  0.9679931408976976  0.9036903110227824  0.2420642447249319  1.0000
  C   C22       1.0  0.8939113835152633  0.0931284388563016  0.2090467331651551  1.0000
  C   C23       1.0  0.926786048961433  0.1392521823392756  0.0917621182942372  1.0000
  C   C24       1.0  0.8916600649907831  0.2376525437777279  0.010102336548297066  1.0000
  C   C25       1.0  0.9260234076557542  0.28502611102907927  0.8907531792287795  1.0000
  N   N3        1.0  0.9536500034372795  0.323104756150417  0.7948140459133635  1.0000
  C   C26       1.0  0.8230867736517193  0.28982405847166226  0.04467274791076625  1.0000
  C   C27       1.0  0.7895647072946417  0.24346209743606018  0.1601649356941408  1.0000
  C   C28       1.0  0.8244704133658137  0.14534960419309262  0.2417953267518573  1.0000
  H   H9        1.0  0.9282695487290137  0.18528475820991308  0.45412049185344694  1.0000
  H   H10       1.0  0.9266431165659907  0.7681841539961247  0.45417939793001105  1.0000
  H   H11       1.0  0.9166667938361873  0.9486685782359139  0.8157148302260026  1.0000
  H   H12       1.0  0.9208470238258292  0.5115185429291198  0.6958555206991661  1.0000
  H   H13       1.0  0.9799952688015646  0.09949439247120907  0.06453164008501955  1.0000
  H   H14       1.0  0.795438051270445  0.36585667554334367  0.9821749765676832  1.0000
  H   H15       1.0  0.7362246477801938  0.2832307982152784  0.1862317234570019  1.0000
  H   H16       1.0  0.7967405322638657  0.1093959495462309  0.32968633155991944  1.0000
  C   C29       1.0  0.921626115461435  0.462164849037461  0.26188549832581653  1.0000
  C   C30       1.0  0.9999462623828036  0.49795651947744163  0.2644802475365815  1.0000
  C   C31       1.0  0.03962583209680193  0.51411280816022  0.14912177156247353  1.0000
  C   C32       1.0  0.9998119831974288  0.4976405871315858  0.029325874731003232  1.0000
  C   C33       1.0  0.9215204838396239  0.4618791709125163  0.02462872854063058  1.0000
  C   C34       1.0  0.8829350285689151  0.44390152329700355  0.14151828928616483  1.0000
  N   N4        1.0  0.11952021290639993  0.552684175348557  0.15517646154607334  1.0000
  C   C35       1.0  0.17381421494360016  0.5152028609994657  0.06538453502553332  1.0000
  O   O2        1.0  0.1598108816884436  0.4160335089034944  0.0026549036595660035  1.0000
  C   C36       1.0  0.2474813103090081  0.5887457355329608  0.04907595213554572  1.0000
  C   C37       1.0  0.25675046323083917  0.7172206378009847  0.08623143577082559  1.0000
  C   C38       1.0  0.32635748982389007  0.7858131956512654  0.06974939616129294  1.0000
  C   C39       1.0  0.3872533053029229  0.7274428917997717  0.015727535683922156  1.0000
  C   C40       1.0  0.3786068471501751  0.6004415431875556  0.9776174510580304  1.0000
  C   C41       1.0  0.3091305821884342  0.5313976573314516  0.9937809333700858  1.0000
  H   H17       1.0  0.7737114348981055  0.3958482234670244  0.46414733196163066  1.0000
  H   H18       1.0  0.03068592845676399  0.5125168615791458  0.3564161483646151  1.0000
  H   H19       1.0  0.029528990990762564  0.5149010676133225  0.9396456192488309  1.0000
  H   H20       1.0  0.8225614462543882  0.4162933333627219  0.13865410998884253  1.0000
  H   H21       1.0  0.8912403426095193  0.44983101562382766  0.6952280318347661  1.0000
  H   H22       1.0  0.14046321937205716  0.6008018175531897  0.23582616795619546  1.0000
  H   H23       1.0  0.2101395037304977  0.7657223684123529  0.12621550590620711  1.0000
  H   H24       1.0  0.332967673535132  0.884581338706993  0.09843943817738497  1.0000
  H   H25       1.0  0.44105331995351493  0.780768375691486  0.0030223290525741584  1.0000
  H   H26       1.0  0.4257852539269784  0.5553818872120355  0.935483939660692  1.0000
  H   H27       1.0  0.3038350581982945  0.43290949325344297  0.9638233176068084  1.0000
  Zn  Zn1       1.0  0.8375077026459704  0.4583558301321346  0.6363922143028931  1.0000
  Zn  Zn2       1.0  0.005631527961106105  0.46568725873154526  0.6501208215394012  1.0000
  C   C42       1.0  0.9215381751060089  0.4567593843811131  0.8804519472364001  1.0000
  C   C43       1.0  0.9216028915626963  0.467285423127199  0.4060613665730717  1.0000
  C   C44       1.0  0.9215950025754969  0.6992179072540361  0.6381660998255336  1.0000
  C   C45       1.0  0.9215460065506029  0.22482533741090527  0.6483472779824917  1.0000
  O   O3        1.0  0.9853972123366512  0.4717805077249648  0.459658037899922  1.0000
  O   O4        1.0  0.9853459475744721  0.4578277048618413  0.8372745969459401  1.0000
  O   O5        1.0  0.9853909762046751  0.653615990376589  0.6416269911968127  1.0000
  O   O6        1.0  0.9853521263516405  0.275992229035267  0.6553055415923577  1.0000
  O   O7        1.0  0.8577870468830266  0.6480508573279731  0.6312074895582062  1.0000
  O   O8        1.0  0.8577420184230191  0.45226413215615535  0.8268550266170496  1.0000
  O   O9        1.0  0.85779328344775  0.4662168903499406  0.44923690614731804  1.0000
  O   O10       1.0  0.8577481974451376  0.27042860233475197  0.6448845072047154  1.0000
