data_image0
_chemical_formula_structural       NC9NC5H8C13OH12C12IH9Zn2C4O8
_chemical_formula_sum              "N2 C43 H29 O9 I1 Zn2"
_cell_length_a       17.807436237873137
_cell_length_b       10.299150109392551
_cell_length_c       10.29977335064465
_cell_angle_alpha    85.52407015278276
_cell_angle_beta     89.4010069247268
_cell_angle_gamma    88.37145022261349

_space_group_name_H-M_alt    "P 1"
_space_group_IT_number       1

loop_
  _space_group_symop_operation_xyz
  'x, y, z'

loop_
  _atom_site_type_symbol
  _atom_site_label
  _atom_site_symmetry_multiplicity
  _atom_site_fract_x
  _atom_site_fract_y
  _atom_site_fract_z
  _atom_site_occupancy
  N   N1        1.0  0.7070185810248888  0.3882943042145907  0.5566288084291167  1.0000
  C   C1        1.0  0.6464365636965033  0.3531046728189613  0.5456175499557374  1.0000
  C   C2        1.0  0.5710791926639519  0.3093326466526549  0.531920739984983  1.0000
  C   C3        1.0  0.5529912523040621  0.2379416606500018  0.42694351827177146  1.0000
  C   C4        1.0  0.4798231462610448  0.19533091418691173  0.4135622100269159  1.0000
  C   C5        1.0  0.4236943292270221  0.2237336002887431  0.5051258077295184  1.0000
  C   C6        1.0  0.3459354802244036  0.17856425401854836  0.4909869755258381  1.0000
  C   C7        1.0  0.2837463510189179  0.2603201059171334  0.5168964772500371  1.0000
  C   C8        1.0  0.21043597913597203  0.2175062995747128  0.5035289232299318  1.0000
  C   C9        1.0  0.1471962938693663  0.30195363473480796  0.5298013592753589  1.0000
  N   N2        1.0  0.09636457622615457  0.3698434494837825  0.5509236734710614  1.0000
  C   C10       1.0  0.1987312371963857  0.09267864604582508  0.46422661058476966  1.0000
  C   C11       1.0  0.2600629983716038  0.010908943058314025  0.4383087241423764  1.0000
  C   C12       1.0  0.33325399269821443  0.053328232243194926  0.45147388163761826  1.0000
  C   C13       1.0  0.4424736026322322  0.29561893273548434  0.6103220812969405  1.0000
  C   C14       1.0  0.5156946008788891  0.3380393130673771  0.6235478071850782  1.0000
  H   H1        1.0  0.5953836595202173  0.21547518591046777  0.3552387944295013  1.0000
  H   H2        1.0  0.46691283403631423  0.1416678913024736  0.33066100771645185  1.0000
  H   H3        1.0  0.2922283924367278  0.35778518973353224  0.5457384393107794  1.0000
  H   H4        1.0  0.14227155088016677  0.05864267572857895  0.45364397655042926  1.0000
  H   H5        1.0  0.2508823477793879  0.9142643774531412  0.40826605439751784  1.0000
  H   H6        1.0  0.37990527057418727  0.9875829418364761  0.43244914286295666  1.0000
  H   H7        1.0  0.4007982967786865  0.3175459368820912  0.6833214987903675  1.0000
  H   H8        1.0  0.5291329385005913  0.3929233295535439  0.7054069422325788  1.0000
  C   C15       1.0  0.9017659877191135  0.9976656787567915  0.5539192980513737  1.0000
  C   C16       1.0  0.9003950006442061  0.985886785410421  0.6907497211603784  1.0000
  C   C17       1.0  0.8996344876913603  0.8627832119180953  0.7598629145816536  1.0000
  C   C18       1.0  0.9002501204843237  0.7506384118294247  0.690388450154915  1.0000
  C   C19       1.0  0.9016243482615071  0.7604617203536366  0.553644378281488  1.0000
  C   C20       1.0  0.9023763172427207  0.884435819803314  0.486208893719805  1.0000
  C   C21       1.0  0.8981775800450343  0.8513045656536867  0.9045239617836486  1.0000
  C   C22       1.0  0.8519882710197273  0.7605934725832434  0.9732219889871345  1.0000
  C   C23       1.0  0.850592432581328  0.7498746667314401  0.10934825453958541  1.0000
  C   C24       1.0  0.8958534195639477  0.8286854469162346  0.17923013302951532  1.0000
  C   C25       1.0  0.9413240339890272  0.920384046610498  0.11118520661764009  1.0000
  C   C26       1.0  0.9427373114018653  0.9312778231572133  0.9750583968191097  1.0000
  C   C27       1.0  0.8927738273651232  0.8195965591027301  0.32536110754028374  1.0000
  O   O1        1.0  0.836626571645384  0.9054210738434421  0.3664243748361793  1.0000
  H   H9        1.0  0.9038657066469984  0.227214857803731  0.2956526142894542  1.0000
  H   H10       1.0  0.8988739712131085  0.07271553951644384  0.7437804332086799  1.0000
  H   H11       1.0  0.9006837165170485  0.6554786139355229  0.7432154588877935  1.0000
  H   H12       1.0  0.9034341744242632  0.892729140913842  0.3807341305267502  1.0000
  H   H13       1.0  0.902102358836246  0.4367670376048734  0.5010485532989993  1.0000
  H   H14       1.0  0.8160551615287427  0.6993042701226851  0.9216399742966005  1.0000
  H   H15       1.0  0.8140516857569344  0.6802606443387613  0.16025910294039447  1.0000
  H   H16       1.0  0.9758733844896375  0.9832915569914248  0.16353370115322396  1.0000
  H   H17       1.0  0.9793033054060996  0.0013358252709294598  0.9249538194048246  1.0000
  H   H18       1.0  0.9480386419132689  0.8447939910368699  0.3647212010873959  1.0000
  H   H19       1.0  0.8805684939000319  0.7181416220256622  0.36335242532254275  1.0000
  H   H20       1.0  0.8369139018336477  0.8956994417230325  0.4630465663485232  1.0000
  C   C28       1.0  0.9016593314277738  0.3791715077045317  0.17241311768981804  1.0000
  C   C29       1.0  0.9697483319286219  0.44495390727797646  0.165053132462343  1.0000
  C   C30       1.0  0.004285704957791569  0.4781768150113157  0.04419324372247126  1.0000
  C   C31       1.0  0.9698206371537809  0.4447363069566841  0.9297825373846664  1.0000
  C   C32       1.0  0.9017310071072057  0.3789559423253053  0.9351505729068657  1.0000
  C   C33       1.0  0.8680319192419784  0.34654081473897813  0.05692830930251304  1.0000
  C   C34       1.0  0.07631789260940658  0.5477667987146129  0.03746101634319743  1.0000
  C   C35       1.0  0.08811672643574475  0.6502350958026704  0.11706133362344806  1.0000
  C   C36       1.0  0.15595276043738157  0.7156181804206323  0.11052259208693262  1.0000
  C   C37       1.0  0.2127438962296801  0.679564582247514  0.024713198187599653  1.0000
  C   C38       1.0  0.20166958119260148  0.5779482198739132  0.9452446832544107  1.0000
  C   C39       1.0  0.13390980230533667  0.5123355313854934  0.9513764478497713  1.0000
  I   I1        1.0  0.3150160903797996  0.778365165550601  0.015158718692212195  1.0000
  H   H21       1.0  0.8756924825309436  0.35417147195472826  0.5026663918198878  1.0000
  H   H22       1.0  0.9966082140061198  0.46893006484619026  0.2536272512885731  1.0000
  H   H23       1.0  0.9956883687184677  0.4717004447336324  0.8362804584000252  1.0000
  H   H24       1.0  0.8155039332513971  0.2957938443679311  0.0618378491531646  1.0000
  H   H25       1.0  0.8757974484189226  0.35385433091459917  0.6097451274673404  1.0000
  H   H26       1.0  0.04454852772580065  0.6808799857886145  0.1830800602392615  1.0000
  H   H27       1.0  0.16425247153349676  0.7945082229684349  0.17195804837440012  1.0000
  H   H28       1.0  0.24560633478908753  0.5495222736556902  0.8789286033153254  1.0000
  H   H29       1.0  0.12691573584010563  0.43284268486954014  0.8900829663459864  1.0000
  Zn  Zn1       1.0  0.8193754250599119  0.38296631838080913  0.5549899417553611  1.0000
  Zn  Zn2       1.0  0.9840077169630739  0.3751608451788903  0.5525732205670353  1.0000
  C   C40       1.0  0.901716739847695  0.3738226243984054  0.7909787210954468  1.0000
  C   C41       1.0  0.9016681996624818  0.38430609265593757  0.3165845417121347  1.0000
  C   C42       1.0  0.901646767265027  0.6162787161205867  0.5485212134243012  1.0000
  C   C43       1.0  0.9017381163639133  0.1418484431354674  0.5590421200089772  1.0000
  O   O2        1.0  0.964148273764052  0.3830615036207373  0.36405265758246896  1.0000
  O   O3        1.0  0.964188766115502  0.3691420601752042  0.7416759962696251  1.0000
  O   O4        1.0  0.9641314202758167  0.56492846006601  0.5458898552748883  1.0000
  O   O5        1.0  0.9642055634150132  0.18727511571198405  0.5598387020239047  1.0000
  O   O6        1.0  0.8391775224270503  0.5708520505127563  0.5477244611163685  1.0000
  O   O7        1.0  0.8392348679670503  0.3750672110852798  0.7435105323032856  1.0000
  O   O8        1.0  0.8391943755272501  0.388986609709719  0.3658856322318651  1.0000
  O   O9        1.0  0.8392516651860134  0.1932002124839538  0.561671774044479  1.0000
