data_image0
_chemical_formula_structural       NC12NC2H8C9H10C6NH7Zn2C4O8
_chemical_formula_sum              "N3 C33 H25 Zn2 O8"
_cell_length_a       19.240039667572717
_cell_length_b       10.297183801781406
_cell_length_c       9.274774538082514
_cell_angle_alpha    85.03689992379437
_cell_angle_beta     90.34966360595384
_cell_angle_gamma    89.99762600624447

_space_group_name_H-M_alt    "P 1"
_space_group_IT_number       1

loop_
  _space_group_symop_operation_xyz
  'x, y, z'

loop_
  _atom_site_type_symbol
  _atom_site_label
  _atom_site_symmetry_multiplicity
  _atom_site_fract_x
  _atom_site_fract_y
  _atom_site_fract_z
  _atom_site_occupancy
  N   N1        1.0  0.6497598703866554  0.43416947689487473  0.4073202272281905  1.0000
  C   C1        1.0  0.5896115012995001  0.43416956161446746  0.40732013613105966  1.0000
  C   C2        1.0  0.5147934637066519  0.43416968013080526  0.40731998348750276  1.0000
  C   C3        1.0  0.4786593768080403  0.36878424057506454  0.5222731462544573  1.0000
  C   C4        1.0  0.4059889142732395  0.36867257317917534  0.5223693740256896  1.0000
  C   C5        1.0  0.36846122802272985  0.43416977470789947  0.4073197304192295  1.0000
  C   C6        1.0  0.4053092207910777  0.49966716157907776  0.29227030291808265  1.0000
  C   C7        1.0  0.47798019522606977  0.4995552575487526  0.2923666669370919  1.0000
  C   C8        1.0  0.2912561372729952  0.43416969685669843  0.40731962442069813  1.0000
  C   C9        1.0  0.25420789524635645  0.32051171550602026  0.4539045468651994  1.0000
  C   C10       1.0  0.18153690575249928  0.32061944247281793  0.4538030056179281  1.0000
  C   C11       1.0  0.1449238505519903  0.4341695671160628  0.4073196921719457  1.0000
  C   C12       1.0  0.0701058142127185  0.4341694511722261  0.40731996856425057  1.0000
  N   N2        1.0  0.009957498043010897  0.4341694085192871  0.4073202002013916  1.0000
  C   C13       1.0  0.1812583060333795  0.5477197680696666  0.3608363199121678  1.0000
  C   C14       1.0  0.2539287006056861  0.5478276766264725  0.3607345978870824  1.0000
  H   H1        1.0  0.5066394039056794  0.31815550324602326  0.612025109922159  1.0000
  H   H2        1.0  0.3791643969909971  0.3188324166233405  0.6133606293716025  1.0000
  H   H3        1.0  0.3779472071183044  0.5495073456384967  0.20127899105115343  1.0000
  H   H4        1.0  0.5054299404955924  0.5501838921814033  0.2026150098101806  1.0000
  H   H5        1.0  0.28140517467260767  0.23105928552593658  0.4885835815229757  1.0000
  H   H6        1.0  0.1539294241176779  0.23205743673718615  0.48962955673112063  1.0000
  H   H7        1.0  0.15343596426856226  0.636281749134596  0.3250097849805993  1.0000
  H   H8        1.0  0.280917899848397  0.6372801861960545  0.3260555134368761  1.0000
  C   C15       1.0  0.8298650562004831  0.0526922925479154  0.40752469147377557  1.0000
  C   C16       1.0  0.8273919202406093  0.06374288173284073  0.25565257211435893  1.0000
  C   C17       1.0  0.8261246996020185  0.9527879343333803  0.1778440441558402  1.0000
  C   C18       1.0  0.8273820454902735  0.8285764035138943  0.2550639382681019  1.0000
  C   C19       1.0  0.8298590345140819  0.8156365277984016  0.40712815366526867  1.0000
  C   C20       1.0  0.8310837108119032  0.9281783825014893  0.48236588982424045  1.0000
  C   C21       1.0  0.8234496361290357  0.9741721216445296  0.013583623148873729  1.0000
  C   C22       1.0  0.7825158896093021  0.876085049143251  0.9332423924657953  1.0000
  C   C23       1.0  0.861684679907225  0.8764291953093335  0.9286575810033102  1.0000
  H   H9        1.0  0.8308246343694943  0.37597260007333677  0.46604589038550576  1.0000
  H   H10       1.0  0.8264372992647478  0.15943138417868877  0.1970215550176888  1.0000
  H   H11       1.0  0.8264522479772481  0.7414235736672771  0.19806109317228457  1.0000
  H   H12       1.0  0.8329914387779249  0.9189251780254097  0.5995384191157612  1.0000
  H   H13       1.0  0.8345281366779326  0.5839802962128131  0.6943346387357279  1.0000
  H   H14       1.0  0.8225904617962357  0.07530158328579731  0.9607874362305897  1.0000
  H   H15       1.0  0.7595165257546853  0.7919326433568284  0.9989223152822343  1.0000
  H   H16       1.0  0.7576950625014831  0.9177585286934267  0.8311308919458988  1.0000
  H   H17       1.0  0.8867761069962481  0.7924866336453483  0.9915532304842575  1.0000
  H   H18       1.0  0.8831345227442077  0.9183014562600221  0.8238651283237799  1.0000
  C   C24       1.0  0.8286146769686874  0.43748694442944125  0.9835083963434754  1.0000
  C   C25       1.0  0.8778626662368049  0.5141468692320528  0.05020505359892757  1.0000
  C   C26       1.0  0.9302288616081488  0.5801059074595267  0.9694058452764679  1.0000
  C   C27       1.0  0.9337711890563475  0.5697041689011773  0.8204338352139784  1.0000
  C   C28       1.0  0.8847461641362372  0.495905940666161  0.7520331280940171  1.0000
  C   C29       1.0  0.8311093954805368  0.4308418371213525  0.83114447571604  1.0000
  N   N3        1.0  0.9802747533737793  0.6565851047580442  0.039107841429902424  1.0000
  H   H19       1.0  0.7247264744556687  0.183543752719749  0.109560710620308  1.0000
  H   H20       1.0  0.8766115268956765  0.52030795104026  0.166221981239383  1.0000
  H   H21       1.0  0.9742018316396736  0.6198945976200277  0.7568769709729177  1.0000
  H   H22       1.0  0.8878454736625586  0.4922924552229262  0.6358619558471577  1.0000
  H   H23       1.0  0.7590024353509169  0.2637568793497349  0.5651495460944606  1.0000
  H   H24       1.0  0.9782563925499183  0.6647314574867955  0.15047353100342215  1.0000
  H   H25       1.0  0.019702221137464893  0.7057539773526614  0.9798401929677761  1.0000
  Zn  Zn1       1.0  0.7537051587229683  0.43416592373719937  0.4073285431732392  1.0000
  Zn  Zn2       1.0  0.9060122632279269  0.4341622728524088  0.4073236683976682  1.0000
  C   C30       1.0  0.8306363346650016  0.4269227863515752  0.6709257981038037  1.0000
  C   C31       1.0  0.8290827508786874  0.44140704817211623  0.14372655421641745  1.0000
  C   C32       1.0  0.8298396587946716  0.6714689103467694  0.401451925945068  1.0000
  C   C33       1.0  0.8298793750160537  0.1968593628297182  0.41320050413334  1.0000
  O   O1        1.0  0.8870395932080968  0.44271561795822123  0.197495384602965  1.0000
  O   O2        1.0  0.8882770592933428  0.42561046888493914  0.6171528529268961  1.0000
  O   O3        1.0  0.8876329587011583  0.623084544972885  0.3995507939093128  1.0000
  O   O4        1.0  0.8876836415096222  0.2452415520127198  0.4150973354042079  1.0000
  O   O5        1.0  0.772033728466311  0.6230866445796077  0.3995548761607708  1.0000
  O   O6        1.0  0.7726778288164975  0.4256141298415854  0.6171568574142389  1.0000
  O   O7        1.0  0.7714403576708838  0.4427192472491912  0.19749765391792537  1.0000
  O   O8        1.0  0.772084406288106  0.24524517116396427  0.4150997129295806  1.0000
