data_image0
_chemical_formula_structural       NC12NC2H8C12NCOCH13C10NCOCH13Zn2C4O8
_chemical_formula_sum              "N4 C44 H34 O10 Zn2"
_cell_length_a       17.80743265337812
_cell_length_b       10.299155265289647
_cell_length_c       10.299158637457994
_cell_angle_alpha    85.56442242627145
_cell_angle_beta     91.51607039334635
_cell_angle_gamma    89.4139958816946

_space_group_name_H-M_alt    "P 1"
_space_group_IT_number       1

loop_
  _space_group_symop_operation_xyz
  'x, y, z'

loop_
  _atom_site_type_symbol
  _atom_site_label
  _atom_site_symmetry_multiplicity
  _atom_site_fract_x
  _atom_site_fract_y
  _atom_site_fract_z
  _atom_site_occupancy
  N   N1        1.0  0.7073606396061366  0.4062460549045906  0.6009517612332708  1.0000
  C   C1        1.0  0.6565465134182411  0.4357801959317539  0.5322455780424262  1.0000
  C   C2        1.0  0.5933287245937826  0.4725185249953696  0.44678373464465987  1.0000
  C   C3        1.0  0.6050659873581502  0.5264937230748421  0.3201503901691374  1.0000
  C   C4        1.0  0.5437554582092745  0.56172928431334  0.23708492268119818  1.0000
  C   C5        1.0  0.47055342234879904  0.5432528734525773  0.27999283181026313  1.0000
  C   C6        1.0  0.4578393293725386  0.48915904709970515  0.40709434616762485  1.0000
  C   C7        1.0  0.5200071768294144  0.4539267335253121  0.49014330126727423  1.0000
  C   C8        1.0  0.38006882477406856  0.46956954551504887  0.45286282567099334  1.0000
  C   C9        1.0  0.3612546184301947  0.496808180239623  0.5798978381187814  1.0000
  C   C10       1.0  0.2880226202436524  0.47837336201653696  0.6228462979009288  1.0000
  C   C11       1.0  0.2326617690507365  0.43244594762013255  0.5395977743463929  1.0000
  C   C12       1.0  0.1572930439577765  0.413458812430322  0.5839472989389975  1.0000
  N   N2        1.0  0.09670192628742713  0.3981944326858514  0.6196012657686638  1.0000
  C   C13       1.0  0.2507844250949301  0.40503860122181395  0.41310577190333864  1.0000
  C   C14       1.0  0.3239636095035857  0.42348810505579865  0.36990142430439116  1.0000
  H   H1        1.0  0.6615343573595954  0.5413050746383603  0.28570966767968753  1.0000
  H   H2        1.0  0.5529611811756506  0.6037910959644083  0.13929526764154931  1.0000
  H   H3        1.0  0.42391888930558613  0.5728648568914865  0.21439453197773428  1.0000
  H   H4        1.0  0.5115001711906443  0.41047945321782403  0.5878089038483835  1.0000
  H   H5        1.0  0.4029112253206178  0.5340163336018693  0.645459578419099  1.0000
  H   H6        1.0  0.27455726641221745  0.5002593861718384  0.7208477216226883  1.0000
  H   H7        1.0  0.20841058134915003  0.36909799452313363  0.3479566225305204  1.0000
  H   H8        1.0  0.3369008626991856  0.4000665305343378  0.2722037660454921  1.0000
  C   C15       1.0  0.9021187653262828  0.020821000911717354  0.610399390480667  1.0000
  C   C16       1.0  0.88931060674462  0.03074985375456874  0.4748599041547217  1.0000
  C   C17       1.0  0.8827438632748225  0.9186477808066296  0.40601732064362017  1.0000
  C   C18       1.0  0.8891310342963055  0.7954937153740648  0.47454351601377875  1.0000
  C   C19       1.0  0.9019510170313035  0.7836094060317829  0.6101651597597688  1.0000
  C   C20       1.0  0.9083693002417014  0.896791626722527  0.6772583135884653  1.0000
  C   C21       1.0  0.8691953054571941  0.9301249583625544  0.2626329548381523  1.0000
  C   C22       1.0  0.9073100254149433  0.023425858334051426  0.18304057889356515  1.0000
  C   C23       1.0  0.8945661214676683  0.034095633435042405  0.04810663283840921  1.0000
  C   C24       1.0  0.8439198394300745  0.950785753089028  0.9899297869973385  1.0000
  C   C25       1.0  0.8048874732216293  0.8593200974172835  0.06941004779726344  1.0000
  C   C26       1.0  0.817658746108383  0.8483937269098661  0.20430796914200886  1.0000
  N   N3        1.0  0.82875890902859  0.9613034521558627  0.8516417181988353  1.0000
  C   C27       1.0  0.8836317108307642  0.9970788969645786  0.756051825887075  1.0000
  O   O1        1.0  0.952546189930313  0.9981955141395424  0.7872114109597795  1.0000
  C   C28       1.0  0.8596906659772974  0.023983649912557428  0.6163643508468651  1.0000
  H   H9        1.0  0.9070686510216776  0.3444776425084715  0.6625290972549334  1.0000
  H   H10       1.0  0.8833763695203273  0.1259037945566015  0.422765713646098  1.0000
  H   H11       1.0  0.8850995088704762  0.7087639101631511  0.4217216496152127  1.0000
  H   H12       1.0  0.9182510297582167  0.8884183775104187  0.7818024275301165  1.0000
  H   H13       1.0  0.9265979387215417  0.5538857382091659  0.8660346479793115  1.0000
  H   H14       1.0  0.9474185891332316  0.08765551416103358  0.2250543343348037  1.0000
  H   H15       1.0  0.9233977891890592  0.10893907003915482  0.9899068889466052  1.0000
  H   H16       1.0  0.7647069730012572  0.7957957473173296  0.026525805601032904  1.0000
  H   H17       1.0  0.7864129230151713  0.7772167864355507  0.2632250271797141  1.0000
  H   H18       1.0  0.775851149028021  0.9335206869657372  0.8180338097606817  1.0000
  H   H19       1.0  0.8054616982358201  0.07854958424130887  0.6093131152430047  1.0000
  H   H20       1.0  0.8527472374154694  0.9305054943044311  0.5708074279408439  1.0000
  H   H21       1.0  0.9024684624563002  0.0831754368601243  0.5630177967036607  1.0000
  C   C29       1.0  0.9021053422908436  0.4020757509374526  0.2289126062716016  1.0000
  C   C30       1.0  0.9038207826487158  0.5387537602024464  0.21764069366744287  1.0000
  C   C31       1.0  0.904631540845674  0.6081924896833817  0.09476517843831521  1.0000
  C   C32       1.0  0.9036768886696781  0.5391166326092638  0.9823222158396656  1.0000
  C   C33       1.0  0.9019644158445417  0.4023546468109643  0.9916519893195849  1.0000
  C   C34       1.0  0.9011924718428135  0.3346750551852504  0.11533548785264913  1.0000
  C   C35       1.0  0.9064471665451633  0.7527810331900386  0.08381445974804702  1.0000
  C   C36       1.0  0.9525425369415991  0.8196667545803378  0.16856969662321308  1.0000
  C   C37       1.0  0.954257259054583  0.9557320730143117  0.15813392880231825  1.0000
  C   C38       1.0  0.8617130313892524  0.8250851415690847  0.9890230639879739  1.0000
  N   N4        1.0  0.910069330274414  0.16769300771320197  0.05056981112362789  1.0000
  C   C39       1.0  0.9744175696111016  0.24535607931990902  0.07686023716933477  1.0000
  O   O2        1.0  0.03920107764355496  0.19459998860386077  0.08849415620652801  1.0000
  C   C40       1.0  0.9655735588587248  0.38936487985405366  0.08099652111731581  1.0000
  H   H22       1.0  0.9014690476016941  0.3495011935440888  0.5607251673329874  1.0000
  H   H23       1.0  0.9034807576081548  0.5915819895869563  0.3045595988819349  1.0000
  H   H24       1.0  0.9052939328482578  0.5921007595709069  0.8874123430354572  1.0000
  H   H25       1.0  0.899871884354429  0.22925206018942945  0.12331500344124935  1.0000
  H   H26       1.0  0.8991882948523655  0.14419874263877874  0.8019910832913646  1.0000
  H   H27       1.0  0.987715220415775  0.7667084323826996  0.24246249717578802  1.0000
  H   H28       1.0  0.9889130110528702  0.004358659371461295  0.22681082600698788  1.0000
  H   H29       1.0  0.8282454310754124  0.014956142765491632  0.9055240601357574  1.0000
  H   H30       1.0  0.8245960781211422  0.7764626695232983  0.9239125309005555  1.0000
  H   H31       1.0  0.8613599835582254  0.2161588669554022  0.013275825411757983  1.0000
  H   H32       1.0  0.9127433629408912  0.4121737165466306  0.1298773153805779  1.0000
  H   H33       1.0  0.9635434608814333  0.4360776939074369  0.9801666451827789  1.0000
  H   H34       1.0  0.013493496696426409  0.4291445822038785  0.13593455936802346  1.0000
  Zn  Zn1       1.0  0.8197161274257001  0.4039190658390091  0.6063410934027654  1.0000
  Zn  Zn2       1.0  0.9843464363469073  0.4005108313246553  0.6142225299243649  1.0000
  C   C41       1.0  0.9019905137482096  0.3971278551567326  0.847479396816612  1.0000
  C   C42       1.0  0.9020738473982608  0.4073036435853332  0.3730844395390835  1.0000
  C   C43       1.0  0.9019797935040296  0.6394243209275408  0.605034078875142  1.0000
  C   C44       1.0  0.9020845117960433  0.1650056185764381  0.6155298245090717  1.0000
  O   O3        1.0  0.9645396229284013  0.40775909868830706  0.42446078963492595  1.0000
  O   O4        1.0  0.9644753336877981  0.3940846489816112  0.8020845011307054  1.0000
  O   O5        1.0  0.964465834494538  0.5897421272780458  0.6063081508172461  1.0000
  O   O6        1.0  0.9645490659604367  0.21210163081022973  0.6202370398812695  1.0000
  O   O7        1.0  0.8395134416319269  0.5923282675179092  0.6003265807494823  1.0000
  O   O8        1.0  0.8395229404913409  0.3966723496240357  0.7961028613380444  1.0000
  O   O9        1.0  0.8395872300803577  0.41034675349926336  0.4184775884547511  1.0000
  O   O10       1.0  0.839596673093374  0.2146892763673034  0.6142539360718313  1.0000
