data_image0
_chemical_formula_structural       NC12NC2H8C6NH7C9H8Zn2C4O8
_chemical_formula_sum              "N3 C33 H23 Zn2 O8"
_cell_length_a       19.240039667572717
_cell_length_b       9.274771166103584
_cell_length_c       9.275155815604963
_cell_angle_alpha    85.94411296578332
_cell_angle_beta     90.35749810205114
_cell_angle_gamma    90.59704977044065

_space_group_name_H-M_alt    "P 1"
_space_group_IT_number       1

loop_
  _space_group_symop_operation_xyz
  'x, y, z'

loop_
  _atom_site_type_symbol
  _atom_site_label
  _atom_site_symmetry_multiplicity
  _atom_site_fract_x
  _atom_site_fract_y
  _atom_site_fract_z
  _atom_site_occupancy
  N   N1        1.0  0.6575476366614341  0.564939816833341  0.407384035559496  1.0000
  C   C1        1.0  0.5973992680347641  0.5649399093295118  0.40738394446191695  1.0000
  C   C2        1.0  0.5225812310823504  0.5649400382884409  0.4073837918533323  1.0000
  C   C3        1.0  0.48609838833315683  0.49432546538191247  0.5222742452643099  1.0000
  C   C4        1.0  0.41342731529484306  0.49420313509531155  0.5223705073045  1.0000
  C   C5        1.0  0.37624899588997934  0.5649401389270194  0.407383538998348  1.0000
  C   C6        1.0  0.4134463565731659  0.6356773523038548  0.29239678620984066  1.0000
  C   C7        1.0  0.4861167192008623  0.6355547616158768  0.2924931846659984  1.0000
  C   C8        1.0  0.2990439046888767  0.5649400506462072  0.40738343326816495  1.0000
  C   C9        1.0  0.2613666377876056  0.4395401960157934  0.4540757711555663  1.0000
  C   C10       1.0  0.1886962359590023  0.43965805887335363  0.45397420914884123  1.0000
  C   C11       1.0  0.15271161725200727  0.5649399077544736  0.4073835011214433  1.0000
  C   C12       1.0  0.07789358030509978  0.5649397837938952  0.40738377730007924  1.0000
  N   N2        1.0  0.017745263931186597  0.5649397404411165  0.4073840086750691  1.0000
  C   C13       1.0  0.18967450964514437  0.6902218403528859  0.3607927342470214  1.0000
  C   C14       1.0  0.262345492871873  0.690339901719611  0.3606909914410683  1.0000
  H   H1        1.0  0.5138084799621115  0.43966059515994965  0.6119766038794485  1.0000
  H   H2        1.0  0.3863374592304082  0.44043535680496615  0.6133092055273692  1.0000
  H   H3        1.0  0.3863496818280703  0.6894451601559948  0.20145803150386787  1.0000
  H   H4        1.0  0.5138363994100414  0.690219523109072  0.20279113231521317  1.0000
  H   H5        1.0  0.28806855952551125  0.34081218760343446  0.4888421483577778  1.0000
  H   H6        1.0  0.1605985495200075  0.3419386412299763  0.48988512514969584  1.0000
  H   H7        1.0  0.16234237254886666  0.7879412308819156  0.32488183444253393  1.0000
  H   H8        1.0  0.2898300502408533  0.7890679976465689  0.32592456439546025  1.0000
  C   C15       1.0  0.8355183636848657  0.1413500095287059  0.40816956464373977  1.0000
  C   C16       1.0  0.8191314683752196  0.22354843940232216  0.27928689036182197  1.0000
  C   C17       1.0  0.8092313224337244  0.15738168679952902  0.14958651016448998  1.0000
  C   C18       1.0  0.8157516418040157  0.007630938113911241  0.1478293722587567  1.0000
  C   C19       1.0  0.8308479021314352  0.9240978277132905  0.27494157561397414  1.0000
  C   C20       1.0  0.8397812032160733  0.9885186203633087  0.40661095528378577  1.0000
  N   N3        1.0  0.7932671268198379  0.24266741149892335  0.01928734050069391  1.0000
  H   H9        1.0  0.9147009851829041  0.2237276187173456  0.7235851123625043  1.0000
  H   H10       1.0  0.8156253441201381  0.3401363785390843  0.2787332768638324  1.0000
  H   H11       1.0  0.8084634336160255  0.9552840142860463  0.04803801514061345  1.0000
  H   H12       1.0  0.8338983105147174  0.8078982528206942  0.27081398312261307  1.0000
  H   H13       1.0  0.8903034207090664  0.6933010300791079  0.6212052067904181  1.0000
  H   H14       1.0  0.7884783029385874  0.35474091005231245  0.019240530762193675  1.0000
  H   H15       1.0  0.7860515841857594  0.1943581143387305  0.9218661468662989  1.0000
  C   C21       1.0  0.8363579719698438  0.5612882252198528  0.9841657183455751  1.0000
  C   C22       1.0  0.7823398792143095  0.6315740723573358  0.05185128498383951  1.0000
  C   C23       1.0  0.7330253726050916  0.7114465478170464  0.97041957278713  1.0000
  C   C24       1.0  0.7368153837429445  0.7227057183502879  0.8198170597153664  1.0000
  C   C25       1.0  0.7894309319715124  0.6516448644408754  0.7504245544188128  1.0000
  C   C26       1.0  0.8389415698913948  0.5685803225833095  0.8306147272293316  1.0000
  C   C27       1.0  0.6861129052461047  0.8059481879841771  0.7360665291716786  1.0000
  C   C28       1.0  0.643658731695456  0.8756523884402511  0.6659102474059906  1.0000
  C   C29       1.0  0.5921482298906885  0.9602266500580546  0.5807759849834375  1.0000
  H   H16       1.0  0.9970960078561484  0.4449082718837906  0.09733765678529172  1.0000
  H   H17       1.0  0.7791971958557509  0.627575546713339  0.1686501802435385  1.0000
  H   H18       1.0  0.692283143580861  0.7656629026009727  0.025132861487783927  1.0000
  H   H19       1.0  0.7907492452050808  0.6584277631312128  0.6332657789362082  1.0000
  H   H20       1.0  0.9461626812300187  0.4850463477330113  0.5571860089206311  1.0000
  H   H21       1.0  0.6062926887121004  0.9643711042057099  0.4647693694896158  1.0000
  H   H22       1.0  0.5401251199281737  0.9088608332959969  0.5958967793748791  1.0000
  H   H23       1.0  0.5909497071753155  0.0716080159301704  0.6170757898080943  1.0000
  Zn  Zn1       1.0  0.7614929063535036  0.5649360153290124  0.40739234517439304  1.0000
  Zn  Zn2       1.0  0.9137999897055455  0.5649318770037927  0.4073874828474766  1.0000
  C   C30       1.0  0.8384227594329999  0.5614555450213943  0.6706283475381802  1.0000
  C   C31       1.0  0.8368718094045514  0.5684141685141408  0.14415161853808045  1.0000
  C   C32       1.0  0.8389543199613304  0.8283362116633506  0.40116238897509526  1.0000
  C   C33       1.0  0.8363401884185754  0.3015317694936608  0.4136176571289518  1.0000
  O   O1        1.0  0.8948439706532604  0.5707978367179891  0.19784251448219092  1.0000
  O   O2        1.0  0.8960481435605543  0.5590676441638527  0.6169333483265134  1.0000
  O   O3        1.0  0.8964766108156086  0.7745771705753826  0.3993376775358721  1.0000
  O   O4        1.0  0.8944154511482021  0.35528831969565444  0.41543807719387416  1.0000
  O   O5        1.0  0.7808773929358991  0.7745795726400679  0.3993417508220707  1.0000
  O   O6        1.0  0.7804489341635424  0.5590717786099784  0.6169373415790016  1.0000
  O   O7        1.0  0.779244755760629  0.5708019059701694  0.19784477506121978  1.0000
  O   O8        1.0  0.7788162365306267  0.3552923795615561  0.41544044584593687  1.0000
