data_image0
_chemical_formula_structural       NC9NC5H8C13OH12C13NH9Zn2C4O8
_chemical_formula_sum              "N3 C44 H29 O9 Zn2"
_cell_length_a       17.807436237873137
_cell_length_b       10.299150109392551
_cell_length_c       10.298528502251456
_cell_angle_alpha    85.52101086159662
_cell_angle_beta     89.38885601427036
_cell_angle_gamma    88.37145022261349

_space_group_name_H-M_alt    "P 1"
_space_group_IT_number       1

loop_
  _space_group_symop_operation_xyz
  'x, y, z'

loop_
  _atom_site_type_symbol
  _atom_site_label
  _atom_site_symmetry_multiplicity
  _atom_site_fract_x
  _atom_site_fract_y
  _atom_site_fract_z
  _atom_site_occupancy
  N   N1        1.0  0.7071945400362761  0.38836316643505575  0.5564457498169235  1.0000
  C   C1        1.0  0.6466138650723269  0.3531740603787932  0.5454330948173383  1.0000
  C   C2        1.0  0.5712581637953834  0.30940268767761947  0.5317345477196138  1.0000
  C   C3        1.0  0.5531830210361794  0.23801671006409622  0.4267440120476425  1.0000
  C   C4        1.0  0.48001654628647283  0.19540660201377458  0.4133610066899925  1.0000
  C   C5        1.0  0.4238765668846373  0.22380491968100816  0.504936217140044  1.0000
  C   C6        1.0  0.3461194415238314  0.17863624796451472  0.49079559174898657  1.0000
  C   C7        1.0  0.2839271537335439  0.26039086373906506  0.5167083795006857  1.0000
  C   C8        1.0  0.2106184114671539  0.21757769515320893  0.5033391301121948  1.0000
  C   C9        1.0  0.14737552337101925  0.30202377687393017  0.5296148982150366  1.0000
  N   N2        1.0  0.0965412307411752  0.36991258389220777  0.5507398912930292  1.0000
  C   C10       1.0  0.1989184608079524  0.09275191670990847  0.4640318328678863  1.0000
  C   C11       1.0  0.2602533815901395  0.0109834502464603  0.4381106593345838  1.0000
  C   C12       1.0  0.33344277097402225  0.05340211133097306  0.45127748652884275  1.0000
  C   C13       1.0  0.44264301598491  0.2956852332878104  0.6101458324479416  1.0000
  C   C14       1.0  0.5158624019050455  0.3381049826296587  0.6233732357168114  1.0000
  H   H1        1.0  0.5955841696574509  0.2155536563063096  0.35503019410171377  1.0000
  H   H2        1.0  0.46711634041115996  0.14174753428716702  0.3304492902587448  1.0000
  H   H3        1.0  0.2924056790751286  0.3578545715258187  0.545553999504429  1.0000
  H   H4        1.0  0.1424600646032678  0.05871645128266034  0.45344785666854315  1.0000
  H   H5        1.0  0.25107639345045035  0.9143403179558497  0.40806417936442574  1.0000
  H   H6        1.0  0.38009636812465303  0.9876577285811082  0.43225033490134207  1.0000
  H   H7        1.0  0.40095881089227103  0.3176087546837494  0.6831545082472947  1.0000
  H   H8        1.0  0.5292907602140386  0.3929850936742887  0.705242752722705  1.0000
  C   C15       1.0  0.9019422770424611  0.9977346702460832  0.5537358957997813  1.0000
  C   C16       1.0  0.9005546091954014  0.9859492488168345  0.6905836727173602  1.0000
  C   C17       1.0  0.8997856707666566  0.8628423779828477  0.7597056315659525  1.0000
  C   C18       1.0  0.9004097730774738  0.750700892471823  0.6902223558929355  1.0000
  C   C19       1.0  0.9018006710998725  0.7605307249591561  0.5534609411626128  1.0000
  C   C20       1.0  0.9025608610302536  0.88450804170819  0.4860169039525961  1.0000
  C   C21       1.0  0.8983111277296557  0.8513568300420147  0.9043850257120283  1.0000
  C   C22       1.0  0.8521134438406812  0.7606424594371971  0.9730917656884962  1.0000
  C   C23       1.0  0.8507010104728204  0.7499171590973757  0.10923529574324563  1.0000
  C   C24       1.0  0.8959534782704067  0.8287246052670872  0.17912603715060693  1.0000
  C   C25       1.0  0.941432387940709  0.9204264513367466  0.11107248079664311  1.0000
  C   C26       1.0  0.9428622603493563  0.9313267223974463  0.9749284064267882  1.0000
  C   C27       1.0  0.8928560714844836  0.8196287456479641  0.325275545032104  1.0000
  O   O1        1.0  0.8367038098092704  0.9054513012891855  0.3663440202639535  1.0000
  H   H9        1.0  0.9040734808375892  0.22729617101415678  0.2954364568180117  1.0000
  H   H10       1.0  0.8990271148772951  0.0727754728650276  0.7436211104981747  1.0000
  H   H11       1.0  0.9008369290563263  0.6555385742386326  0.7430560645232216  1.0000
  H   H12       1.0  0.9036315764669466  0.8928063949451999  0.38052876369902866  1.0000
  H   H13       1.0  0.9022850935452522  0.4368385515200681  0.5008584456030851  1.0000
  H   H14       1.0  0.8161866226283894  0.6993557179181407  0.9215032089995636  1.0000
  H   H15       1.0  0.8141540571905138  0.6803007077840649  0.160152601020365  1.0000
  H   H16       1.0  0.9759753567223267  0.9833314642079599  0.16342761454105714  1.0000
  H   H17       1.0  0.9794343625203321  0.0013871149651740753  0.9248174743932209  1.0000
  H   H18       1.0  0.9481160877082698  0.8448242997398303  0.3646406305065476  1.0000
  H   H19       1.0  0.880646106560238  0.7181719960319481  0.3632716811438055  1.0000
  H   H20       1.0  0.8369793609448575  0.8957250593922387  0.46297846609063364  1.0000
  C   C28       1.0  0.901882129542988  0.37925870058432753  0.1721813301078765  1.0000
  C   C29       1.0  0.8237756066317586  0.4028235843197116  0.17082865967784744  1.0000
  C   C30       1.0  0.7842061779400191  0.4146234893258558  0.052996697007202886  1.0000
  C   C31       1.0  0.823753229407589  0.4025597642054628  0.9355693802021299  1.0000
  C   C32       1.0  0.9018608193375363  0.3790067104985147  0.9350154537376065  1.0000
  C   C33       1.0  0.940425122543936  0.36750423763786455  0.05379554644121742  1.0000
  C   C34       1.0  0.7016318743974918  0.4395305876219517  0.05257432609551671  1.0000
  C   C35       1.0  0.668445604582869  0.5290413010694175  0.13394477492184165  1.0000
  C   C36       1.0  0.5907185060958984  0.5524393026630205  0.1334277344183692  1.0000
  C   C37       1.0  0.545143416207294  0.48673507408759775  0.05177122583352567  1.0000
  C   C38       1.0  0.5775881579350635  0.39749585376084573  0.9705155654099026  1.0000
  C   C39       1.0  0.6553072545675047  0.37400385920635837  0.9707961472227401  1.0000
  C   C40       1.0  0.4651232776955114  0.5108740403355361  0.051359578101886294  1.0000
  N   N3        1.0  0.4007924821852964  0.5302802644687312  0.05102867606593309  1.0000
  H   H21       1.0  0.049410743420036374  0.33392484171876036  0.3821258839484243  1.0000
  H   H22       1.0  0.7934338808364678  0.41026973749700013  0.2617867539906613  1.0000
  H   H23       1.0  0.7936934765882703  0.4133322113305926  0.8443025417329215  1.0000
  H   H24       1.0  0.0006233286667480804  0.34934703944813195  0.05410319492070715  1.0000
  H   H25       1.0  0.0495279465875846  0.33530920131128195  0.7265794405731789  1.0000
  H   H26       1.0  0.7027038368778626  0.5821905054560819  0.19672585441543422  1.0000
  H   H27       1.0  0.5662142403509685  0.6219962896571134  0.1964690425962945  1.0000
  H   H28       1.0  0.5428104042251123  0.34582154585320907  0.9071698439705888  1.0000
  H   H29       1.0  0.6790741008390494  0.30335153941382115  0.9083128364011416  1.0000
  Zn  Zn1       1.0  0.8195515838628442  0.3830352587904453  0.5548066752904266  1.0000
  Zn  Zn2       1.0  0.984184170384517  0.37522990088858843  0.5523896475963117  1.0000
  C   C41       1.0  0.9018641296461234  0.3738803059499989  0.7908253844078917  1.0000
  C   C42       1.0  0.901873422076179  0.3843864072188852  0.31637103897677576  1.0000
  C   C43       1.0  0.9018237146600061  0.6163479651486843  0.5483371265491785  1.0000
  C   C44       1.0  0.9019137811724498  0.14191719021854055  0.5588593674701432  1.0000
  O   O2        1.0  0.9643477094177046  0.383139553513391  0.363845175091567  1.0000
  O   O3        1.0  0.9643421663281396  0.3692020939249887  0.741516406659442  1.0000
  O   O4        1.0  0.9643086884553457  0.5649978346343474  0.5457054346721881  1.0000
  O   O5        1.0  0.9643811311135451  0.18734382479069156  0.5596560505132737  1.0000
  O   O6        1.0  0.8393545669527946  0.570921337553344  0.5475402731914449  1.0000
  O   O7        1.0  0.839388044534413  0.3751271573106453  0.7433511753620254  1.0000
  O   O8        1.0  0.8393935877259736  0.3890645721524464  0.3656783822118599  1.0000
  O   O9        1.0  0.8394270094177454  0.1932688341080893  0.5614893550170941  1.0000
