data_image0
_chemical_formula_structural       NC8NH4C7NH5C6ClH4Zn2C4O8
_chemical_formula_sum              "N3 C25 H13 Cl1 Zn2 O8"
_cell_length_a       13.859017124695912
_cell_length_b       9.275154477615127
_cell_length_c       9.276548810779733
_cell_angle_alpha    86.30571482512589
_cell_angle_beta     89.72475413929395
_cell_angle_gamma    89.43373790894346

_space_group_name_H-M_alt    "P 1"
_space_group_IT_number       1

loop_
  _space_group_symop_operation_xyz
  'x, y, z'

loop_
  _atom_site_type_symbol
  _atom_site_label
  _atom_site_symmetry_multiplicity
  _atom_site_fract_x
  _atom_site_fract_y
  _atom_site_fract_z
  _atom_site_occupancy
  N   N1        1.0  0.9033395096799931  0.563436115730729  0.4167509184543021  1.0000
  C   C1        1.0  0.8313203937189853  0.5400693737049438  0.36051085666161886  1.0000
  C   C2        1.0  0.7417328635766813  0.5110045568970039  0.2905554494176299  1.0000
  C   C3        1.0  0.6537109667136551  0.539339797502963  0.3587531728129671  1.0000
  C   C4        1.0  0.5665025374922221  0.5110057771704648  0.290554875118219  1.0000
  C   C5        1.0  0.5674985322312662  0.45432882727203744  0.15413792423455042  1.0000
  C   C6        1.0  0.6553363043939979  0.4261024952789869  0.0862027114908328  1.0000
  C   C7        1.0  0.7423639028135885  0.45432648907273343  0.15413909298503814  1.0000
  C   C8        1.0  0.4760805504927689  0.5400702955143635  0.3605103624388337  1.0000
  N   N2        1.0  0.40339063383820856  0.5634364363001145  0.4167507037763671  1.0000
  H   H1        1.0  0.6530812404200886  0.5832099522257248  0.4643431643877218  1.0000
  H   H2        1.0  0.5005232185902454  0.43202790458988316  0.1004588583534296  1.0000
  H   H3        1.0  0.6559648164396474  0.38232193577251716  0.980826560458614  1.0000
  H   H4        1.0  0.8099794575645086  0.4320234752329928  0.10046101776194538  1.0000
  C   C9        1.0  0.1561673078461343  0.14003177542631784  0.4150833102196452  1.0000
  C   C10       1.0  0.13009831864822766  0.22205105762572241  0.28802993583887426  1.0000
  C   C11       1.0  0.09615897045612876  0.15491426006131337  0.16770677166846326  1.0000
  C   C12       1.0  0.08772793764987918  0.004842229355000339  0.17301991577945317  1.0000
  C   C13       1.0  0.11470069550891714  0.9215888364060753  0.29717720909668377  1.0000
  C   C14       1.0  0.1505721039376926  0.9868298464391  0.4184307936601419  1.0000
  C   C15       1.0  0.06881129778769801  0.24050137524759752  0.03912207318190375  1.0000
  N   N3        1.0  0.04683136367175367  0.309297810479056  0.9357729122728063  1.0000
  H   H5        1.0  0.17371800402791848  0.21993166678680676  0.7687979752030614  1.0000
  H   H6        1.0  0.13405284915462712  0.3389714312715595  0.2837542892560132  1.0000
  H   H7        1.0  0.06112928468070877  0.9518714849313857  0.08054400741664347  1.0000
  H   H8        1.0  0.10963440144408976  0.8051200791517992  0.29705039464630234  1.0000
  H   H9        1.0  0.16648785776547717  0.6902230145034345  0.6554296789025751  1.0000
  C   C16       1.0  0.15475524883348843  0.55956802580991  0.9935924062436672  1.0000
  C   C17       1.0  0.23533211985784996  0.614376822905628  0.06291550835317383  1.0000
  C   C18       1.0  0.31042625911456767  0.6799318966398844  0.9829421492594124  1.0000
  C   C19       1.0  0.30606903850008643  0.6917815974097345  0.8325494674511043  1.0000
  C   C20       1.0  0.2276012617322538  0.6359614272758854  0.761573260174309  1.0000
  C   C21       1.0  0.15198413371485753  0.567293514187132  0.8399216838648296  1.0000
  Cl  Cl1       1.0  0.40958090636679345  0.749357013041233  0.07172101733730374  1.0000
  H   H10       1.0  0.03875031080866975  0.3981851894427272  0.28595663844318553  1.0000
  H   H11       1.0  0.3639869635904645  0.7430733032921151  0.7702629479505299  1.0000
  H   H12       1.0  0.22719778485345143  0.6434847202221541  0.644554709160591  1.0000
  H   H13       1.0  0.9973388001735594  0.5144324152834077  0.5631166842945765  1.0000
  Zn  Zn1       1.0  0.04764346359632432  0.5634324347307593  0.4167591672969153  1.0000
  Zn  Zn2       1.0  0.25908671130264677  0.5634284635631575  0.41675422747588287  1.0000
  C   C22       1.0  0.15254375245167062  0.560089340964592  0.679924597494046  1.0000
  C   C23       1.0  0.15418871891732988  0.5667733778102837  0.15358894585233673  1.0000
  C   C24       1.0  0.15164354782691158  0.8267145483785656  0.4120556734874764  1.0000
  C   C25       1.0  0.15508886258578514  0.30014643881505254  0.4214579398395395  1.0000
  O   O1        1.0  0.23424023842362637  0.5691837624891087  0.20728334662945322  1.0000
  O   O2        1.0  0.23297277403600591  0.5576748507643494  0.6262260283900039  1.0000
  O   O3        1.0  0.2322447608155327  0.7729780913850219  0.40991998298929677  1.0000
  O   O4        1.0  0.23496817977846152  0.35388053119773133  0.4235892840262807  1.0000
  O   O5        1.0  0.07176192296532058  0.7729803670990409  0.4099241107406295  1.0000
  O   O6        1.0  0.07248992498690932  0.5576788580624816  0.6262300861548162  1.0000
  O   O7        1.0  0.07375739544339209  0.569187703728057  0.2072856716749596  1.0000
  O   O8        1.0  0.0744853365086766  0.35388446311024074  0.42359171706977977  1.0000
