data_image0
_chemical_formula_structural       NC8NC6H8C6NO2H5C6NCOCH9Zn2C4O8
_chemical_formula_sum              "N4 C32 H22 O11 Zn2"
_cell_length_a       17.457602349358154
_cell_length_b       9.273392599741051
_cell_length_c       10.300272075376753
_cell_angle_alpha    85.66434630960563
_cell_angle_beta     92.87481935650747
_cell_angle_gamma    91.0881455882028

_space_group_name_H-M_alt    "P 1"
_space_group_IT_number       1

loop_
  _space_group_symop_operation_xyz
  'x, y, z'

loop_
  _atom_site_type_symbol
  _atom_site_label
  _atom_site_symmetry_multiplicity
  _atom_site_fract_x
  _atom_site_fract_y
  _atom_site_fract_z
  _atom_site_occupancy
  N   N1        1.0  0.7135375011624691  0.61353006549825  0.6289693873411115  1.0000
  C   C1        1.0  0.6527412836696486  0.5625459834395992  0.6182781302229119  1.0000
  C   C2        1.0  0.5771081709042801  0.49912812602042056  0.6049877573699882  1.0000
  C   C3        1.0  0.5183322394204881  0.5436885853576716  0.6799486469054152  1.0000
  C   C4        1.0  0.4441242137202314  0.48262227834811094  0.6672761905936759  1.0000
  C   C5        1.0  0.3817435699541906  0.5296714681768975  0.7466624039425289  1.0000
  C   C6        1.0  0.30708447791529636  0.5501974869581907  0.6909318702279037  1.0000
  C   C7        1.0  0.24830966967044282  0.5945537023681511  0.7660004044246651  1.0000
  C   C8        1.0  0.17220873965503064  0.615753223503767  0.7080555082495472  1.0000
  N   N2        1.0  0.11103654754110516  0.6327905554185226  0.6614679522094604  1.0000
  C   C9        1.0  0.2637002927904916  0.6186536484741194  0.8973083702296827  1.0000
  C   C10       1.0  0.33757229041891507  0.5985593497330793  0.9534271289254845  1.0000
  C   C11       1.0  0.39633438328346265  0.5544028613288416  0.8788165941441021  1.0000
  C   C12       1.0  0.4299849390842958  0.37624396594604215  0.5782088662091471  1.0000
  C   C13       1.0  0.4887474381236468  0.33199275451382104  0.5036484237935646  1.0000
  C   C14       1.0  0.5621700013136504  0.39318361294222637  0.5168709920236523  1.0000
  H   H1        1.0  0.5302143144322847  0.6271468421004553  0.7467008959293902  1.0000
  H   H2        1.0  0.294832721411134  0.53361632887497  0.5888870394003307  1.0000
  H   H3        1.0  0.21864913772701552  0.6529182775383915  0.9561927589335263  1.0000
  H   H4        1.0  0.34930079137990594  0.6168700353782168  0.0551012928738247  1.0000
  H   H5        1.0  0.4529112497699225  0.5377404441051972  0.9248962417395566  1.0000
  H   H6        1.0  0.3737783849335089  0.32591457335400587  0.5674824694963119  1.0000
  H   H7        1.0  0.47737234517089305  0.24977450640850593  0.4356997528874731  1.0000
  H   H8        1.0  0.607226524993394  0.357953209106858  0.458496267030605  1.0000
  C   C15       1.0  0.9146288358122464  0.19974541048752825  0.6445935234478741  1.0000
  C   C16       1.0  0.9048630821451129  0.28265226052096826  0.5251696256189686  1.0000
  C   C17       1.0  0.888328488447556  0.216787758669071  0.4094967205638278  1.0000
  C   C18       1.0  0.881012271990367  0.06601690252826731  0.410014121758437  1.0000
  C   C19       1.0  0.8919744586116737  0.98199991304058  0.5286302811609722  1.0000
  C   C20       1.0  0.909952605920427  0.04656440027993169  0.6458556016091137  1.0000
  N   N3        1.0  0.863284223958337  0.9986782278513858  0.29043582516128663  1.0000
  O   O1        1.0  0.8532218264446372  0.08132147935800105  0.1743239798873386  1.0000
  O   O2        1.0  0.8565299582951706  0.8644176464587917  0.2900909294148175  1.0000
  H   H9        1.0  0.8990044881839898  0.27537844690974667  0.9620377571277194  1.0000
  H   H10       1.0  0.9082161681375623  0.3996581925000255  0.5216070389362488  1.0000
  H   H11       1.0  0.8804926154665198  0.28435056991775776  0.31960389265443867  1.0000
  H   H12       1.0  0.8882697304446218  0.8652179932114976  0.5292517725812509  1.0000
  H   H13       1.0  0.9020459490537374  0.7480354135257106  0.8606142342843097  1.0000
  C   C21       1.0  0.9122962032872785  0.6233016530374196  0.26387257767185357  1.0000
  C   C22       1.0  0.8336098122749059  0.6536067760321373  0.2540665389317467  1.0000
  C   C23       1.0  0.7941803217386191  0.6708366954967504  0.1317324979457537  1.0000
  C   C24       1.0  0.8336193801941262  0.6532784178146123  0.018932723885952022  1.0000
  C   C25       1.0  0.9122852600017154  0.62300814303312  0.02657660826600283  1.0000
  C   C26       1.0  0.9512705779711296  0.6087201115864285  0.14952279308228933  1.0000
  N   N4        1.0  0.7133619089513175  0.6996280464068552  0.12020681858733707  1.0000
  C   C27       1.0  0.674791173938805  0.787540309097067  0.20467959854478177  1.0000
  O   O3        1.0  0.7124366019717813  0.8665031857385773  0.2801699369869044  1.0000
  C   C28       1.0  0.5892325207005201  0.7940025261358452  0.1965926924161312  1.0000
  H   H14       1.0  0.941972270096213  0.6096917218219222  0.5951468195452627  1.0000
  H   H15       1.0  0.8026844345766379  0.6609648201448677  0.3416984874000901  1.0000
  H   H16       1.0  0.8026158960248674  0.6645890074656451  0.9250535759659453  1.0000
  H   H17       1.0  0.011963447694409712  0.5853859537023647  0.1562747329431491  1.0000
  H   H18       1.0  0.9418509010360351  0.6094146585622334  0.7021887655426626  1.0000
  H   H19       1.0  0.6815144444456446  0.6621175337522174  0.04057643390476007  1.0000
  H   H20       1.0  0.5643587433945269  0.6850148323798664  0.18197405746845963  1.0000
  H   H21       1.0  0.5680043410898423  0.8314981168879827  0.2879770070282548  1.0000
  H   H22       1.0  0.5703786692461644  0.8701695632505688  0.11333843487252461  1.0000
  Zn  Zn1       1.0  0.8282471607720197  0.619084357282333  0.6383552635274772  1.0000
  Zn  Zn2       1.0  0.996326938809804  0.6272244377955295  0.6520926904597077  1.0000
  C   C29       1.0  0.9123173165831495  0.6173194990897968  0.8824004866131361  1.0000
  C   C30       1.0  0.9122586083765275  0.6289912041067682  0.40804774755858686  1.0000
  C   C31       1.0  0.910832637684942  0.886499412353856  0.6404417992972933  1.0000
  C   C32       1.0  0.913743239485967  0.35980955571160855  0.6500064968404917  1.0000
  O   O4        1.0  0.97603142572753  0.6339834971600931  0.4616475241813458  1.0000
  O   O5        1.0  0.9761131676734824  0.6185042512037204  0.8392267237188933  1.0000
  O   O6        1.0  0.9749134108097371  0.8358703932467325  0.6438433037694109  1.0000
  O   O7        1.0  0.9772311251814751  0.4166173626913621  0.6570308420881987  1.0000
  O   O8        1.0  0.847342917042961  0.8296914296102631  0.6334171072042476  1.0000
  O   O9        1.0  0.8485426643380863  0.6123270199221147  0.8288004604929297  1.0000
  O   O10       1.0  0.848460922743058  0.6278062162362421  0.45121969955323804  1.0000
  O   O11       1.0  0.849660622249416  0.4104400714169922  0.6466031148079825  1.0000
