data_image0
_chemical_formula_structural       NC10NC5H10C12NCOCH13C13NH9Zn2C4O8
_chemical_formula_sum              "N4 C46 H32 O9 Zn2"
_cell_length_a       19.4436361288709
_cell_length_b       10.299155265289647
_cell_length_c       10.298528502251457
_cell_angle_alpha    85.52481818200187
_cell_angle_beta     89.70161212865115
_cell_angle_gamma    89.39615277754326

_space_group_name_H-M_alt    "P 1"
_space_group_IT_number       1

loop_
  _space_group_symop_operation_xyz
  'x, y, z'

loop_
  _atom_site_type_symbol
  _atom_site_label
  _atom_site_symmetry_multiplicity
  _atom_site_fract_x
  _atom_site_fract_y
  _atom_site_fract_z
  _atom_site_occupancy
  N   N1        1.0  0.6473960829146476  0.4099068545076465  0.5615341408468226  1.0000
  C   C1        1.0  0.5885586116068072  0.41980203179476705  0.5759173209386859  1.0000
  C   C2        1.0  0.5152274139860001  0.4321426165715652  0.5939086538434966  1.0000
  C   C3        1.0  0.4730469892369942  0.40019241279383994  0.49923130688995765  1.0000
  C   C4        1.0  0.39714034909942153  0.4106287117865072  0.5045572877640647  1.0000
  C   C5        1.0  0.3574095875528388  0.38582347461839844  0.6116500340933215  1.0000
  C   C6        1.0  0.2812878212542524  0.38974710170437366  0.5986879509594043  1.0000
  C   C7        1.0  0.24071601994142422  0.44736407218003804  0.6924552964122621  1.0000
  C   C8        1.0  0.16905153808997042  0.4510075608802333  0.6819090755073347  1.0000
  C   C9        1.0  0.1369641924535763  0.396637889854748  0.5778821779426808  1.0000
  C   C10       1.0  0.06317044839805651  0.4003427068513947  0.5671806388274578  1.0000
  N   N2        1.0  0.003845283308303098  0.4033211852348189  0.558577310864667  1.0000
  C   C11       1.0  0.1768112604291947  0.33831357790366334  0.4844983047743521  1.0000
  C   C12       1.0  0.24849217455790643  0.3346159917735932  0.49479273040759564  1.0000
  C   C13       1.0  0.3855548311253107  0.34529173512800937  0.7427722394874008  1.0000
  C   C14       1.0  0.44421101663970186  0.388392286996887  0.7900093170654315  1.0000
  C   C15       1.0  0.48839595818357817  0.4862962612733409  0.7156063120644311  1.0000
  H   H1        1.0  0.4951491909529058  0.37112001215167395  0.4089206608024858  1.0000
  H   H2        1.0  0.3724343910764604  0.4331733513119399  0.4113810088551206  1.0000
  H   H3        1.0  0.264580069754294  0.49061621042739234  0.773302466956735  1.0000
  H   H4        1.0  0.1386996581993095  0.4962876865701373  0.7548272258415623  1.0000
  H   H5        1.0  0.1524752981911074  0.29525693804229847  0.4039856080108936  1.0000
  H   H6        1.0  0.2781789217241851  0.28709195055497516  0.42257159926550053  1.0000
  H   H7        1.0  0.3546045813196619  0.28103661630905596  0.8070444713058749  1.0000
  H   H8        1.0  0.4593710070946021  0.3542717517033494  0.887965373272953  1.0000
  H   H9        1.0  0.45826749433668734  0.5770302931273792  0.6903270291564141  1.0000
  H   H10       1.0  0.5316777426498034  0.5118514096021205  0.7786925710357058  1.0000
  C   C16       1.0  0.8257007887992188  0.02521501663436343  0.5601738055680088  1.0000
  C   C17       1.0  0.8139553078621792  0.03518956634286075  0.4253297429010902  1.0000
  C   C18       1.0  0.8079334923851296  0.9231104707477997  0.3568437769432413  1.0000
  C   C19       1.0  0.8137908617500225  0.7999329660903387  0.42502328498719466  1.0000
  C   C20       1.0  0.8255471796347739  0.7880029476069877  0.5599488581867942  1.0000
  C   C21       1.0  0.8314328268100913  0.9011628447919845  0.626693434863373  1.0000
  C   C22       1.0  0.7955090408511098  0.9346359935614796  0.2141950339324323  1.0000
  C   C23       1.0  0.8303920859128163  0.028137077231885858  0.1324782390989614  1.0000
  C   C24       1.0  0.8187055177941436  0.03885237175500823  0.9982362195036271  1.0000
  C   C25       1.0  0.7723298989812679  0.9553906073498089  0.9428636113730405  1.0000
  C   C26       1.0  0.7366067219115175  0.8637213603249091  0.02451920749778891  1.0000
  C   C27       1.0  0.7483183414428077  0.852749599433587  0.15872367931140863  1.0000
  N   N3        1.0  0.7584300331804593  0.9659469795175406  0.8054012317961265  1.0000
  C   C28       1.0  0.8086530017993114  0.001997399787858624  0.7067550293660201  1.0000
  O   O1        1.0  0.871749490097865  0.0033540998211372135  0.7340934201447387  1.0000
  C   C29       1.0  0.7867146372597765  0.028908448523129907  0.5683803789930417  1.0000
  H   H11       1.0  0.8302399522898106  0.3488541730298272  0.6120347278776168  1.0000
  H   H12       1.0  0.8085149640963334  0.13035722854452736  0.37355897222666123  1.0000
  H   H13       1.0  0.8100923684781548  0.7132246163020933  0.3724191554488909  1.0000
  H   H14       1.0  0.8404946771224479  0.8927543584652005  0.7307010136002683  1.0000
  H   H15       1.0  0.8481484647213469  0.5581947910930842  0.8144795692516702  1.0000
  H   H16       1.0  0.8671179791762099  0.09248984049807077  0.17227075859820906  1.0000
  H   H17       1.0  0.8450928912740909  0.11384583880864144  0.9384296992550336  1.0000
  H   H18       1.0  0.699814844947344  0.8000742354785408  0.9838600946294398  1.0000
  H   H19       1.0  0.7197208833885176  0.7814129589709533  0.21938158052389034  1.0000
  H   H20       1.0  0.7099875324931864  0.9379866375848649  0.7747258690506618  1.0000
  H   H21       1.0  0.7370663685287638  0.08327330140028179  0.5643380384803254  1.0000
  H   H22       1.0  0.780351305637827  0.9354356302954249  0.5232036299085894  1.0000
  H   H23       1.0  0.825870552104376  0.08829986226619946  0.5126535933132153  1.0000
  C   C30       1.0  0.8256337239874493  0.4067352682676196  0.17864434646379612  1.0000
  C   C31       1.0  0.7541261134685636  0.4279198443025472  0.17674152397111587  1.0000
  C   C32       1.0  0.7178997542578103  0.4385138658916699  0.058630840334592316  1.0000
  C   C33       1.0  0.75410563531778  0.4276553436190507  0.941482068772364  1.0000
  C   C34       1.0  0.8256142223249789  0.4064826300681342  0.9414783026993628  1.0000
  C   C35       1.0  0.860920375325524  0.39615540930810966  0.06053003626544661  1.0000
  C   C36       1.0  0.6423018284707573  0.4609045002488241  0.057626847662815006  1.0000
  C   C37       1.0  0.6119168355000866  0.5494034518277308  0.13876886527476207  1.0000
  C   C38       1.0  0.5407565949790767  0.5704327090029467  0.1377043417199686  1.0000
  C   C39       1.0  0.499034463834469  0.5033399781241065  0.05572150281724331  1.0000
  C   C40       1.0  0.5287405760023066  0.41508992124545374  0.9746890537686054  1.0000
  C   C41       1.0  0.599893493746101  0.39396642774334933  0.9755170558192704  1.0000
  C   C42       1.0  0.42577491166024833  0.5250403189731206  0.054746224038557445  1.0000
  N   N4        1.0  0.3668791716871752  0.5424860527243689  0.05396220065532131  1.0000
  H   H24       1.0  0.9606982524418302  0.36589736967372627  0.3896279795030613  1.0000
  H   H25       1.0  0.7263478942629493  0.4344413376628935  0.26748578863309813  1.0000
  H   H26       1.0  0.7265854590097146  0.4375117066967351  0.850003615048064  1.0000
  H   H27       1.0  0.9160326720370334  0.3798327602234912  0.06126169788322389  1.0000
  H   H28       1.0  0.9608055089231723  0.3672852938092569  0.7340824566686623  1.0000
  H   H29       1.0  0.6432787280223382  0.6035963570732907  0.20179549486644466  1.0000
  H   H30       1.0  0.5183206429516293  0.6392426078774645  0.20057721134510187  1.0000
  H   H31       1.0  0.49690301292460953  0.3623560732652079  0.9110942111343334  1.0000
  H   H32       1.0  0.6216543694133766  0.32403872982508997  0.9131969012659803  1.0000
  Zn  Zn1       1.0  0.7502596241958169  0.408002898483131  0.5606883776950216  1.0000
  Zn  Zn2       1.0  0.9009817354058354  0.4052145292036693  0.5594337596711043  1.0000
  C   C43       1.0  0.825617414160407  0.40135635254160995  0.797287913695772  1.0000
  C   C44       1.0  0.8256255909886941  0.4118626834026633  0.32283433696924924  1.0000
  C   C45       1.0  0.8255727880858136  0.6438215435513738  0.5548155962064862  1.0000
  C   C46       1.0  0.8256701659448799  0.16939593289602084  0.5653067245941465  1.0000
  O   O2        1.0  0.8828211183305568  0.41251965296416576  0.37074969564397836  1.0000
  O   O3        1.0  0.8828164819615906  0.3985820955396442  0.7484199553665336  1.0000
  O   O4        1.0  0.8827796747476075  0.5943758174883196  0.5526218494822677  1.0000
  O   O5        1.0  0.8828578741139116  0.21672594129017408  0.5665477045666771  1.0000
  O   O6        1.0  0.7683834340536809  0.596491487349576  0.5535744332207557  1.0000
  O   O7        1.0  0.7684202409520124  0.4006993258507292  0.7493724693907176  1.0000
  O   O8        1.0  0.7684248774157634  0.414636838531986  0.37170064808359804  1.0000
  O   O9        1.0  0.7684616331956869  0.21884311753626  0.5674987543891719  1.0000
