data_image0
_chemical_formula_structural       NC8NH4C6ClH5C6BrH4Zn2C4O8
_chemical_formula_sum              "N2 C24 H13 Cl1 Br1 Zn2 O8"
_cell_length_a       13.859017124695912
_cell_length_b       10.30297070629231
_cell_length_c       9.276567756262418
_cell_angle_alpha    86.12016662879066
_cell_angle_beta     90.18619718657982
_cell_angle_gamma    89.99834178165982

_space_group_name_H-M_alt    "P 1"
_space_group_IT_number       1

loop_
  _space_group_symop_operation_xyz
  'x, y, z'

loop_
  _atom_site_type_symbol
  _atom_site_label
  _atom_site_symmetry_multiplicity
  _atom_site_fract_x
  _atom_site_fract_y
  _atom_site_fract_z
  _atom_site_occupancy
  N   N1        1.0  0.9051019552575323  0.4068199690316805  0.41065552358164376  1.0000
  C   C1        1.0  0.8326257724879046  0.3857462415393609  0.35451083007659445  1.0000
  C   C2        1.0  0.7424697126685817  0.3595335995713127  0.2846740471161038  1.0000
  C   C3        1.0  0.655002065343022  0.38508825875747715  0.3527561239886453  1.0000
  C   C4        1.0  0.5672393915252818  0.3595346979998457  0.2846734680238618  1.0000
  C   C5        1.0  0.5671267286649879  0.30841954217774026  0.14848783690389172  1.0000
  C   C6        1.0  0.6544123836791881  0.28296310446373885  0.08066782616622124  1.0000
  C   C7        1.0  0.7419920901477055  0.3084174374896429  0.1484890148344053  1.0000
  C   C8        1.0  0.4773859326687608  0.385747071269563  0.354510332236472  1.0000
  N   N2        1.0  0.4051530803698417  0.4068202575539317  0.4106553076480261  1.0000
  H   H1        1.0  0.6552304721272686  0.4246533682149001  0.4581670652131511  1.0000
  H   H2        1.0  0.4997151732691694  0.28830704098176585  0.09489978953649489  1.0000
  H   H3        1.0  0.6541845054720425  0.24347879702956954  0.9754703599093472  1.0000
  H   H4        1.0  0.8091713947112655  0.2883030539431126  0.09490196633806589  1.0000
  C   C9        1.0  0.15513213147234883  0.025572732222229007  0.41066164063206023  1.0000
  C   C10       1.0  0.25482623010644767  0.022674488748360977  0.43841475641043015  1.0000
  C   C11       1.0  0.30429178075198293  0.9042796128937524  0.45218501099772074  1.0000
  C   C12       1.0  0.25482622918863096  0.7875665194808247  0.4384146886453337  1.0000
  C   C13       1.0  0.1551321419492362  0.7880576747623489  0.41066172311495164  1.0000
  C   C14       1.0  0.10577105627884231  0.9076543381316781  0.39692041749987417  1.0000
  Cl  Cl1       1.0  0.4288334624481313  0.9021625323364452  0.48685516559592645  1.0000
  H   H5        1.0  0.11757910884056466  0.35396756098803306  0.4002067212994509  1.0000
  H   H6        1.0  0.29447699571536146  0.11204705030117877  0.44945272133191927  1.0000
  H   H7        1.0  0.2944769573323025  0.6968458565600701  0.4494526178095426  1.0000
  H   H8        1.0  0.028883941939606753  0.9089612239264037  0.3755163359692093  1.0000
  H   H9        1.0  0.11757910472722921  0.4609395967110195  0.40020699334145715  1.0000
  C   C15       1.0  0.15421113466475167  0.40308423324512876  0.9875349039889303  1.0000
  C   C16       1.0  0.06846746452585517  0.4343384698041955  0.05814577460695092  1.0000
  C   C17       1.0  0.9870115009561722  0.4762868046456723  0.979444816399341  1.0000
  C   C18       1.0  0.9897692168625336  0.48783053622117367  0.82894897209174  1.0000
  C   C19       1.0  0.07362125736383218  0.45517384975231057  0.7566110397729469  1.0000
  C   C20       1.0  0.15605319119311378  0.4105461800564043  0.8337884264004947  1.0000
  Br  Br1       1.0  0.8782819248425584  0.5462875041140753  0.7216987889727795  1.0000
  H   H10       1.0  0.2869498665263637  0.28516341156246705  0.2783690385310571  1.0000
  H   H11       1.0  0.9219604623739891  0.5010397048561201  0.03576222894402158  1.0000
  H   H12       1.0  0.07346939848200673  0.46180557869280126  0.6395605769288202  1.0000
  H   H13       1.0  0.3148149736221247  0.39714027454943174  0.5543936343645657  1.0000
  Zn  Zn1       1.0  0.04940592939631805  0.4068166594742724  0.4106637865339363  1.0000
  Zn  Zn2       1.0  0.2608491243190103  0.40681308076231026  0.41065886267402685  1.0000
  C   C21       1.0  0.15570282283589854  0.403963646847974  0.6738283744904856  1.0000
  C   C22       1.0  0.15455454014044245  0.4096677326941971  0.1474944160871139  1.0000
  C   C23       1.0  0.15511469183272197  0.6438811314429917  0.4049198402227536  1.0000
  C   C24       1.0  0.15514259915998552  0.16974868897216733  0.4164030271763497  1.0000
  O   O1        1.0  0.23491138068259354  0.4118701932109863  0.20117642101605157  1.0000
  O   O2        1.0  0.23582647387469202  0.4017574871038112  0.6201422176856106  1.0000
  O   O3        1.0  0.23535047221786523  0.5954939033141511  0.4029966737171664  1.0000
  O   O4        1.0  0.23538730995301993  0.21813378533650868  0.4183218569495079  1.0000
  O   O5        1.0  0.07486767160710661  0.5954959549026417  0.4030007922525567  1.0000
  O   O6        1.0  0.07534367309236578  0.40176109782188113  0.6201462593935974  1.0000
  O   O7        1.0  0.07442857619363075  0.4118737434122404  0.20117873035840492  1.0000
  O   O8        1.0  0.07490450569525597  0.21813732720446777  0.4183242743209501  1.0000
