data_image0
_chemical_formula_structural       NC9NC5H8C7ONH7C7NC2NH8Zn2C4O8
_chemical_formula_sum              "N5 C34 H23 O9 Zn2"
_cell_length_a       17.807436237873137
_cell_length_b       10.297852080636378
_cell_length_c       9.27399911348925
_cell_angle_alpha    85.0628220767755
_cell_angle_beta     89.04204372891122
_cell_angle_gamma    88.36921327777658

_space_group_name_H-M_alt    "P 1"
_space_group_IT_number       1

loop_
  _space_group_symop_operation_xyz
  'x, y, z'

loop_
  _atom_site_type_symbol
  _atom_site_label
  _atom_site_symmetry_multiplicity
  _atom_site_fract_x
  _atom_site_fract_y
  _atom_site_fract_z
  _atom_site_occupancy
  N   N1        1.0  0.712027051370289  0.40036990299962505  0.39631606913563355  1.0000
  C   C1        1.0  0.6514844124695008  0.3652679808647543  0.3840635971541064  1.0000
  C   C2        1.0  0.5761760239238946  0.3216050555008729  0.36882285236821777  1.0000
  C   C3        1.0  0.558456755897625  0.25107571762221936  0.2521174246386357  1.0000
  C   C4        1.0  0.48533650013646046  0.20857157360968068  0.23722780650039454  1.0000
  C   C5        1.0  0.4288869836252904  0.23621944500382752  0.33900754850971326  1.0000
  C   C6        1.0  0.3511786974775414  0.19116272190122438  0.3232749618451667  1.0000
  C   C7        1.0  0.2888969375009482  0.27271209304162913  0.35210462427580724  1.0000
  C   C8        1.0  0.2156343730226084  0.2300047557773026  0.33723021250350044  1.0000
  C   C9        1.0  0.1523007199315636  0.31424286691722303  0.3664643293150757  1.0000
  N   N2        1.0  0.1013934548381699  0.3819644709838998  0.3899677517891207  1.0000
  C   C10       1.0  0.2040701641113931  0.1054902361752079  0.29349796386187554  1.0000
  C   C11       1.0  0.2654945857124201  0.023927081981624417  0.2646589767185288  1.0000
  C   C12       1.0  0.33863848999868756  0.06624153858474369  0.27930827774762546  1.0000
  C   C13       1.0  0.44729680657931725  0.3072413646564569  0.4559566382765347  1.0000
  C   C14       1.0  0.520470503098282  0.3495564113981693  0.47067325853451253  1.0000
  H   H1        1.0  0.6011003130451481  0.22920032716423777  0.17241220735194251  1.0000
  H   H2        1.0  0.4727172615194858  0.15558926165446607  0.14506584279646462  1.0000
  H   H3        1.0  0.2972756991810504  0.36994794883967574  0.3841998216998539  1.0000
  H   H4        1.0  0.1476483288989718  0.07153854010968574  0.28172234583857625  1.0000
  H   H5        1.0  0.2564213898328371  0.9275217575746899  0.23122957806959699  1.0000
  H   H6        1.0  0.3853579304491515  0.0006473112847462645  0.25813706047996354  1.0000
  H   H7        1.0  0.4053658402005164  0.3285665208424608  0.537100629379752  1.0000
  H   H8        1.0  0.5336213774787075  0.40376845622994706  0.5616775013661608  1.0000
  C   C15       1.0  0.9067939060843331  0.009726034898231097  0.3931491848441431  1.0000
  C   C16       1.0  0.8969729214942327  0.02091074068471155  0.2425283312714701  1.0000
  C   C17       1.0  0.8913291346256942  0.9095196052549214  0.1662851739501887  1.0000
  C   C18       1.0  0.8967831356487592  0.7856678933449402  0.24248163292536226  1.0000
  C   C19       1.0  0.9066337115434445  0.7725979418541906  0.39314699769709827  1.0000
  C   C20       1.0  0.9113967374891956  0.8851652497369856  0.46753342265718145  1.0000
  C   C21       1.0  0.8811426152395214  0.9239248881043688  0.007176977415487502  1.0000
  O   O1        1.0  0.9014349346711767  0.026634437140530265  0.9349718744634172  1.0000
  N   N3        1.0  0.8478044778428542  0.8242760624193624  0.9332013935181774  1.0000
  H   H9        1.0  0.9256278944522524  0.19584812162543128  0.6777416647788148  1.0000
  H   H10       1.0  0.8930350256284941  0.11668031749558017  0.1844121661502005  1.0000
  H   H11       1.0  0.8948350516308183  0.6990142962523307  0.1846250192114216  1.0000
  H   H12       1.0  0.9189640182195988  0.8757915974472633  0.5836188165605452  1.0000
  H   H13       1.0  0.9264558961744693  0.540585189887565  0.6775918443685814  1.0000
  H   H14       1.0  0.8443642599501219  0.834394908358637  0.8204860933675517  1.0000
  H   H15       1.0  0.8219770358948639  0.7449257125772337  0.9890822112196083  1.0000
  C   C22       1.0  0.9080106970195757  0.39442504193691863  0.9692755646258737  1.0000
  C   C23       1.0  0.967000710017589  0.3294390610981097  0.04679870024003651  1.0000
  C   C24       1.0  0.021019387592458267  0.2554407730888206  0.9772662527778424  1.0000
  C   C25       1.0  0.017500020827702075  0.243893079803704  0.8280273111890044  1.0000
  C   C26       1.0  0.9596402804299559  0.3110191855434734  0.7489270898455143  1.0000
  C   C27       1.0  0.90541694786668  0.38789893564499023  0.8170206259872526  1.0000
  C   C28       1.0  0.07517537511846606  0.16348183560411433  0.7563918988110379  1.0000
  N   N4        1.0  0.13810009063790885  0.1151227672246169  0.8234050688416028  1.0000
  C   C29       1.0  0.17448419034757068  0.048410315391658416  0.7234892651190834  1.0000
  C   C30       1.0  0.13344374191092487  0.05682377089417678  0.5986162747400985  1.0000
  N   N5        1.0  0.07098562866000656  0.12913445049871108  0.619467228290997  1.0000
  H   H16       1.0  0.8280009969023069  0.5621577951345238  0.23715621083864602  1.0000
  H   H17       1.0  0.970403260615103  0.33314358943202427  0.16289435262722485  1.0000
  H   H18       1.0  0.06508933048401652  0.2055066857224281  0.04127575570802787  1.0000
  H   H19       1.0  0.9577825686107859  0.30759242920272456  0.6328524039288994  1.0000
  H   H20       1.0  0.7881776951949774  0.4667515104127469  0.5331695068380942  1.0000
  H   H21       1.0  0.22764236754900777  0.9964603730425124  0.7409913203296479  1.0000
  H   H22       1.0  0.1478740042798965  0.012769218376393  0.4996885958005053  1.0000
  H   H23       1.0  0.028477699749659188  0.15083205719663106  0.5444547561971569  1.0000
  Zn  Zn1       1.0  0.8243897586275906  0.3950549626949471  0.39449242976191057  1.0000
  Zn  Zn2       1.0  0.9890306953000558  0.3872687317642751  0.39180325771485514  1.0000
  C   C31       1.0  0.9059066316601065  0.3839579300618343  0.6567787335386821  1.0000
  C   C32       1.0  0.9075156193638921  0.398367317210436  0.12951706624043058  1.0000
  C   C33       1.0  0.9066777456554101  0.6284433728075889  0.3873955701800429  1.0000
  C   C34       1.0  0.9067444492803445  0.15388031593188464  0.3989003074763546  1.0000
  O   O2        1.0  0.9698298454035623  0.396729879933938  0.18227505124521604  1.0000
  O   O3        1.0  0.9685510684999075  0.37968482151421634  0.6019793136648848  1.0000
  O   O4        1.0  0.9691729059457356  0.5771099367503367  0.38445051707581634  1.0000
  O   O5        1.0  0.9692079521061145  0.19930477747986108  0.39980374052479734  1.0000
  O   O6        1.0  0.8442124456376834  0.5830189196378921  0.3864919478620581  1.0000
  O   O7        1.0  0.8435906080962509  0.3855953655930986  0.6040206674839321  1.0000
  O   O8        1.0  0.8448693903690414  0.4026403921055448  0.18431466964448728  1.0000
  O   O9        1.0  0.8442474967393647  0.20521527952795535  0.4018434671436455  1.0000
