data_image0
_chemical_formula_structural       NC6NC2H4C12H10C12H9Zn2C4O8
_chemical_formula_sum              "N2 C36 H23 Zn2 O8"
_cell_length_a       14.927258858638513
_cell_length_b       14.388199552941785
_cell_length_c       14.388202922059104
_cell_angle_alpha    85.37141914913748
_cell_angle_beta     92.42189218729648
_cell_angle_gamma    92.40759436960245

_space_group_name_H-M_alt    "P 1"
_space_group_IT_number       1

loop_
  _space_group_symop_operation_xyz
  'x, y, z'

loop_
  _atom_site_type_symbol
  _atom_site_label
  _atom_site_symmetry_multiplicity
  _atom_site_fract_x
  _atom_site_fract_y
  _atom_site_fract_z
  _atom_site_occupancy
  N   N1        1.0  0.842563938380889  0.013868774488215774  0.967449524218859  1.0000
  C   C1        1.0  0.7650374467524823  0.013868756117018962  0.9674495311700215  1.0000
  C   C2        1.0  0.6686049408804785  0.013868830262405922  0.9674494985184622  1.0000
  C   C3        1.0  0.6175920269460553  0.9981811762786708  0.8858090860557772  1.0000
  C   C4        1.0  0.5238807127440785  0.9981811924122957  0.8858089998396264  1.0000
  C   C5        1.0  0.4807888727700293  0.01386871570463485  0.9674495112805316  1.0000
  C   C6        1.0  0.3843562999064104  0.013868789851917196  0.9674494786251377  1.0000
  N   N2        1.0  0.306829808278003  0.013868771480720384  0.9674494855763004  1.0000
  C   C7        1.0  0.5318017197128371  0.0295563696902652  0.04908992373938162  1.0000
  C   C8        1.0  0.6255130339148145  0.0295563535566401  0.049090009955532816  1.0000
  H   H1        1.0  0.650206697479953  0.9859752965968294  0.8222881594911109  1.0000
  H   H2        1.0  0.48510304696826173  0.9859754241000032  0.8222881554810708  1.0000
  H   H3        1.0  0.4991871187529936  0.04176224304811393  0.11261092008515866  1.0000
  H   H4        1.0  0.6642907051213677  0.041762185041094295  0.11261092489937252  1.0000
  C   C9        1.0  0.06369653021099442  0.7404928945559278  0.9692270666481921  1.0000
  C   C10       1.0  0.9746937296715732  0.7618621882337693  0.9842244098347609  1.0000
  C   C11       1.0  0.9085495982558971  0.6907989288279676  0.995506337209043  1.0000
  C   C12       1.0  0.9302159189414223  0.5977528635263262  0.9919762292195811  1.0000
  C   C13       1.0  0.01872449629705741  0.5745962384982112  0.9769813408059185  1.0000
  C   C14       1.0  0.0851043808754679  0.6466017021523859  0.9657049314131159  1.0000
  C   C15       1.0  0.04180093489186289  0.475592041073473  0.9730994374263988  1.0000
  C   C16       1.0  0.005199342228006553  0.40570277391684706  0.03593068391450219  1.0000
  C   C17       1.0  0.026939234916237637  0.3125493816546162  0.032303637177525164  1.0000
  C   C18       1.0  0.08570586675911356  0.2872375457674671  0.9656800472329752  1.0000
  C   C19       1.0  0.1222605661798341  0.35701666701610396  0.9028267720078584  1.0000
  C   C20       1.0  0.10057464940375055  0.4501824434985696  0.9065052361688959  1.0000
  H   H5        1.0  0.27082651993009477  0.8447892293286908  0.9343479851606921  1.0000
  H   H6        1.0  0.9561326909904038  0.8334770503990513  0.9872372011310002  1.0000
  H   H7        1.0  0.840133256881162  0.7079332507279134  0.006781143830301155  1.0000
  H   H8        1.0  0.8775052227813539  0.5439823649417435  0.9997333511634519  1.0000
  H   H9        1.0  0.15370955048288176  0.6292633955143235  0.9554544986791529  1.0000
  H   H10       1.0  0.9606131769461674  0.42323035077967325  0.08877737232837324  1.0000
  H   H11       1.0  0.9978519298473733  0.2604013138721379  0.08187623728397453  1.0000
  H   H12       1.0  0.1835333740507519  0.09709802892973914  0.8919049696211294  1.0000
  H   H13       1.0  0.1675242372526362  0.33971204515542897  0.850514417281047  1.0000
  H   H14       1.0  0.1289097099954975  0.5022358922663407  0.8563501261378335  1.0000
  C   C21       1.0  0.06352213310677901  0.012547678016704422  0.6943201377828321  1.0000
  C   C22       1.0  0.97303529417594  0.0012397720698973335  0.717724115124269  1.0000
  C   C23       1.0  0.9057728946980415  0.9926999709716781  0.6481942047355306  1.0000
  C   C24       1.0  0.9277868939413093  0.9953322031088233  0.5546717829448617  1.0000
  C   C25       1.0  0.017780320264632506  0.006658031472331906  0.5294791810176931  1.0000
  C   C26       1.0  0.08527731696637919  0.015182579375368597  0.5999528888749679  1.0000
  C   C27       1.0  0.04124084940054633  0.009583396330129036  0.4299484167707208  1.0000
  C   C28       1.0  0.9976488745452774  0.9484013663972393  0.36975067047561516  1.0000
  C   C29       1.0  0.01974724527341199  0.9511273201190776  0.27610598682476134  1.0000
  C   C30       1.0  0.08588026546303928  0.01518274862049118  0.24058699389401983  1.0000
  C   C31       1.0  0.12942785029445264  0.07638864874971807  0.30067101890388526  1.0000
  C   C32       1.0  0.10737765799390898  0.07360920696930015  0.39433631813897474  1.0000
  H   H15       1.0  0.2741032687350275  0.038840666261647845  0.7938850202246155  1.0000
  H   H16       1.0  0.9541776967838369  0.9989961221026987  0.7897452776935445  1.0000
  H   H17       1.0  0.8362443109657434  0.9842606862038334  0.6668529970607455  1.0000
  H   H18       1.0  0.8743239453258129  0.9897575345949219  0.5019304574033829  1.0000
  H   H19       1.0  0.15487899458743945  0.022592210613204596  0.5812509082097137  1.0000
  H   H20       1.0  0.9472148943579521  0.897508506146279  0.39538171214940365  1.0000
  H   H21       1.0  0.9851451244585022  0.9028645928209962  0.23160356670845483  1.0000
  H   H22       1.0  0.18047770344043598  0.12672055782139768  0.2753487975450497  1.0000
  H   H23       1.0  0.14129484767866063  0.12248401511288542  0.438650511691723  1.0000
  Zn  Zn1       1.0  0.9765411672693036  0.013866305038898293  0.967454903640388  1.0000
  Zn  Zn2       1.0  0.17285259559306365  0.013863652432854342  0.9674517854155977  1.0000
  C   C33       1.0  0.08150278947606121  0.010976010819792048  0.13735490626668256  1.0000
  C   C34       1.0  0.06789316812151291  0.016755121671628178  0.7975518664254215  1.0000
  C   C35       1.0  0.08138930579127425  0.18387326281689287  0.962644092024247  1.0000
  C   C36       1.0  0.06800654182434568  0.8438567514461756  0.9722627375131768  1.0000
  O   O1        1.0  0.1438591278746789  0.01816211018587173  0.8321962205894913  1.0000
  O   O2        1.0  0.15453262225391762  0.00956630545495573  0.10270792225269687  1.0000
  O   O3        1.0  0.15444001804255855  0.14918302770556902  0.9616276973801392  1.0000
  O   O4        1.0  0.14395166251198435  0.8785453942592517  0.9732763756809379  1.0000
  O   O5        1.0  0.00544203335876726  0.1491845632143962  0.9616303133712134  1.0000
  O   O6        1.0  0.005534680560465243  0.009568959194029555  0.10271048139461764  1.0000
  O   O7        1.0  0.9948611391656107  0.018164726089991538  0.8321976616789724  1.0000
  O   O8        1.0  0.9949536763853547  0.8785480038412736  0.9732778865476963  1.0000
