data_image0
_chemical_formula_structural       NC6NC3H6C6ClH5C6SCH7Zn2C4O8
_chemical_formula_sum              "N2 C26 H18 Cl1 S1 Zn2 O8"
_cell_length_a       14.934028789175542
_cell_length_b       9.276545438789551
_cell_length_c       9.275274088470228
_cell_angle_alpha    86.1334652357246
_cell_angle_beta     89.70124822598929
_cell_angle_gamma    89.37211250715544

_space_group_name_H-M_alt    "P 1"
_space_group_IT_number       1

loop_
  _space_group_symop_operation_xyz
  'x, y, z'

loop_
  _atom_site_type_symbol
  _atom_site_label
  _atom_site_symmetry_multiplicity
  _atom_site_fract_x
  _atom_site_fract_y
  _atom_site_fract_z
  _atom_site_occupancy
  N   N1        1.0  0.8379118706601857  0.5621271823425034  0.4107715825952912  1.0000
  C   C1        1.0  0.7604348869516802  0.5610227198184273  0.41009226446643043  1.0000
  C   C2        1.0  0.6640496550003149  0.5596436921288197  0.40924426195943786  1.0000
  C   C3        1.0  0.6154069653841545  0.6670422740937059  0.47518028493282377  1.0000
  C   C4        1.0  0.521904314491099  0.6659350205342858  0.4745003714187979  1.0000
  C   C5        1.0  0.4761313544076409  0.5574839953805446  0.4079182843897642  1.0000
  C   C6        1.0  0.3794665139662362  0.559810933924892  0.4093481645170998  1.0000
  N   N2        1.0  0.3019712568908604  0.5616576561484661  0.41048328293729686  1.0000
  C   C7        1.0  0.52478065134219  0.4485995722582928  0.3410694961859799  1.0000
  C   C8        1.0  0.47743065852919975  0.3306907762509719  0.2686821579131134  1.0000
  C   C9        1.0  0.6189051115566454  0.4508366708838876  0.3424429871244403  1.0000
  H   H1        1.0  0.6497577811986106  0.7516624000124598  0.527132344076528  1.0000
  H   H2        1.0  0.4851805261820943  0.7499034474195323  0.5260521847174215  1.0000
  H   H3        1.0  0.43463554524587494  0.37891364604844285  0.18012606012423032  1.0000
  H   H4        1.0  0.4348453570257195  0.2686133772464414  0.3487390680425029  1.0000
  H   H5        1.0  0.5255153750085486  0.25431948141708527  0.22178853333400708  1.0000
  H   H6        1.0  0.6571128048965332  0.36798527708911255  0.29157725186004657  1.0000
  C   C10       1.0  0.07264907955041977  0.13845227161446877  0.4103881766943265  1.0000
  C   C11       1.0  0.07338290528687619  0.22084011365408385  0.27737157364776766  1.0000
  C   C12       1.0  0.0659615238312885  0.15453283419815445  0.14725515742940812  1.0000
  C   C13       1.0  0.057627375485493015  0.004958604922762559  0.14815357535944096  1.0000
  C   C14       1.0  0.05828230384681764  0.9210077621430096  0.27872780253681184  1.0000
  C   C15       1.0  0.06724270647518543  0.9853215989341952  0.41087913511146024  1.0000
  Cl  Cl1       1.0  0.06575615556133951  0.25959240516256155  0.9827292937187085  1.0000
  H   H7        1.0  0.11777297643851203  0.40351677844454764  0.6369342924113657  1.0000
  H   H8        1.0  0.07758716307834597  0.3375293359640026  0.2745157140389112  1.0000
  H   H9        1.0  0.05149414478632927  0.9532874346800047  0.047487989622447165  1.0000
  H   H10       1.0  0.0539124571430598  0.8047265583801005  0.2760805103468873  1.0000
  H   H11       1.0  0.03653357984225367  0.6888295838952609  0.6439327811066891  1.0000
  C   C16       1.0  0.07122897595719158  0.557867623791215  0.9874336249203709  1.0000
  C   C17       1.0  0.14715987767651673  0.6085460292335767  0.0567640159765015  1.0000
  C   C18       1.0  0.21804402911532839  0.6707174803718344  0.9766917477484302  1.0000
  C   C19       1.0  0.21418560349177945  0.6823476148324576  0.8261407128779008  1.0000
  C   C20       1.0  0.1401751364937982  0.6305757810599069  0.7553055882076368  1.0000
  C   C21       1.0  0.06866279228836264  0.565906233232893  0.8338336700038975  1.0000
  S   S1        1.0  0.31379770284661435  0.7359977396017947  0.06735825048741619  1.0000
  C   C22       1.0  0.266619864479241  0.9165300145738543  0.07922364212124511  1.0000
  H   H12       1.0  0.8547712403779119  0.49875618477105516  0.09623866001898908  1.0000
  H   H13       1.0  0.2688993928532808  0.73060542038445  0.763636663264311  1.0000
  H   H14       1.0  0.13986432888296885  0.6380468128674424  0.6382506191741824  1.0000
  H   H15       1.0  0.9240355985812418  0.5202241456151102  0.5569823390347263  1.0000
  H   H16       1.0  0.2534980040835204  0.9669342073656839  0.9692987162965294  1.0000
  H   H17       1.0  0.20334922668944644  0.9111774831665573  0.14262540039817906  1.0000
  H   H18       1.0  0.3151083509775352  0.9837602407793832  0.1342315733401822  1.0000
  Zn  Zn1       1.0  0.9718293982603378  0.5619879022006047  0.4106966991304913  1.0000
  Zn  Zn2       1.0  0.16805379903901538  0.5617852364997777  0.4105699418917621  1.0000
  C   C23       1.0  0.06918252621860357  0.5586423232888057  0.6738426117004273  1.0000
  C   C24       1.0  0.07070280180132958  0.5651326339281603  0.1474241704402013  1.0000
  C   C25       1.0  0.06827741114914371  0.8251906991272401  0.4050435063592519  1.0000
  C   C26       1.0  0.07160786073995905  0.2985825264589508  0.4162233516534986  1.0000
  O   O1        1.0  0.1449923905715198  0.5674876363535616  0.20107035168997167  1.0000
  O   O2        1.0  0.14382272551814734  0.5561324105438095  0.6200998091568215  1.0000
  O   O3        1.0  0.14309082527038638  0.7713736102662538  0.4030426313132103  1.0000
  O   O4        1.0  0.14572422412294506  0.3522464459891179  0.4181274215274393  1.0000
  O   O5        1.0  0.9941589062146634  0.7715266927819219  0.4031392195304899  1.0000
  O   O6        1.0  0.9948907956315094  0.5562872247609105  0.620196321537656  1.0000
  O   O7        1.0  0.9960604663184639  0.567642383866375  0.20116513137601455  1.0000
  O   O8        1.0  0.9967922996044801  0.3524011842145893  0.4182223092553028  1.0000
