data_image0
_chemical_formula_structural       NC5NC4H6C6BrH5C6NH7Zn2C4O8
_chemical_formula_sum              "N3 C25 H18 Br1 Zn2 O8"
_cell_length_a       13.854160002989762
_cell_length_b       9.276564384272257
_cell_length_c       9.274774538082516
_cell_angle_alpha    85.01137938942293
_cell_angle_beta     90.34967120186236
_cell_angle_gamma    90.58592978602583

_space_group_name_H-M_alt    "P 1"
_space_group_IT_number       1

loop_
  _space_group_symop_operation_xyz
  'x, y, z'

loop_
  _atom_site_type_symbol
  _atom_site_label
  _atom_site_symmetry_multiplicity
  _atom_site_fract_x
  _atom_site_fract_y
  _atom_site_fract_z
  _atom_site_occupancy
  N   N1        1.0  0.9133008300254291  0.5920954640596106  0.4067017153077211  1.0000
  C   C1        1.0  0.8409026838107541  0.6178201080602148  0.34756510832927634  1.0000
  C   C2        1.0  0.7508383672549988  0.6498222686755382  0.27399690516361375  1.0000
  C   C3        1.0  0.6633544842144543  0.6197161226409553  0.345828753584122  1.0000
  C   C4        1.0  0.5756959548884082  0.6498222832058678  0.2739968819518901  1.0000
  C   C5        1.0  0.4857945418075071  0.6178199599532415  0.34756520018217185  1.0000
  N   N2        1.0  0.4135272589927189  0.5920954005681289  0.4067017152743593  1.0000
  C   C6        1.0  0.5755581692980316  0.7106407690658536  0.1303516689118711  1.0000
  C   C7        1.0  0.6630236168332851  0.7428977820863549  0.05841445199383122  1.0000
  C   C8        1.0  0.6628085249802668  0.8040575197208859  0.9032666089237504  1.0000
  C   C9        1.0  0.7506352579607452  0.7106407685274472  0.13035157852923884  1.0000
  H   H1        1.0  0.6634856712232413  0.5725325089628901  0.457007604424222  1.0000
  H   H2        1.0  0.5076099871337691  0.7329106398142682  0.07461872358393395  1.0000
  H   H3        1.0  0.728033366980031  0.8724204178013255  0.8793948493836391  1.0000
  H   H4        1.0  0.5983248895965391  0.8724204191107954  0.8793949145429689  1.0000
  H   H5        1.0  0.6619006580976506  0.7141634876466753  0.8317049363857265  1.0000
  H   H6        1.0  0.8184329466412085  0.7329107530340564  0.07461863796314328  1.0000
  C   C10       1.0  0.1605120560937039  0.16861125182625214  0.40707079785813627  1.0000
  C   C11       1.0  0.14761133031706986  0.25325852195213905  0.2751614350647209  1.0000
  C   C12       1.0  0.14369850995032896  0.18940691050277736  0.14448417216355927  1.0000
  C   C13       1.0  0.15265497636015807  0.04001062016107594  0.14323498040143567  1.0000
  C   C14       1.0  0.16384724190730338  0.9536873806061239  0.2731496507944857  1.0000
  C   C15       1.0  0.16632525421871366  0.01556836905060277  0.4063451105133154  1.0000
  Br  Br1       1.0  0.14800961317260097  0.9532133619131807  0.9639229437377477  1.0000
  H   H7        1.0  0.1331527535474033  0.42912164297496336  0.6417096543234572  1.0000
  H   H8        1.0  0.14283804022004887  0.36993641817221046  0.27269062435868485  1.0000
  H   H9        1.0  0.13461987859530278  0.25650204576679014  0.04395307937337313  1.0000
  H   H10       1.0  0.16830069723245344  0.8374744774576917  0.2700380197229695  1.0000
  H   H11       1.0  0.22047708055682114  0.7156794630831731  0.6311277675123843  1.0000
  C   C16       1.0  0.16171172416927693  0.5957782274029205  0.9828885035850897  1.0000
  C   C17       1.0  0.23069008203998886  0.6808796878836907  0.04955210392325561  1.0000
  C   C18       1.0  0.3039172134134575  0.7541019150720875  0.9687244558778865  1.0000
  C   C19       1.0  0.30875727034969547  0.7425547709634603  0.8197569340778648  1.0000
  C   C20       1.0  0.24011039132739576  0.6606301276640425  0.7513880494140612  1.0000
  C   C21       1.0  0.16512557314349524  0.588401382518177  0.8305274503305888  1.0000
  N   N3        1.0  0.37400228367144983  0.8390027468722181  0.0383934733035316  1.0000
  H   H12       1.0  0.015498731356343718  0.31387165268417694  0.10905033866560765  1.0000
  H   H13       1.0  0.22899956705825542  0.6877192078806256  0.16556637334709756  1.0000
  H   H14       1.0  0.3652885173235285  0.7982720019955628  0.7561784292686582  1.0000
  H   H15       1.0  0.24438700184709586  0.6566187368463401  0.6352184368812841  1.0000
  H   H16       1.0  0.06371171617095217  0.40291758298419006  0.5646045801752424  1.0000
  H   H17       1.0  0.3712614341246861  0.8480461493599076  0.14975564800714605  1.0000
  H   H18       1.0  0.4291325712989087  0.893585931445855  0.9791046246861194  1.0000
  Zn  Zn1       1.0  0.05765538459602171  0.5920915121873005  0.4067100620205951  1.0000
  Zn  Zn2       1.0  0.2691726723377157  0.5920874483590831  0.4067052316569542  1.0000
  C   C22       1.0  0.16443870343169822  0.5840507787796145  0.6703104632472876  1.0000
  C   C23       1.0  0.16239167632363347  0.6001300000646563  0.14310497047344528  1.0000
  C   C24       1.0  0.16519830145024672  0.8555255190476854  0.40073109469725177  1.0000
  C   C25       1.0  0.1616319945469404  0.3286535265189581  0.4126844174552122  1.0000
  O   O1        1.0  0.24288953966251697  0.6015826611036255  0.19687325264908528  1.0000
  O   O2        1.0  0.24447755817157946  0.582593949089826  0.6165381004102777  1.0000
  O   O3        1.0  0.24508986714794812  0.8018132220835763  0.39885085172738455  1.0000
  O   O4        1.0  0.24227715814460274  0.3823633993691762  0.4145603931112476  1.0000
  O   O5        1.0  0.08455082660864521  0.80181556118023  0.39885490056035744  1.0000
  O   O6        1.0  0.08393852920993193  0.58259802146713  0.6165420708055751  1.0000
  O   O7        1.0  0.08235050343163493  0.601586698328333  0.19687548788565978  1.0000
  O   O8        1.0  0.08173812227477639  0.3823674253376055  0.4145627365626086  1.0000
