data_image0
_chemical_formula_structural       NC8NH4C6NH5C6NH7Zn2C4O8
_chemical_formula_sum              "N4 C24 H16 Zn2 O8"
_cell_length_a       14.927258825633057
_cell_length_b       9.274771166103582
_cell_length_c       9.274774538082514
_cell_angle_alpha    84.9550519661537
_cell_angle_beta     90.34966621466518
_cell_angle_gamma    90.59705077502286

_space_group_name_H-M_alt    "P 1"
_space_group_IT_number       1

loop_
  _space_group_symop_operation_xyz
  'x, y, z'

loop_
  _atom_site_type_symbol
  _atom_site_label
  _atom_site_symmetry_multiplicity
  _atom_site_fract_x
  _atom_site_fract_y
  _atom_site_fract_z
  _atom_site_occupancy
  N   N1        1.0  0.8478319160306192  0.5925437504404271  0.4051315884638851  1.0000
  C   C1        1.0  0.7703054915480481  0.5925437238975806  0.40513159817678024  1.0000
  C   C2        1.0  0.6738728500064233  0.5925437231276554  0.4051316533287508  1.0000
  C   C3        1.0  0.6259135629361531  0.5049874816559141  0.3154406989094225  1.0000
  C   C4        1.0  0.5322022506926115  0.504987392048265  0.31544067057342096  1.0000
  C   C5        1.0  0.4860568526123522  0.5925437769504271  0.4051315653021174  1.0000
  C   C6        1.0  0.534016139348844  0.6801000296816153  0.49482241149555994  1.0000
  C   C7        1.0  0.6277275185839245  0.6801001192862461  0.49482243983749874  1.0000
  C   C8        1.0  0.3896242100317829  0.5925436797831254  0.40513151047326523  1.0000
  N   N2        1.0  0.31209778625437784  0.592543760897102  0.40513152194109686  1.0000
  H   H1        1.0  0.6609040174617847  0.43686358791118546  0.24565612199560036  1.0000
  H   H2        1.0  0.4958003617894616  0.4368635633832456  0.2456562193931959  1.0000
  H   H3        1.0  0.49902568482321236  0.7482239234263438  0.5646069884093814  1.0000
  H   H4        1.0  0.664129340829314  0.7482239366948362  0.5646069992376728  1.0000
  C   C9        1.0  0.07722176168012518  0.16894033303791978  0.40591824492417716  1.0000
  C   C10       1.0  0.056125109526371064  0.25337261321032356  0.2768532846387141  1.0000
  C   C11       1.0  0.04338951414139425  0.18945388392565787  0.14696946251656806  1.0000
  C   C12       1.0  0.05179402029605274  0.03973359090560713  0.14520984001222104  1.0000
  C   C13       1.0  0.07122748732945317  0.9539973167445206  0.27250182519653987  1.0000
  C   C14       1.0  0.08271651922751988  0.01613595849081739  0.40435743154574566  1.0000
  N   N3        1.0  0.02283795992898452  0.2769980102519966  0.016486003475703274  1.0000
  H   H5        1.0  0.17922126042854813  0.24585102452837493  0.7217799061579433  1.0000
  H   H6        1.0  0.04241926153064557  0.9891162942277542  0.04527734287060258  1.0000
  H   H7        1.0  0.14779441026382623  0.7171989284076937  0.6192551978897272  1.0000
  H   H8        1.0  0.016665558926790558  0.389072319996721  0.016439127091697262  1.0000
  H   H9        1.0  0.0135564062300233  0.23037725953589772  0.9189270220521107  1.0000
  C   C15       1.0  0.07838534644324557  0.5962275684763028  0.9813147112117381  1.0000
  C   C16       1.0  0.14241494380425612  0.6813529924303607  0.04789438161793247  1.0000
  C   C17       1.0  0.2103864816588581  0.7545958390525731  0.9669945174491188  1.0000
  C   C18       1.0  0.2148772380787427  0.7430454444397006  0.8180383818961459  1.0000
  C   C19       1.0  0.15115566306637862  0.6610977320561666  0.7497502943859109  1.0000
  C   C20       1.0  0.08155291259487575  0.588848647043644  0.8289609319698279  1.0000
  N   N4        1.0  0.2754432079125453  0.8395205779229522  0.03657980263649274  1.0000
  H   H10       1.0  0.9426502898057794  0.31424161842885523  0.10775456084930246  1.0000
  H   H11       1.0  0.14084676058863654  0.6881944378269209  0.16390190666275672  1.0000
  H   H12       1.0  0.2673510787822926  0.7987783655439897  0.7544049253232669  1.0000
  H   H13       1.0  0.15512436327724966  0.6570852122246817  0.6335846369956659  1.0000
  H   H14       1.0  0.9874077696047802  0.40331262118834443  0.5632209855250405  1.0000
  H   H15       1.0  0.272900455934588  0.8485665261908644  0.14793305980459293  1.0000
  H   H16       1.0  0.32661666902715036  0.8941191332012314  0.9772371207559823  1.0000
  Zn  Zn1       1.0  0.9818090321579825  0.5925398078509978  0.4051399193909193  1.0000
  Zn  Zn2       1.0  0.17812065070219796  0.5925357581107518  0.40513506419414136  1.0000
  C   C21       1.0  0.08091491008356  0.5844968184356805  0.6687482352115741  1.0000
  C   C22       1.0  0.07901692882747469  0.600580566336027  0.14152688662328772  1.0000
  C   C23       1.0  0.08165177899025466  0.8560479866967924  0.3989011590114302  1.0000
  C   C24       1.0  0.07827998198036012  0.32902766430931335  0.4113740429643993  1.0000
  O   O1        1.0  0.15372808897973833  0.6020336421377266  0.19529372532018252  1.0000
  O   O2        1.0  0.15519971745417105  0.5830395843703438  0.6149772980747872  1.0000
  O   O3        1.0  0.15579374973796534  0.8023205739312911  0.3970738720918119  1.0000
  O   O4        1.0  0.1531339893706265  0.3827526638392451  0.41319704307133387  1.0000
  O   O5        1.0  0.006795626498014906  0.8023229021255227  0.3970779405077889  1.0000
  O   O6        1.0  0.00620160516310198  0.5830436463331954  0.6149812863438595  1.0000
  O   O7        1.0  0.0047299699378813296  0.6020376689380849  0.19529597846519708  1.0000
  O   O8        1.0  0.004135870662548061  0.3827566793801562  0.41319940444223535  1.0000
