data_image0
_chemical_formula_structural       NC5NC4H6C9H8C6SCH8Zn2C4O8
_chemical_formula_sum              "N2 C29 H22 S1 Zn2 O8"
_cell_length_a       13.854160002989762
_cell_length_b       9.275152443626249
_cell_length_c       10.302812801239593
_cell_angle_alpha    85.3632325581603
_cell_angle_beta     89.99986876837025
_cell_angle_gamma    90.57354205828562

_space_group_name_H-M_alt    "P 1"
_space_group_IT_number       1

loop_
  _space_group_symop_operation_xyz
  'x, y, z'

loop_
  _atom_site_type_symbol
  _atom_site_label
  _atom_site_symmetry_multiplicity
  _atom_site_fract_x
  _atom_site_fract_y
  _atom_site_fract_z
  _atom_site_occupancy
  N   N1        1.0  0.9194916412730741  0.5787933601230346  0.5630398482089424  1.0000
  C   C1        1.0  0.8473280565394966  0.6040123616986486  0.5097841411778619  1.0000
  C   C2        1.0  0.7575555434869186  0.6353854836778678  0.4435320033610708  1.0000
  C   C3        1.0  0.6697865805244038  0.6058939373499381  0.5082177839667372  1.0000
  C   C4        1.0  0.5824131312117597  0.6353854980113114  0.4435319824472602  1.0000
  C   C5        1.0  0.49221991418742816  0.6040122143384083  0.5097842241500705  1.0000
  N   N2        1.0  0.419718070249602  0.5787932966085738  0.5630398483278811  1.0000
  C   C6        1.0  0.5828453440796999  0.694975161995609  0.31417562592462467  1.0000
  C   C7        1.0  0.6705959876482027  0.7266174265874066  0.24939001696984886  1.0000
  C   C8        1.0  0.6709971871971919  0.7864483240093205  0.10968585905145714  1.0000
  C   C9        1.0  0.7579224331066251  0.6949751606701517  0.31417554462368386  1.0000
  H   H1        1.0  0.6694766147632397  0.5596613703098092  0.6083375737584087  1.0000
  H   H2        1.0  0.5151185060577173  0.7167677875738099  0.26398973128168945  1.0000
  H   H3        1.0  0.7363084018166552  0.854627827035132  0.0880520351589378  1.0000
  H   H4        1.0  0.6065999241704613  0.8546278289123377  0.08805209376886514  1.0000
  H   H5        1.0  0.670390517750954  0.6958991628933076  0.045524626863831415  1.0000
  H   H6        1.0  0.8259414658938719  0.7167679000886542  0.2639896539973119  1.0000
  C   C10       1.0  0.16676210086983367  0.15516103115838198  0.5643653292772892  1.0000
  C   C11       1.0  0.1319422626153743  0.23790043560255894  0.45406829343991884  1.0000
  C   C12       1.0  0.106094649603522  0.17245909294836492  0.3417062225514118  1.0000
  C   C13       1.0  0.11466101887794486  0.023117152531996858  0.33741645166541845  1.0000
  C   C14       1.0  0.1475933687056187  0.9386896015251908  0.4467813345529946  1.0000
  C   C15       1.0  0.1724567867168769  0.0024145489954057317  0.5617256285673535  1.0000
  C   C16       1.0  0.08851019829911472  0.9559676467851552  0.22105846067238513  1.0000
  C   C17       1.0  0.06661499690122061  0.8997122951854921  0.12362688685517575  1.0000
  C   C18       1.0  0.040049497915385576  0.8314443766380063  0.0054107595995938115  1.0000
  H   H7        1.0  0.30545703909324545  0.23681246021704316  0.8236511690723091  1.0000
  H   H8        1.0  0.12685774045571405  0.3544179223058943  0.45365990929405364  1.0000
  H   H9        1.0  0.08028789108005929  0.23869886078000027  0.25762167304271233  1.0000
  H   H10       1.0  0.15165730200695116  0.8223795709953833  0.4431595556964807  1.0000
  H   H11       1.0  0.2627417172278845  0.7071151372666588  0.7390684373907503  1.0000
  H   H12       1.0  0.05769489099826573  0.7147225450446725  0.01753968503957682  1.0000
  H   H13       1.0  0.9614884758970732  0.8440269530340747  0.9876371130298593  1.0000
  H   H14       1.0  0.08081178951729241  0.8837929039060329  0.9213736217376916  1.0000
  C   C19       1.0  0.1696094688963334  0.578787781186098  0.1817970349571612  1.0000
  C   C20       1.0  0.13802468310485305  0.7226504839643133  0.17015153997948596  1.0000
  C   C21       1.0  0.12205881780736028  0.7940192478130965  0.047382187010122104  1.0000
  C   C22       1.0  0.13802459506971476  0.7226503325293097  0.935000370762039  1.0000
  C   C23       1.0  0.16960940622313925  0.578787771464281  0.9442939386169846  1.0000
  C   C24       1.0  0.1852176339831786  0.5075468427541825  0.06823004511763343  1.0000
  S   S1        1.0  0.0819035373129524  0.9779319365562666  0.033997866935196346  1.0000
  C   C25       1.0  0.9546007272588997  0.9275293349908322  0.03766702809814837  1.0000
  H   H15       1.0  0.18147625654216237  0.5245544079511912  0.5135000806214488  1.0000
  H   H16       1.0  0.12547789093956171  0.7797931599928005  0.25609255881524273  1.0000
  H   H17       1.0  0.12547769629581215  0.7797929521841465  0.8407422464805758  1.0000
  H   H18       1.0  0.20956281188510006  0.3965695999516843  0.07630634246294665  1.0000
  H   H19       1.0  0.18147445428183717  0.5245536589923878  0.6204844974407182  1.0000
  H   H20       1.0  0.9370536005776832  0.8633529739435081  0.9542206502717581  1.0000
  H   H21       1.0  0.9370540237765056  0.8633544318715665  0.13045533776301088  1.0000
  H   H22       1.0  0.910597284622111  0.027102262722419994  0.03042029527967284  1.0000
  Zn  Zn1       1.0  0.06384616278300559  0.5787894795038526  0.5630473656275812  1.0000
  Zn  Zn2       1.0  0.2753634705679855  0.5787853721709795  0.5630430300873578  1.0000
  C   C26       1.0  0.16956863945003084  0.5730407408518059  0.8001836154022562  1.0000
  C   C27       1.0  0.16964331589763418  0.5845359309898702  0.32590690202055317  1.0000
  C   C28       1.0  0.17137539574933797  0.8422655711062531  0.5570510774925412  1.0000
  C   C29       1.0  0.16783647577271887  0.3153093675212326  0.5690395145484437  1.0000
  O   O1        1.0  0.24992434893159854  0.5864572102426995  0.37426986416014363  1.0000
  O   O2        1.0  0.24982434153274138  0.5711152559328467  0.7518169923506459  1.0000
  O   O3        1.0  0.2512822380197153  0.7885177111969783  0.5554857431343421  1.0000
  O   O4        1.0  0.24846638033746535  0.3690547652997376  0.5706010160018626  1.0000
  O   O5        1.0  0.09074318083305988  0.7885200863780668  0.5554893797077218  1.0000
  O   O6        1.0  0.08928529599122868  0.5711193643310974  0.7518205543004958  1.0000
  O   O7        1.0  0.08938530311651012  0.5864612683697445  0.374271865359094  1.0000
  O   O8        1.0  0.08792733444907075  0.3690588131085845  0.5706031145700438  1.0000
