data_image0
_chemical_formula_structural       NC8NH4C6NH7C6SCH6Zn2C4O8
_chemical_formula_sum              "N3 C25 H17 S1 Zn2 O8"
_cell_length_a       11.048855714531884
_cell_length_b       9.274771166103582
_cell_length_c       9.275274088470228
_cell_angle_alpha    86.00109441054587
_cell_angle_beta     89.72578532380932
_cell_angle_gamma    90.59705445283097

_space_group_name_H-M_alt    "P 1"
_space_group_IT_number       1

loop_
  _space_group_symop_operation_xyz
  'x, y, z'

loop_
  _atom_site_type_symbol
  _atom_site_label
  _atom_site_symmetry_multiplicity
  _atom_site_fract_x
  _atom_site_fract_y
  _atom_site_fract_z
  _atom_site_occupancy
  N   N1        1.0  0.15975524987115078  0.5635349387093991  0.40751593137463127  1.0000
  C   C1        1.0  0.10507080914163927  0.5047647257179771  0.3226521681161272  1.0000
  C   C2        1.0  0.03684147623684564  0.4314362524457387  0.21676614451186157  1.0000
  C   C3        1.0  0.9091247187811531  0.4314360627872156  0.21676624656155632  1.0000
  C   C4        1.0  0.8461408076138737  0.3589475971271019  0.11209347990896013  1.0000
  C   C5        1.0  0.9093546148493148  0.2870325149281583  0.008248594471265799  1.0000
  C   C6        1.0  0.03576082621539701  0.28703240499003324  0.008248617331790387  1.0000
  C   C7        1.0  0.09939834740148212  0.35894769532562615  0.112093452018734  1.0000
  C   C8        1.0  0.8413273887712573  0.5047648005461265  0.32265215484943677  1.0000
  N   N2        1.0  0.7869891362706364  0.563534981665393  0.4075159600818732  1.0000
  H   H1        1.0  0.7480758955091921  0.35803986710612334  0.11078208348563368  1.0000
  H   H2        1.0  0.8602924610270869  0.2312535037541554  0.927704699355985  1.0000
  H   H3        1.0  0.08449450321472556  0.23125361319984056  0.9277046985473407  1.0000
  H   H4        1.0  0.19745790575978228  0.3580398206592619  0.1107823586361727  1.0000
  C   C9        1.0  0.4696591598486941  0.1399458515062828  0.40830143920602  1.0000
  C   C10       1.0  0.4423155222204687  0.22203058081082605  0.27942942151313144  1.0000
  C   C11       1.0  0.4262752147875309  0.155749407261437  0.1497397671355316  1.0000
  C   C12       1.0  0.43764568992652975  0.005997109452716254  0.14798277617448163  1.0000
  C   C13       1.0  0.46275823949182215  0.9225761375455774  0.275084469069258  1.0000
  C   C14       1.0  0.4770967131112818  0.987113088012219  0.40674295981472763  1.0000
  N   N3        1.0  0.3996807488187001  0.24092018184838504  0.019451371330953874  1.0000
  H   H5        1.0  0.6046278100552028  0.22260172691654811  0.7236909165741497  1.0000
  H   H6        1.0  0.4362152159127821  0.33861803102500565  0.2788758529462827  1.0000
  H   H7        1.0  0.4258771213720894  0.9535621503004801  0.0481996715733115  1.0000
  H   H8        1.0  0.46810827005558353  0.8063729218269499  0.27095721874381873  1.0000
  H   H9        1.0  0.5630896240113934  0.6920848167738212  0.6213194734292029  1.0000
  H   H10       1.0  0.39134211348468273  0.3529936383772524  0.019404564287864627  1.0000
  H   H11       1.0  0.38801679890678076  0.19252494029223197  0.922038234181759  1.0000
  C   C15       1.0  0.47504222962188436  0.5595100184468467  0.9843326648701054  1.0000
  C   C16       1.0  0.5785559814680074  0.6102834364987584  0.05358760608289769  1.0000
  C   C17       1.0  0.6754484430287631  0.6725489092032273  0.9734089963935157  1.0000
  C   C18       1.0  0.6704357288651025  0.6841793045570843  0.8228274741396069  1.0000
  C   C19       1.0  0.5694986788523664  0.6323140103325458  0.7520716296848415  1.0000
  C   C20       1.0  0.4717136307524791  0.567548910157638  0.8307116997716116  1.0000
  S   S1        1.0  0.8060097177907047  0.737949476706663  0.06397703824376832  1.0000
  C   C21       1.0  0.7453854717408003  0.9184986723799184  0.07537705001786854  1.0000
  H   H12       1.0  0.1814397104995673  0.5001583040869807  0.09314655283967155  1.0000
  H   H13       1.0  0.7452293998773567  0.7325097795362343  0.7602406918123799  1.0000
  H   H14       1.0  0.27543409365955923  0.5217040652379212  0.5538812310486083  1.0000
  H   H15       1.0  0.7285270166659341  0.9689076400862037  0.9653222222109825  1.0000
  H   H16       1.0  0.6597730410176077  0.9130801807504411  0.13875258234150678  1.0000
  H   H17       1.0  0.8120950967628566  0.9858020634612522  0.1302525566853281  1.0000
  Zn  Zn1       1.0  0.34076134816444315  0.5635311603760952  0.40752426583879536  1.0000
  Zn  Zn2       1.0  0.605982914854165  0.5635270409717932  0.40751944133188894  1.0000
  C   C22       1.0  0.4722896511642035  0.560282924052058  0.6707385133637871  1.0000
  C   C23       1.0  0.4744575234879571  0.5667770986206043  0.14430533185028027  1.0000
  C   C24       1.0  0.4757071974148242  0.8269258725550492  0.4012948439846262  1.0000
  C   C25       1.0  0.4710398712187245  0.30013241780968003  0.41374908125059306  1.0000
  O   O1        1.0  0.5749114378650408  0.5692081408411023  0.19799180095897717  1.0000
  O   O2        1.0  0.5731327611732762  0.557847663174174  0.6170479697261964  1.0000
  O   O3        1.0  0.5758911102854621  0.7731652305040637  0.3994702976093101  1.0000
  O   O4        1.0  0.5721529987662366  0.35389058280505464  0.41556936500583186  1.0000
  O   O5        1.0  0.37459117374531115  0.7731676185457377  0.39947434215891553  1.0000
  O   O6        1.0  0.37183284014467716  0.5578517835266854  0.6170519342487135  1.0000
  O   O7        1.0  0.373611523289622  0.5692121944711326  0.19799403295135254  1.0000
  O   O8        1.0  0.3708530836703756  0.3538946271441472  0.41557170506230245  1.0000
