data_image0
_chemical_formula_structural       Zn4O13C24HClH3ClH2Cl2H2
_chemical_formula_sum              "Zn4 O13 C24 H8 Cl4"
_cell_length_a       12.759401
_cell_length_b       12.759398999999998
_cell_length_c       12.759393000000001
_cell_angle_alpha    89.967969
_cell_angle_beta     89.980163
_cell_angle_gamma    90.01664099999999

_space_group_name_H-M_alt    "P 1"
_space_group_IT_number       1

loop_
  _space_group_symop_operation_xyz
  'x, y, z'

loop_
  _atom_site_type_symbol
  _atom_site_label
  _atom_site_symmetry_multiplicity
  _atom_site_fract_x
  _atom_site_fract_y
  _atom_site_fract_z
  _atom_site_occupancy
  Zn  Zn1       1.0  0.606252  0.581839  0.4059829999999999  1.0000
  Zn  Zn2       1.0  0.6061450000000003  0.40612000000000004  0.581664  1.0000
  Zn  Zn3       1.0  0.4305540000000002  0.5817800000000001  0.5816479999999999  1.0000
  Zn  Zn4       1.0  0.4305410000000003  0.4061969999999999  0.406027  1.0000
  O   O1        1.0  0.518373  0.4939839999999999  0.49383  1.0000
  O   O2        1.0  0.7532589999999999  0.5585219999999999  0.429276  1.0000
  O   O3        1.0  0.5828130000000002  0.429365  0.728683  1.0000
  O   O4        1.0  0.4539110000000002  0.7288089999999998  0.5583199999999999  1.0000
  O   O5        1.0  0.7531800000000002  0.42942199999999997  0.5583480000000001  1.0000
  O   O6        1.0  0.5829949999999999  0.728852  0.42926  1.0000
  O   O7        1.0  0.4538070000000002  0.5584210000000001  0.728671  1.0000
  O   O8        1.0  0.2835310000000002  0.5584949999999999  0.5583629999999999  1.0000
  O   O9        1.0  0.45388900000000004  0.42955299999999996  0.2590000000000001  1.0000
  O   O10       1.0  0.28352200000000005  0.429496  0.429335  1.0000
  O   O11       1.0  0.5829830000000003  0.5585969999999999  0.2589680000000001  1.0000
  O   O12       1.0  0.5828010000000001  0.259109  0.5583910000000001  1.0000
  O   O13       1.0  0.4537850000000001  0.25916599999999995  0.42935100000000004  1.0000
  C   C1        1.0  0.24540600000000007  0.4939969999999999  0.49385099999999993  1.0000
  C   C2        1.0  0.1286290000000001  0.493977  0.4938349999999999  1.0000
  C   C3        1.0  0.5183090000000001  0.221016  0.493854  1.0000
  C   C4        1.0  0.5183770000000003  0.10423999999999997  0.49382899999999985  1.0000
  C   C5        1.0  0.07379000000000002  0.4267039999999999  0.426756  1.0000
  C   C6        1.0  0.964066  0.42669999999999986  0.4267349999999999  1.0000
  C   C7        1.0  0.96403  0.5612440000000001  0.5608820000000001  1.0000
  C   C8        1.0  0.07375200000000004  0.561253  0.5608960000000001  1.0000
  C   C9        1.0  0.5856320000000003  0.04938300000000006  0.560944  1.0000
  C   C10       1.0  0.5857000000000001  0.9396589999999998  0.5609089999999999  1.0000
  C   C11       1.0  0.4512480000000001  0.9396579999999999  0.426641  1.0000
  C   C12       1.0  0.45118700000000034  0.04938000000000009  0.42667200000000005  1.0000
  C   C13       1.0  0.7924060000000002  0.4939699999999999  0.49380899999999994  1.0000
  C   C14       1.0  0.9091830000000003  0.49396399999999985  0.49379999999999996  1.0000
  C   C15       1.0  0.518446  0.49409  0.21979700000000002  1.0000
  C   C16       1.0  0.5184780000000002  0.494135  0.10302000000000011  1.0000
  C   C17       1.0  0.5184660000000001  0.768017  0.49378299999999997  1.0000
  C   C18       1.0  0.5185059999999999  0.884794  0.49376299999999984  1.0000
  C   C19       1.0  0.451328  0.561347  0.04815199999999997  1.0000
  C   C20       1.0  0.45135300000000017  0.5613799999999999  0.938428  1.0000
  C   C21       1.0  0.585685  0.42698499999999995  0.938449  1.0000
  C   C22       1.0  0.5856540000000001  0.426948  0.048170999999999964  1.0000
  C   C23       1.0  0.5183599999999999  0.4939539999999999  0.7667979999999998  1.0000
  C   C24       1.0  0.5185330000000001  0.4942039999999999  0.883574  1.0000
  H   H1        1.0  0.11846700000000011  0.371927  0.37214800000000015  1.0000
  Cl  Cl1       1.0  0.366919  0.6458650000000001  0.869456  1.0000
  H   H2        1.0  0.6404669999999999  0.895  0.615559  1.0000
  H   H3        1.0  0.39654300000000015  0.8949779999999998  0.37196600000000013  1.0000
  H   H4        1.0  0.919336  0.616016  0.615482  1.0000
  Cl  Cl2       1.0  0.142698  0.645838  0.645225  1.0000
  H   H5        1.0  0.6403380000000003  0.3722119999999999  0.09284599999999998  1.0000
  H   H6        1.0  0.6403440000000004  0.09404800000000002  0.6156259999999999  1.0000
  Cl  Cl3       1.0  0.895129  0.3421269999999999  0.34240099999999984  1.0000
  Cl  Cl4       1.0  0.36687400000000014  0.6458060000000001  0.11710100000000012  1.0000
  H   H7        1.0  0.3964200000000002  0.09404699999999999  0.37201399999999996  1.0000
  H   H8        1.0  0.6403790000000003  0.3722850000000001  0.8937779999999999  1.0000
