data_image0
_chemical_formula_structural       Zn4O13C24H8FH2F
_chemical_formula_sum              "Zn4 O13 C24 H10 F2"
_cell_length_a       12.759401
_cell_length_b       12.7594
_cell_length_c       12.759393
_cell_angle_alpha    89.970195
_cell_angle_beta     89.980198
_cell_angle_gamma    90.01373

_space_group_name_H-M_alt    "P 1"
_space_group_IT_number       1

loop_
  _space_group_symop_operation_xyz
  'x, y, z'

loop_
  _atom_site_type_symbol
  _atom_site_label
  _atom_site_symmetry_multiplicity
  _atom_site_fract_x
  _atom_site_fract_y
  _atom_site_fract_z
  _atom_site_occupancy
  Zn  Zn1       1.0  0.6062669999999999  0.5817589999999999  0.4060069999999999  1.0000
  Zn  Zn2       1.0  0.606158  0.40604300000000015  0.5816839999999999  1.0000
  Zn  Zn3       1.0  0.43056500000000014  0.58171  0.5816680000000001  1.0000
  Zn  Zn4       1.0  0.4305580000000003  0.40612400000000004  0.406044  1.0000
  O   O1        1.0  0.5183869999999999  0.49390900000000004  0.49385099999999993  1.0000
  O   O2        1.0  0.7532730000000002  0.5584359999999999  0.4293019999999999  1.0000
  O   O3        1.0  0.5828230000000001  0.4292920000000001  0.728703  1.0000
  O   O4        1.0  0.4539210000000001  0.7287379999999999  0.5583440000000001  1.0000
  O   O5        1.0  0.7531930000000002  0.429339  0.558372  1.0000
  O   O6        1.0  0.583008  0.728774  0.42928599999999995  1.0000
  O   O7        1.0  0.4538160000000002  0.558354  0.728691  1.0000
  O   O8        1.0  0.2835430000000001  0.558432  0.55838  1.0000
  O   O9        1.0  0.45390800000000003  0.429477  0.25901799999999997  1.0000
  O   O10       1.0  0.28353800000000007  0.4294300000000001  0.4293489999999999  1.0000
  O   O11       1.0  0.5830010000000003  0.558515  0.2589910000000001  1.0000
  O   O12       1.0  0.5828150000000004  0.25903299999999985  0.558408  1.0000
  O   O13       1.0  0.45380200000000026  0.259092  0.429365  1.0000
  C   C1        1.0  0.24541999999999997  0.4939340000000001  0.49386599999999997  1.0000
  C   C2        1.0  0.12864300000000006  0.49391900000000005  0.49384799999999995  1.0000
  C   C3        1.0  0.964086  0.560994  0.4265299999999999  1.0000
  C   C4        1.0  0.07380999999999993  0.561015  0.42653700000000005  1.0000
  C   C5        1.0  0.07374600000000009  0.4267900000000001  0.561148  1.0000
  C   C6        1.0  0.9640240000000002  0.42676500000000006  0.5611349999999998  1.0000
  C   C7        1.0  0.5183250000000001  0.22094199999999997  0.49386899999999995  1.0000
  C   C8        1.0  0.518394  0.10416499999999995  0.493842  1.0000
  C   C9        1.0  0.5855810000000002  0.049412000000000025  0.426585  1.0000
  C   C10       1.0  0.58564  0.9396880000000003  0.426556  1.0000
  C   C11       1.0  0.45132300000000003  0.9394800000000001  0.561052  1.0000
  C   C12       1.0  0.4512600000000002  0.04920199999999997  0.5610740000000001  1.0000
  C   C13       1.0  0.7924199999999999  0.493884  0.493835  1.0000
  C   C14       1.0  0.9091970000000003  0.49387300000000006  0.49382800000000004  1.0000
  C   C15       1.0  0.5184660000000001  0.49400999999999995  0.21981699999999998  1.0000
  C   C16       1.0  0.5184990000000002  0.49405299999999996  0.10304100000000016  1.0000
  C   C17       1.0  0.5184780000000002  0.767943  0.493809  1.0000
  C   C18       1.0  0.5185170000000001  0.8847190000000001  0.493791  1.0000
  C   C19       1.0  0.5857230000000002  0.5612539999999999  0.04816300000000007  1.0000
  C   C20       1.0  0.5857399999999999  0.561299  0.938439  1.0000
  C   C21       1.0  0.4513080000000001  0.42693400000000004  0.93848  1.0000
  C   C22       1.0  0.4512860000000001  0.426895  0.048202000000000064  1.0000
  C   C23       1.0  0.5183690000000001  0.4938850000000001  0.766818  1.0000
  C   C24       1.0  0.5185390000000001  0.49413799999999997  0.883594  1.0000
  H   H1        1.0  0.11849599999999993  0.6156699999999999  0.371736  1.0000
  H   H2        1.0  0.6402440000000003  0.09416000000000002  0.371839  1.0000
  H   H3        1.0  0.11840000000000007  0.37215599999999993  0.61595  1.0000
  H   H4        1.0  0.3966660000000003  0.8947160000000003  0.615791  1.0000
  H   H5        1.0  0.919449  0.615638  0.37172400000000005  1.0000
  H   H6        1.0  0.3965880000000002  0.37225299999999995  0.893817  1.0000
  H   H7        1.0  0.9193320000000001  0.372101  0.6159379999999999  1.0000
  H   H8        1.0  0.6403470000000002  0.8951120000000001  0.371786  1.0000
  F   F1        1.0  0.3797400000000001  0.10747899999999988  0.6326560000000001  1.0000
  H   H9        1.0  0.6404490000000003  0.615942  0.09280900000000013  1.0000
  H   H10       1.0  0.6404790000000001  0.616023  0.8937619999999997  1.0000
  F   F2        1.0  0.37972800000000007  0.3553709999999999  0.10660999999999995  1.0000
