data_image0
_chemical_formula_structural       NC12NC2H8C6BrH5C9H10Zn2C4O8
_chemical_formula_sum              "N2 C33 H23 Br1 Zn2 O8"
_cell_length_a       19.240039667572717
_cell_length_b       9.276564384272257
_cell_length_c       10.297187173949778
_cell_angle_alpha    85.51933545767109
_cell_angle_beta     89.97407950640248
_cell_angle_gamma    90.58593109150864

_space_group_name_H-M_alt    "P 1"
_space_group_IT_number       1

loop_
  _space_group_symop_operation_xyz
  'x, y, z'

loop_
  _atom_site_type_symbol
  _atom_site_label
  _atom_site_symmetry_multiplicity
  _atom_site_fract_x
  _atom_site_fract_y
  _atom_site_fract_z
  _atom_site_occupancy
  N   N1        1.0  0.662604940290567  0.5780334347522966  0.5659727831630923  1.0000
  C   C1        1.0  0.6024565719528935  0.5780335279966083  0.5659727011394298  1.0000
  C   C2        1.0  0.5276385354870609  0.5780336582159291  0.5659725637085982  1.0000
  C   C3        1.0  0.49078688107279084  0.5064629871694604  0.6694600250753802  1.0000
  C   C4        1.0  0.4181155049690606  0.5063398730353219  0.6695466769657877  1.0000
  C   C5        1.0  0.3813063011115402  0.5780337609736617  0.565972335901124  1.0000
  C   C6        1.0  0.41887277661803396  0.6497278565703468  0.4623981892672262  1.0000
  C   C7        1.0  0.4915428357590254  0.649604480947757  0.46248496387752297  1.0000
  C   C8        1.0  0.3041012102642733  0.57803367361452  0.565972240528775  1.0000
  C   C9        1.0  0.2662831598178768  0.4522716287841888  0.6079445142847111  1.0000
  C   C10       1.0  0.1936130787954833  0.4523903217016378  0.6078530816004271  1.0000
  C   C11       1.0  0.1577689226191136  0.5780335301857222  0.5659723015577647  1.0000
  C   C12       1.0  0.08295088478133009  0.5780334039143458  0.5659725503660211  1.0000
  N   N2        1.0  0.022802567655369192  0.5780333586091422  0.5659727588645271  1.0000
  C   C13       1.0  0.1948722777273054  0.7036768228638444  0.5240914685508937  1.0000
  C   C14       1.0  0.2675435823324031  0.7037957157712036  0.5239998730894222  1.0000
  H   H1        1.0  0.5182089736339345  0.4510515019280961  0.7502597508334525  1.0000
  H   H2        1.0  0.39073352504216863  0.45181473918651255  0.7514615046246772  1.0000
  H   H3        1.0  0.39206822591719814  0.7042530204523985  0.3804833107266641  1.0000
  H   H4        1.0  0.5195505140453859  0.7050158548899894  0.38168551405730894  1.0000
  H   H5        1.0  0.2928807607276308  0.3532754004551695  0.639191652815881  1.0000
  H   H6        1.0  0.165407236239646  0.354392692530886  0.6401326814137136  1.0000
  H   H7        1.0  0.1676482966974934  0.801674424790146  0.49181188331124254  1.0000
  H   H8        1.0  0.29513246068418286  0.8027920320140958  0.49275268971233155  1.0000
  C   C15       1.0  0.8406129803949287  0.15455249227534562  0.5663049259705868  1.0000
  C   C16       1.0  0.8317346296782175  0.23803556083767408  0.4475816507919219  1.0000
  C   C17       1.0  0.8293243532866496  0.17303062249572168  0.3299673091889268  1.0000
  C   C18       1.0  0.8357775217197077  0.02362330752857876  0.3288429890309603  1.0000
  C   C19       1.0  0.8434318788335667  0.9384466647674283  0.44577096800515226  1.0000
  C   C20       1.0  0.8448011467639194  0.0015032050440961777  0.5656517796132099  1.0000
  Br  Br1       1.0  0.8329913226717969  0.9352434833105617  0.16745556261324124  1.0000
  H   H9        1.0  0.8201811922694828  0.41713374925989255  0.7774885307079736  1.0000
  H   H10       1.0  0.8283052301896495  0.3546916500273827  0.4453578311615658  1.0000
  H   H11       1.0  0.8231003920292653  0.2392384935960565  0.23948563026409064  1.0000
  H   H12       1.0  0.8466483715239724  0.8222062993191034  0.44297038479762735  1.0000
  H   H13       1.0  0.8830937266972843  0.7035981804834134  0.7679644275079129  1.0000
  C   C21       1.0  0.8427986890819407  0.577975735040732  0.1845252614438122  1.0000
  C   C22       1.0  0.7725591961306896  0.617585573531684  0.18101281935020297  1.0000
  C   C23       1.0  0.736573432446287  0.6378786194165831  0.06259688815389142  1.0000
  C   C24       1.0  0.7722869106041693  0.6177385675418838  0.9457899763363318  1.0000
  C   C25       1.0  0.8426154419111932  0.5780800185626169  0.947431490750104  1.0000
  C   C26       1.0  0.8774120528184058  0.5584561664792638  0.0671879094597263  1.0000
  C   C27       1.0  0.6606043567538598  0.6807191956687  0.06823010120933448  1.0000
  C   C28       1.0  0.6116587938700221  0.6227156831005749  0.9680029924530807  1.0000
  C   C29       1.0  0.6331131246926499  0.7818113038285761  0.9567808064968704  1.0000
  H   H14       1.0  0.8698661540899741  0.562725881001319  0.5134161183667528  1.0000
  H   H15       1.0  0.7454429533879696  0.6328775056971141  0.27107918192254044  1.0000
  H   H16       1.0  0.7459230914988575  0.6326024675400028  0.8531714187282624  1.0000
  H   H17       1.0  0.9316031570525722  0.527895626658559  0.06917048562881822  1.0000
  H   H18       1.0  0.9754435069745097  0.5031577334856445  0.743316714911237  1.0000
  H   H19       1.0  0.6361867657434689  0.6944901006447326  0.16429676858241482  1.0000
  H   H20       1.0  0.6348747402495811  0.5576261947890448  0.89352819827731  1.0000
  H   H21       1.0  0.5575437266470142  0.6032029675858788  0.0031366270153094815  1.0000
  H   H22       1.0  0.6693617438983643  0.8133635253219788  0.875490076522111  1.0000
  H   H23       1.0  0.591536551405247  0.8552834081051163  0.9853531500530099  1.0000
  Zn  Zn1       1.0  0.7665501831848717  0.5780295637406607  0.5659802691990545  1.0000
  Zn  Zn2       1.0  0.9188572828165241  0.5780254678227046  0.5659758831393109  1.0000
  C   C30       1.0  0.8426201135199638  0.5723153106168828  0.8032303048421329  1.0000
  C   C31       1.0  0.8427890246373121  0.5837415404804747  0.3287259735398247  1.0000
  C   C32       1.0  0.8440071575471699  0.8414108070056808  0.5605989591266418  1.0000
  C   C33       1.0  0.8414019200540316  0.3146443115062647  0.5713573898467736  1.0000
  O   O1        1.0  0.9005855006057312  0.5856687517067731  0.3771193901736236  1.0000
  O   O2        1.0  0.9004211967357079  0.5703839027258766  0.7548331862008126  1.0000
  O   O3        1.0  0.901540472836518  0.787681919442395  0.5589066567446939  1.0000
  O   O4        1.0  0.8994661726072328  0.3683707452944214  0.5730458222271178  1.0000
  O   O5        1.0  0.7859412414192343  0.7876842862719113  0.5589103301059108  1.0000
  O   O6        1.0  0.7848219738995699  0.5703880021437713  0.7548367889652352  1.0000
  O   O7        1.0  0.7849862779424563  0.5856728006579697  0.3771214312313851  1.0000
  O   O8        1.0  0.7838669498667171  0.3683747839444178  0.5730479606821672  1.0000
