data_image0
_chemical_formula_structural       NC8NH4C6NH7C6IH3Zn2C4O8
_chemical_formula_sum              "N3 C24 H14 I1 Zn2 O8"
_cell_length_a       11.048855714531884
_cell_length_b       9.274771166103582
_cell_length_c       9.275433903346869
_cell_angle_alpha    86.06373460888793
_cell_angle_beta     89.9656283209417
_cell_angle_gamma    90.59705445283097

_space_group_name_H-M_alt    "P 1"
_space_group_IT_number       1

loop_
  _space_group_symop_operation_xyz
  'x, y, z'

loop_
  _atom_site_type_symbol
  _atom_site_label
  _atom_site_symmetry_multiplicity
  _atom_site_fract_x
  _atom_site_fract_y
  _atom_site_fract_z
  _atom_site_occupancy
  N   N1        1.0  0.15414316780780604  0.5617184599287532  0.40768704975944625  1.0000
  C   C1        1.0  0.09915965821286954  0.5028514464554665  0.3228324054305338  1.0000
  C   C2        1.0  0.030557171776724793  0.4294021935039618  0.21695775967656616  1.0000
  C   C3        1.0  0.9028404146806658  0.42940200396184297  0.21695786171529516  1.0000
  C   C4        1.0  0.8394876256276829  0.35679414253301633  0.11229634254398692  1.0000
  C   C5        1.0  0.9023354725182655  0.28476060889421745  0.008462615628639815  1.0000
  C   C6        1.0  0.028741683964911058  0.28476049898216843  0.008462638486708139  1.0000
  C   C7        1.0  0.09274516531700307  0.3567942406997278  0.1122963146567577  1.0000
  C   C8        1.0  0.8354162377957346  0.502851521268483  0.32283239216526916  1.0000
  N   N2        1.0  0.7813770543084588  0.5617185029174919  0.4076870784636033  1.0000
  H   H1        1.0  0.7414180920234893  0.35588491665796784  0.11098508703512366  1.0000
  H   H2        1.0  0.8529894735022344  0.2288897247280317  0.9279273752569197  1.0000
  H   H3        1.0  0.0771915156870231  0.22888983417279474  0.9279273744483624  1.0000
  H   H4        1.0  0.1908001032437392  0.3558848705249591  0.11098536215609721  1.0000
  C   C9        1.0  0.4640498459979164  0.1381302687209787  0.40847247318507307  1.0000
  C   C10       1.0  0.43625204976728427  0.2200679992013761  0.27961430327374126  1.0000
  C   C11       1.0  0.41975470229390077  0.1536388941844849  0.14993858453582654  1.0000
  C   C12       1.0  0.4311189856111717  0.003884592250974479  0.14818178237004376  1.0000
  C   C13       1.0  0.456679454967292  0.9206085998338518  0.2752698177113009  1.0000
  C   C14       1.0  0.47148190701451487  0.985295727535822  0.40691416125823543  1.0000
  N   N3        1.0  0.3927010862565934  0.23866105434507467  0.019664188707945174  1.0000
  H   H5        1.0  0.6001299620355602  0.22114589548107882  0.7238280607711836  1.0000
  H   H6        1.0  0.43014979262549813  0.33665481798345875  0.2790607941899108  1.0000
  H   H7        1.0  0.4189987708565648  0.9513358147593617  0.04840939983763869  1.0000
  H   H8        1.0  0.46201494066496707  0.8044006763364866  0.2711430108743862  1.0000
  H   H9        1.0  0.5582310082131652  0.6905122145913907  0.6214676178216838  1.0000
  H   H10       1.0  0.3843622859696121  0.3507344574831406  0.019617386694448236  1.0000
  H   H11       1.0  0.38069384216013563  0.19015469777052132  0.9222615189656257  1.0000
  C   C15       1.0  0.4679388050288101  0.5572108325301768  0.9845492558837976  1.0000
  C   C16       1.0  0.5794038703690385  0.5545104010898951  0.05800908983025654  1.0000
  C   C17       1.0  0.6885296650934498  0.5651021089585447  0.981870866541361  1.0000
  C   C18       1.0  0.6879398527009977  0.5787310120842514  0.8313001528278026  1.0000
  C   C19       1.0  0.5785063097639942  0.5792511077037716  0.7563238081402441  1.0000
  C   C20       1.0  0.46759291668323544  0.5662150804906906  0.830837316197091  1.0000
  I   I1        1.0  0.8542947286863509  0.5631872427171061  0.09465878396767202  1.0000
  H   H12       1.0  0.18017848184644472  0.642666944272914  0.08188166879933023  1.0000
  H   H13       1.0  0.7724285907832311  0.5875486472745832  0.7720730021008504  1.0000
  H   H14       1.0  0.2731983217942555  0.6176835569068833  0.5462671127561838  1.0000
  Zn  Zn1       1.0  0.3351492954726307  0.5617146911022175  0.4076953833280408  1.0000
  Zn  Zn2       1.0  0.6003708451602805  0.5617105661948061  0.4076905593395461  1.0000
  C   C21       1.0  0.46760519328257144  0.5587666920645764  0.6708813474951114  1.0000
  C   C22       1.0  0.46791785947037134  0.5646603867146807  0.14450473320102497  1.0000
  C   C23       1.0  0.47007319158241684  0.8251022976448659  0.4014666308486097  1.0000
  C   C24       1.0  0.46544975543391637  0.2983230489177351  0.4139195298600802  1.0000
  O   O1        1.0  0.5685609706352068  0.5671526668049106  0.19818543349729767  1.0000
  O   O2        1.0  0.5682590921448225  0.5562701886693194  0.6171965731077682  1.0000
  O   O3        1.0  0.5702506745589118  0.7713395744115061  0.3996422805276434  1.0000
  O   O4        1.0  0.5665692978536492  0.35208329023329493  0.41573961801900383  1.0000
  O   O5        1.0  0.3689507522721807  0.7713419670666262  0.39964632464264693  1.0000
  O   O6        1.0  0.36695918508761927  0.5562743135439929  0.6172005372042824  1.0000
  O   O7        1.0  0.36726106392556496  0.5671567229808794  0.1981876652498371  1.0000
  O   O8        1.0  0.3652693910043943  0.35208733724159  0.41574195782402623  1.0000
