data_image0
_chemical_formula_structural       NC9NC5H8C13OH12C16H9Zn2C4O8
_chemical_formula_sum              "N2 C47 H29 O9 Zn2"
_cell_length_a       17.807436237873137
_cell_length_b       10.299150109392551
_cell_length_c       10.299151387937775
_cell_angle_alpha    85.56522917257966
_cell_angle_beta     89.38153663469636
_cell_angle_gamma    88.37145022261349

_space_group_name_H-M_alt    "P 1"
_space_group_IT_number       1

loop_
  _space_group_symop_operation_xyz
  'x, y, z'

loop_
  _atom_site_type_symbol
  _atom_site_label
  _atom_site_symmetry_multiplicity
  _atom_site_fract_x
  _atom_site_fract_y
  _atom_site_fract_z
  _atom_site_occupancy
  N   N1        1.0  0.707319116812749  0.3872398393786573  0.5566180361731916  1.0000
  C   C1        1.0  0.6467393922260085  0.3520421636317704  0.5456066955199164  1.0000
  C   C2        1.0  0.5713848731151252  0.3082601311659321  0.5319097833262947  1.0000
  C   C3        1.0  0.5533187908969379  0.23679245332578325  0.4269317781406776  1.0000
  C   C4        1.0  0.4801534710824663  0.19417193105513578  0.413550370027626  1.0000
  C   C5        1.0  0.4240055888640091  0.2226415095783989  0.5051146510932565  1.0000
  C   C6        1.0  0.3462496838200207  0.17746183408626326  0.4909757133677812  1.0000
  C   C7        1.0  0.2840551597912496  0.2592366143510538  0.5168854084613541  1.0000
  C   C8        1.0  0.2107475712729729  0.21641304224931981  0.5035177546757044  1.0000
  C   C9        1.0  0.1475024156136421  0.30087957091980666  0.5297903867991789  1.0000
  N   N2        1.0  0.09666629992550939  0.3687848167219312  0.5509128586362251  1.0000
  C   C10       1.0  0.1990510127802813  0.09155667614330933  0.4642151487071249  1.0000
  C   C11       1.0  0.26038817052463353  0.009768038664078379  0.43829706883278075  1.0000
  C   C12       1.0  0.3335764236291642  0.05219694574608757  0.45146232458302865  1.0000
  C   C13       1.0  0.4427629585169889  0.2946036938924872  0.6103117097679251  1.0000
  C   C14       1.0  0.5159812029301392  0.33703373637016765  0.6235375343631067  1.0000
  H   H1        1.0  0.5957261283235606  0.21427359420286682  0.3552265191473387  1.0000
  H   H2        1.0  0.4672604203759761  0.14044834412230614  0.33064854900385177  1.0000
  H   H3        1.0  0.2925311957948999  0.35672276886289844  0.5457275857771875  1.0000
  H   H4        1.0  0.1425935299584065  0.057512974609363235  0.45363243569182465  1.0000
  H   H5        1.0  0.2512137753554674  0.9131015251781333  0.4082541748716364  1.0000
  H   H6        1.0  0.38023166279720766  0.9864377566844916  0.4324374438217762  1.0000
  H   H7        1.0  0.4010724528745201  0.31658402826990395  0.6833116720750572  1.0000
  H   H8        1.0  0.5294024960107081  0.39197755561525893  0.7053972803466975  1.0000
  C   C15       1.0  0.9020670876756647  0.9966092344692568  0.5539085055736654  1.0000
  C   C16       1.0  0.9006676100508196  0.9849303035376118  0.6907399498838307  1.0000
  C   C17       1.0  0.8998927064906528  0.8618772211681429  0.759853659114907  1.0000
  C   C18       1.0  0.9005228051140444  0.7496816660275768  0.6903786761821076  1.0000
  C   C19       1.0  0.9019255054612888  0.7594050752215573  0.5536335837519819  1.0000
  C   C20       1.0  0.9026915157207268  0.8833299092102227  0.4861975959016769  1.0000
  C   C21       1.0  0.898405677817908  0.8505042580352079  0.904515785960054  1.0000
  C   C22       1.0  0.8522020646303377  0.7598433527850613  0.9732143258748478  1.0000
  C   C23       1.0  0.8507778822602422  0.749223994920796  0.10934160737314726  1.0000
  C   C24       1.0  0.8960243185815129  0.8280858277966564  0.1792240074097755  1.0000
  C   C25       1.0  0.9415091011815487  0.9197347167979366  0.11117857316085476  1.0000
  C   C26       1.0  0.9429507226394052  0.9305290449595114  0.9750507474124129  1.0000
  C   C27       1.0  0.8929142992910216  0.8191036969802173  0.32535607253414733  1.0000
  O   O1        1.0  0.8367584934620237  0.9049582107756866  0.3664196462959244  1.0000
  H   H9        1.0  0.9042205823625058  0.22596973499890938  0.29563989430007687  1.0000
  H   H10       1.0  0.8991355386736728  0.07179779959816868  0.7437710577141774  1.0000
  H   H11       1.0  0.9009454016154064  0.6545604612713386  0.7432060791767401  1.0000
  H   H12       1.0  0.9037713346410383  0.8915461750008752  0.380722045522935  1.0000
  H   H13       1.0  0.9024144674307844  0.4356719682280226  0.5010373662331236  1.0000
  H   H14       1.0  0.816279695440611  0.6985164667258729  0.9216319262142746  1.0000
  H   H15       1.0  0.8142265348834584  0.6796471658015589  0.1602528357349059  1.0000
  H   H16       1.0  0.9760475517860405  0.9826804707346611  0.16352745838691662  1.0000
  H   H17       1.0  0.979527149315939  0.0005504428266471823  0.9249457960545902  1.0000
  H   H18       1.0  0.948170918361252  0.8443298837037184  0.3647164598359107  1.0000
  H   H19       1.0  0.8807010553516958  0.7176765147238813  0.3633476738555268  1.0000
  H   H20       1.0  0.8370257051758294  0.895307166667506  0.463042558924902  1.0000
  C   C28       1.0  0.9020398678183886  0.37783635143061967  0.1723994779319118  1.0000
  C   C29       1.0  0.8295432252392001  0.43523000271694245  0.16853371480649582  1.0000
  C   C30       1.0  0.7927410884710173  0.464505850300561  0.049418331751990285  1.0000
  C   C31       1.0  0.8294124640172242  0.4356138249093746  0.9332231595030672  1.0000
  C   C32       1.0  0.9019527140079554  0.3781779591059473  0.9351426090676922  1.0000
  C   C33       1.0  0.9378205776284388  0.34964472089341503  0.05516377431865593  1.0000
  C   C34       1.0  0.7160484205761294  0.5252216934963216  0.046374230005020056  1.0000
  C   C35       1.0  0.6969476677057824  0.6259472980289733  0.9513130842016424  1.0000
  C   C36       1.0  0.6247521541116502  0.6830544208353106  0.9485764430697543  1.0000
  C   C37       1.0  0.5707102959682497  0.6402893471520061  0.04061279035422039  1.0000
  C   C38       1.0  0.5891300520086798  0.5401544048566338  0.13552161923081507  1.0000
  C   C39       1.0  0.661304028368143  0.48296070313593686  0.13850817271436777  1.0000
  C   C40       1.0  0.4963953581042995  0.6991267841323254  0.037667247787614766  1.0000
  C   C41       1.0  0.4341576462852671  0.7484022517396598  0.035200312355686554  1.0000
  C   C42       1.0  0.3612779329126184  0.8061033787595959  0.03231155513810058  1.0000
  C   C43       1.0  0.2990502787858962  0.8553711211058042  0.029845124798871137  1.0000
  H   H21       1.0  0.9299092183553167  0.35569848156211026  0.5013671166875056  1.0000
  H   H22       1.0  0.8019350154171484  0.45893477928818366  0.2582339814433747  1.0000
  H   H23       1.0  0.8009020133240453  0.45634575654701676  0.8412609931986088  1.0000
  H   H24       1.0  0.9937381927428761  0.30537201159703686  0.05743007711140158  1.0000
  H   H25       1.0  0.7381266343688906  0.6617004125612487  0.8801495810542099  1.0000
  H   H26       1.0  0.6111513561779575  0.7607544085795115  0.8748953192811744  1.0000
  H   H27       1.0  0.547659371213087  0.50605644446281  0.2070202091188782  1.0000
  H   H28       1.0  0.6740171418457277  0.404541094514788  0.21180956317052502  1.0000
  H   H29       1.0  0.24440926070349236  0.8986322042399735  0.0276794027234788  1.0000
  Zn  Zn1       1.0  0.8196763020892281  0.38191065625945875  0.5549791572681462  1.0000
  Zn  Zn2       1.0  0.9843090971971169  0.3741034175051125  0.5525624180431998  1.0000
  C   C44       1.0  0.9019684797776016  0.37293936551673657  0.7909696978540853  1.0000
  C   C45       1.0  0.9020187169750118  0.3830762618158888  0.316571977943195  1.0000
  C   C46       1.0  0.9019489911996832  0.6152183282248842  0.5485103806592782  1.0000
  C   C47       1.0  0.902038149656988  0.14079574136104833  0.5590313657642265  1.0000
  O   O2        1.0  0.9644889073628952  0.38186635094199955  0.36404044808046776  1.0000
  O   O3        1.0  0.964450771757608  0.36822278284592597  0.7416666050691603  1.0000
  O   O4        1.0  0.9644341921064671  0.563866149813359  0.5458790028713527  1.0000
  O   O5        1.0  0.9645054308454156  0.18622299588608154  0.5598279537242534  1.0000
  O   O6        1.0  0.839479912259837  0.5697910805441282  0.5477136224049752  1.0000
  O   O7        1.0  0.8394964916258273  0.374149273989026  0.7435011547944419  1.0000
  O   O8        1.0  0.8395346274678724  0.38779279612332607  0.36587343640983194  1.0000
  O   O9        1.0  0.8395511509379208  0.19214943182153113  0.5616610394255224  1.0000
