data_image0
_chemical_formula_structural       NC12NC2H8C6NCH9C7F3H5Zn2C4O8
_chemical_formula_sum              "N3 C32 H22 F3 Zn2 O8"
_cell_length_a       19.240039667572717
_cell_length_b       9.273386996610926
_cell_length_c       10.299327507215194
_cell_angle_alpha    85.45811780594276
_cell_angle_beta     89.98118748846025
_cell_angle_gamma    89.39858615406628

_space_group_name_H-M_alt    "P 1"
_space_group_IT_number       1

loop_
  _space_group_symop_operation_xyz
  'x, y, z'

loop_
  _atom_site_type_symbol
  _atom_site_label
  _atom_site_symmetry_multiplicity
  _atom_site_fract_x
  _atom_site_fract_y
  _atom_site_fract_z
  _atom_site_occupancy
  N   N1        1.0  0.6467404875426098  0.5790946998383  0.5651006449737532  1.0000
  C   C1        1.0  0.5865921182677066  0.5790947931445338  0.5651005628980496  1.0000
  C   C2        1.0  0.5117740804914437  0.5790949234569739  0.5651004253988237  1.0000
  C   C3        1.0  0.4756445570232436  0.5074649567879976  0.668620244701124  1.0000
  C   C4        1.0  0.4029744169116279  0.5073417671808995  0.6687069693559564  1.0000
  C   C5        1.0  0.3654418450737457  0.5790950263228416  0.5651001975597219  1.0000
  C   C6        1.0  0.4022849505382251  0.650848493151547  0.4614936200077646  1.0000
  C   C7        1.0  0.4749562482923568  0.6507250419135017  0.46158046754851334  1.0000
  C   C8        1.0  0.2882367550928677  0.5790949389556865  0.5651001022683688  1.0000
  C   C9        1.0  0.2516781217530043  0.45326931083453376  0.6071554181578678  1.0000
  C   C10       1.0  0.1790068485892676  0.45338807880605086  0.6070639167997007  1.0000
  C   C11       1.0  0.1419044688849383  0.5790947954505524  0.565100163389602  1.0000
  C   C12       1.0  0.06708643232569679  0.579094669055334  0.5651004122425503  1.0000
  N   N2        1.0  0.0069381156665580005  0.5790946236710814  0.5651006207347722  1.0000
  C   C13       1.0  0.1777495996203398  0.7048015963388785  0.523136356964355  1.0000
  C   C14       1.0  0.2504197100748212  0.7049205644292984  0.5230446927149219  1.0000
  H   H1        1.0  0.5036257841946198  0.452007366927202  0.7494448957934647  1.0000
  H   H2        1.0  0.3761427911637032  0.45277056720642966  0.750645872963583  1.0000
  H   H3        1.0  0.3749300453548878  0.7054197231863062  0.37955466550628225  1.0000
  H   H4        1.0  0.5024047930992708  0.7061825203495655  0.3807560924228226  1.0000
  H   H5        1.0  0.279266977602833  0.354223551920372  0.6384682605394236  1.0000
  H   H6        1.0  0.15178235339515356  0.35534102741133533  0.6394083054165938  1.0000
  H   H7        1.0  0.14954427150201016  0.8028486204737788  0.4907919829380618  1.0000
  H   H8        1.0  0.27701733260507944  0.8039664113062827  0.491731805432297  1.0000
  C   C15       1.0  0.8289798185575387  0.15544058922635773  0.5657388121018749  1.0000
  C   C16       1.0  0.8412040047996797  0.23893423450080525  0.4483104456500915  1.0000
  C   C17       1.0  0.8468840832939818  0.17444939318874625  0.33087482133490487  1.0000
  C   C18       1.0  0.8404261124661928  0.02414919207583766  0.3278650073742886  1.0000
  C   C19       1.0  0.8294268257853347  0.9396926949461777  0.4448854538009321  1.0000
  C   C20       1.0  0.824705497738857  0.0027376407231685103  0.5644736922804414  1.0000
  N   N3        1.0  0.845519062900235  0.9546282988208841  0.20800480854818093  1.0000
  C   C21       1.0  0.8571194592749732  0.032544272385063085  0.08126815757118133  1.0000
  H   H9        1.0  0.8431424177181641  0.4175525370209614  0.7789606148904524  1.0000
  H   H10       1.0  0.8447492812706551  0.3555803722541541  0.4467170846704329  1.0000
  H   H11       1.0  0.8556644265901262  0.24306506870804467  0.2426568104021345  1.0000
  H   H12       1.0  0.8261465937219944  0.8232919407015148  0.44283664066803907  1.0000
  H   H13       1.0  0.8502411126603732  0.8713270707770188  0.8807964098736887  1.0000
  H   H14       1.0  0.8406048252822609  0.8422607629926843  0.21069793598260578  1.0000
  H   H15       1.0  0.8140364898164484  0.11112130795840013  0.05870302200179566  1.0000
  H   H16       1.0  0.9074258315556363  0.09009598170777422  0.0814777213294251  1.0000
  H   H17       1.0  0.8588849193864825  0.9551194947920599  0.004381899267384078  1.0000
  C   C22       1.0  0.8269089276925582  0.5791477222502142  0.18372457030718858  1.0000
  C   C23       1.0  0.8941586768317414  0.6369939918918007  0.17836771374171298  1.0000
  C   C24       1.0  0.9275636540124513  0.6686238566268587  0.058365486347555555  1.0000
  C   C25       1.0  0.8939846789628463  0.6368410069111519  0.9431304845431535  1.0000
  C   C26       1.0  0.8267764250850022  0.5790305494819801  0.9464879215830901  1.0000
  C   C27       1.0  0.793522391885503  0.551054005010231  0.06725726067582305  1.0000
  C   C28       1.0  0.0007350608993876863  0.7258328822023798  0.054017717533672675  1.0000
  F   F1        1.0  0.012450591169193889  0.810080192417427  0.15678308427089238  1.0000
  F   F2        1.0  0.047224672603138895  0.610807987999811  0.062058417613234156  1.0000
  F   F3        1.0  0.012259752308673155  0.8100606186446269  0.9391397098622813  1.0000
  H   H18       1.0  0.7004844262204751  0.4675730167542014  0.40124328186678  1.0000
  H   H19       1.0  0.9207103094972645  0.6572851272686038  0.26773394193066036  1.0000
  H   H20       1.0  0.9204169836915828  0.657023324762848  0.8507203123228034  1.0000
  H   H21       1.0  0.7416892272232907  0.5064722283579695  0.07058110450369104  1.0000
  H   H22       1.0  0.8014036733850158  0.5544372398825173  0.6204931181524551  1.0000
  Zn  Zn1       1.0  0.7506857696226672  0.5790908250712055  0.5651081324062783  1.0000
  Zn  Zn2       1.0  0.9029929098816107  0.5790867287527011  0.5651037501280625  1.0000
  C   C29       1.0  0.8268288945742442  0.5733053557677978  0.8023178860427783  1.0000
  C   C30       1.0  0.8268514389143418  0.5848740182971288  0.3278941211964246  1.0000
  C   C31       1.0  0.8255107687102394  0.8425812715236092  0.5595374611681633  1.0000
  C   C32       1.0  0.828169521538429  0.31559636922732226  0.5706746179015729  1.0000
  O   O1        1.0  0.8846319428788056  0.5867879670856473  0.37627708582605063  1.0000
  O   O2        1.0  0.8846459914742792  0.5713872096742476  0.7539312231319248  1.0000
  O   O3        1.0  0.8835808087659994  0.7888309169192799  0.5578843101164564  1.0000
  O   O4        1.0  0.8856970735798321  0.369344270177272  0.5723239014496802  1.0000
  O   O5        1.0  0.767981553949487  0.7888332836496037  0.5578879810793227  1.0000
  O   O6        1.0  0.7690467279227254  0.5713913097215358  0.7539348222589197  1.0000
  O   O7        1.0  0.7690326798983822  0.5867920170990224  0.3762791235752059  1.0000
  O   O8        1.0  0.7700978106317032  0.3693483098569601  0.5723260365853367  1.0000
