data_image0
_chemical_formula_structural       NC12NC2H8C6NCH9C7NH4Zn2C4O8
_chemical_formula_sum              "N4 C32 H21 Zn2 O8"
_cell_length_a       19.240039667572717
_cell_length_b       9.273386996610926
_cell_length_c       9.275157849593905
_cell_angle_alpha    86.01375275156522
_cell_angle_beta     89.74087680363883
_cell_angle_gamma    89.39858615406628

_space_group_name_H-M_alt    "P 1"
_space_group_IT_number       1

loop_
  _space_group_symop_operation_xyz
  'x, y, z'

loop_
  _atom_site_type_symbol
  _atom_site_label
  _atom_site_symmetry_multiplicity
  _atom_site_fract_x
  _atom_site_fract_y
  _atom_site_fract_z
  _atom_site_occupancy
  N   N1        1.0  0.6500383477262932  0.5635317919519252  0.40779837596495194  1.0000
  C   C1        1.0  0.5898899786400266  0.5635318843679664  0.4077982848916175  1.0000
  C   C2        1.0  0.5150719411797808  0.563532013189091  0.4077981323189024  1.0000
  C   C3        1.0  0.4787044958746915  0.4930248217214363  0.5226664147775854  1.0000
  C   C4        1.0  0.4060341564419282  0.49290257272930876  0.5227626467089641  1.0000
  C   C5        1.0  0.3687397062857305  0.5635321135838174  0.4077978795027126  1.0000
  C   C6        1.0  0.4058209329854585  0.6341618642318612  0.29283332783495997  1.0000
  C   C7        1.0  0.4784920311360112  0.6340393549416059  0.292929696123746  1.0000
  C   C8        1.0  0.29153461652386276  0.5635320251831335  0.40779777376494986  1.0000
  C   C9        1.0  0.254879326543031  0.4381625287098397  0.45446344548890316  1.0000
  C   C10       1.0  0.1822082636788424  0.438280304258297  0.45436191320333646  1.0000
  C   C11       1.0  0.14520233017545686  0.5635318823409197  0.4077978415866592  1.0000
  C   C12       1.0  0.07038429304427128  0.5635317586447581  0.40779811772035934  1.0000
  N   N2        1.0  0.0102359759059503  0.5635317155218103  0.4077983490687487  1.0000
  C   C13       1.0  0.18114390723364804  0.6887835440923642  0.36123371114299574  1.0000
  C   C14       1.0  0.2538142283620541  0.6889015179930067  0.3611319981090453  1.0000
  H   H1        1.0  0.5064999620045256  0.43844385543391945  0.6123515486376796  1.0000
  H   H2        1.0  0.3790142087418361  0.43922008150273084  0.6136841841246166  1.0000
  H   H3        1.0  0.37865434987125896  0.6878443849667342  0.20191173394616224  1.0000
  H   H4        1.0  0.5061263363502071  0.6886202127975233  0.2032448684834205  1.0000
  H   H5        1.0  0.2823962154108087  0.33945638865461536  0.489208989361668  1.0000
  H   H6        1.0  0.15490943067768168  0.34058405986542595  0.49025208759350813  1.0000
  H   H7        1.0  0.1530129168888312  0.7864797613836694  0.32534355294293205  1.0000
  H   H8        1.0  0.2804838179775605  0.7876077455240569  0.3263864044128868  1.0000
  C   C15       1.0  0.8322762120279262  0.13988460289597593  0.40850650279924317  1.0000
  C   C16       1.0  0.8447702864213162  0.22210462096867276  0.27820493487576137  1.0000
  C   C17       1.0  0.8507202697477712  0.15634607373612883  0.14789531343838203  1.0000
  C   C18       1.0  0.8442692164404245  0.006013228203066491  0.14455554562864026  1.0000
  C   C19       1.0  0.8330009791397229  0.9228259339775555  0.2744044748884906  1.0000
  C   C20       1.0  0.8280047988614585  0.9871679329124775  0.4071026929590411  1.0000
  N   N3        1.0  0.8496376441585929  0.935192332110256  0.011555553287991183  1.0000
  C   C21       1.0  0.8615293221159777  0.011733720886955911  0.8709252708897877  1.0000
  H   H9        1.0  0.8459487589132846  0.4043091528006457  0.6451029577983072  1.0000
  H   H10       1.0  0.8483192249482503  0.33873347714051594  0.2764369001138811  1.0000
  H   H11       1.0  0.8597033664040871  0.22400493735551485  0.050006315311591054  1.0000
  H   H12       1.0  0.8297254559078636  0.8064029583206715  0.2721310585780643  1.0000
  H   H13       1.0  0.8528134024480745  0.8591881968426043  0.7581026030969444  1.0000
  H   H14       1.0  0.8447172168676605  0.8228540059224685  0.014543917496118388  1.0000
  H   H15       1.0  0.8184982145959735  0.09006601516531632  0.845886409889331  1.0000
  H   H16       1.0  0.9118352127517285  0.06928770313665276  0.8711578082834701  1.0000
  H   H17       1.0  0.8634714915758076  0.933475035499989  0.7856102800449807  1.0000
  C   C22       1.0  0.8310833127469559  0.5594484122536056  0.9846135697796369  1.0000
  C   C23       1.0  0.890752198298957  0.6064788518505517  0.05423166788324795  1.0000
  C   C24       1.0  0.9467985791647018  0.6648534091052278  0.9742567735442939  1.0000
  C   C25       1.0  0.9438282024539897  0.6771255615987339  0.8235774935953915  1.0000
  C   C26       1.0  0.8855941534878764  0.6289269028356015  0.752619788965859  1.0000
  C   C27       1.0  0.8291977319899112  0.5676041037029587  0.8309956277508599  1.0000
  C   C28       1.0  0.0071385465283417835  0.7138929387042087  0.04717913486426384  1.0000
  N   N4        1.0  0.05563643343883262  0.7533074973931817  0.10579641980694365  1.0000
  H   H18       1.0  0.6622198487174804  0.5108064101844718  0.0925318024783588  1.0000
  H   H19       1.0  0.9868777150374562  0.7227589763451565  0.7606790807169044  1.0000
  H   H20       1.0  0.8854021597183286  0.6365116005308555  0.6355427823774611  1.0000
  H   H21       1.0  0.7162618057232907  0.5287968864020054  0.5536534445015637  1.0000
  Zn  Zn1       1.0  0.7539836125978225  0.5635279983934689  0.407806684214715  1.0000
  Zn  Zn2       1.0  0.9062907629286509  0.5635238545448067  0.40780182152489064  1.0000
  C   C29       1.0  0.8295815532485226  0.5603153043391842  0.6710207930328771  1.0000
  C   C30       1.0  0.8306944759756474  0.566738370192659  0.14458785108248517  1.0000
  C   C31       1.0  0.8288214148794365  0.8269580253864588  0.4016253226012869  1.0000
  C   C32       1.0  0.8314545709397261  0.30009391661046325  0.41398340121910254  1.0000
  O   O1        1.0  0.8883637803273566  0.5691770802608891  0.19827484633346026  1.0000
  O   O2        1.0  0.8875098582611517  0.557872356854392  0.6173296940729169  1.0000
  O   O3        1.0  0.8868952544079692  0.7731897407179398  0.39979094322123987  1.0000
  O   O4        1.0  0.8889783323971234  0.3538597056776866  0.4158134891166214  1.0000
  O   O5        1.0  0.7712959911544035  0.7731921472635008  0.3997950166170612  1.0000
  O   O6        1.0  0.7719105864376467  0.5578764959377849  0.6173336877577884  1.0000
  O   O7        1.0  0.7727645126635304  0.5691811523756765  0.19827710747289373  1.0000
  O   O8        1.0  0.7733790645417663  0.35386376851503987  0.41581585831864776  1.0000
