data_image0
_chemical_formula_structural       NC9NC5H8C6FH5C8H8Zn2C4O8
_chemical_formula_sum              "N2 C32 H21 F1 Zn2 O8"
_cell_length_a       17.807436237873137
_cell_length_b       9.275642734913903
_cell_length_c       9.275657083861812
_cell_angle_alpha    85.77689565722392
_cell_angle_beta     88.90332225934053
_cell_angle_gamma    88.99238798493903

_space_group_name_H-M_alt    "P 1"
_space_group_IT_number       1

loop_
  _space_group_symop_operation_xyz
  'x, y, z'

loop_
  _atom_site_type_symbol
  _atom_site_label
  _atom_site_symmetry_multiplicity
  _atom_site_fract_x
  _atom_site_fract_y
  _atom_site_fract_z
  _atom_site_occupancy
  N   N1        1.0  0.7230673932420478  0.5321703218098763  0.39593627237990986  1.0000
  C   C1        1.0  0.662320263030243  0.4930350114030566  0.3837589740155438  1.0000
  C   C2        1.0  0.5867575098405217  0.4443549949612215  0.3686117369543285  1.0000
  C   C3        1.0  0.568754207432206  0.36444043511312185  0.25217262045959665  1.0000
  C   C4        1.0  0.4953864111625624  0.3170516076798011  0.23737409520189345  1.0000
  C   C5        1.0  0.43897105864198965  0.34915799181425156  0.33897930721117153  1.0000
  C   C6        1.0  0.3610002954234577  0.2989239490680884  0.3233432198752473  1.0000
  C   C7        1.0  0.2991931109734038  0.3898488259996373  0.3519977814336448  1.0000
  C   C8        1.0  0.22568170361328346  0.3422346555851452  0.337214789883854  1.0000
  C   C9        1.0  0.1628390253310038  0.43614979286254973  0.3662687161633027  1.0000
  N   N2        1.0  0.11232646828350681  0.5116510723217338  0.38962727641082306  1.0000
  C   C10       1.0  0.21339248922989246  0.2034090331655482  0.2937495370847727  1.0000
  C   C11       1.0  0.2743422612265552  0.1124687266473503  0.2650856859810584  1.0000
  C   C12       1.0  0.347732840790999  0.15964364859594468  0.2796445182923981  1.0000
  C   C13       1.0  0.45766768678805375  0.4296227313476583  0.4556609410605388  1.0000
  C   C14       1.0  0.5310879695784446  0.476799244874601  0.47028700732998013  1.0000
  H   H1        1.0  0.6113695980235015  0.3390488737288928  0.17260446192337242  1.0000
  H   H2        1.0  0.4825599903130294  0.2569565417169215  0.14541780942884674  1.0000
  H   H3        1.0  0.3081408760683422  0.4982319014948415  0.3838870502766354  1.0000
  H   H4        1.0  0.1567727597064071  0.1655571640082707  0.282046535043049  1.0000
  H   H5        1.0  0.26470713742068336  0.004989021494087313  0.2318624701824772  1.0000
  H   H6        1.0  0.3940677769028814  0.08653630608244223  0.25861161752338657  1.0000
  H   H7        1.0  0.41575943511292235  0.4544235207392859  0.5366670104362237  1.0000
  H   H8        1.0  0.5444553761311314  0.5382432695615527  0.5610849250920118  1.0000
  C   C15       1.0  0.9153750354638468  0.09849232564921051  0.39343926841154087  1.0000
  C   C16       1.0  0.9014214871463353  0.18187184997386985  0.2634381999743036  1.0000
  C   C17       1.0  0.8945510780741234  0.11629040352201536  0.13376701683553405  1.0000
  C   C18       1.0  0.901588338841384  0.9666191857178295  0.13180395424570546  1.0000
  C   C19       1.0  0.9141934072655074  0.8817108989379756  0.25981033063679715  1.0000
  C   C20       1.0  0.9200258998657641  0.9453176912740615  0.3921366761161442  1.0000
  F   F1        1.0  0.8819270375911871  0.19841489066150308  0.009280991717042435  1.0000
  H   H9        1.0  0.9915448225526207  0.17527675946878626  0.7141948124488811  1.0000
  H   H10       1.0  0.8975946943324772  0.29868947693290715  0.26165532192658447  1.0000
  H   H11       1.0  0.8965569774591748  0.9159052447456181  0.031067683177710144  1.0000
  H   H12       1.0  0.917603190262777  0.765350883472678  0.25579322517008274  1.0000
  H   H13       1.0  0.968299826608278  0.6464716169875941  0.609971521557485  1.0000
  C   C21       1.0  0.9196017720679112  0.5196305607574669  0.9694404367838508  1.0000
  C   C22       1.0  0.9591135429392587  0.627493140302842  0.03358114157406012  1.0000
  C   C23       1.0  0.9920269691347361  0.7418765757296424  0.9491408800468282  1.0000
  C   C24       1.0  0.9865379825353772  0.747354969869821  0.7985834390607405  1.0000
  C   C25       1.0  0.9486520454462624  0.6400524390461428  0.732962844043803  1.0000
  C   C26       1.0  0.9157991423496896  0.5241794460340778  0.8161355548925191  1.0000
  C   C27       1.0  0.035042709256107855  0.8552681028383637  0.01947603425287037  1.0000
  C   C28       1.0  0.11731918130416673  0.8097749513802013  0.03604677001091905  1.0000
  H   H14       1.0  0.962982405880809  0.6246152323383578  0.15024733649052724  1.0000
  H   H15       1.0  0.012343961147037062  0.8341469389962405  0.7316512428998401  1.0000
  H   H16       1.0  0.8262025661724096  0.36267705524316657  0.5499941263339174  1.0000
  H   H17       1.0  0.031504135001841675  0.9601607302042863  0.9535413827362262  1.0000
  H   H18       1.0  0.010150303090372455  0.8729149696843104  0.12773230973419358  1.0000
  H   H19       1.0  0.12210289667646544  0.7069200094849424  0.10486607018880245  1.0000
  H   H20       1.0  0.14367871557570416  0.795111343680579  0.9284639635321095  1.0000
  H   H21       1.0  0.1480001190320266  0.8947368448082758  0.08799068124182119  1.0000
  Zn  Zn1       1.0  0.8353990940721275  0.5262451070768014  0.3941239758749271  1.0000
  Zn  Zn2       1.0  0.9999946314772608  0.517564597335362  0.39145144281921573  1.0000
  C   C29       1.0  0.9164846997222098  0.5175755876033916  0.656100887474941  1.0000
  C   C30       1.0  0.9189108325615735  0.5262358420700302  0.12947464073395465  1.0000
  C   C31       1.0  0.919168708169175  0.7852190151873795  0.3866381509090606  1.0000
  C   C32       1.0  0.9162267580902886  0.25859068552121894  0.398937457736412  1.0000
  O   O1        1.0  0.981142061052126  0.5251521361707314  0.18216937881934858  1.0000
  O   O2        1.0  0.9791776715304683  0.5120698974870603  0.6013773453150251  1.0000
  O   O3        1.0  0.9813441935298741  0.7281954025353009  0.3837842904106623  1.0000
  O   O4        1.0  0.9789754834295223  0.3090266438183782  0.3997623265267569  1.0000
  O   O5        1.0  0.8564181859515299  0.7347830635575461  0.38581309307180467  1.0000
  O   O6        1.0  0.8542516738081076  0.5186592904378884  0.6034060684440092  1.0000
  O   O7        1.0  0.8562160708881215  0.5317414695610319  0.18419636875520617  1.0000
  O   O8        1.0  0.8540494927203797  0.3156159674765515  0.40178942456398814  1.0000
