data_image0
_chemical_formula_structural       NC5NC4H6C10H6C6ClH4Zn2C4O8
_chemical_formula_sum              "N2 C29 H16 Cl1 Zn2 O8"
_cell_length_a       13.854160002989762
_cell_length_b       9.275150299802176
_cell_length_c       9.276548810779733
_cell_angle_alpha    85.75527424230437
_cell_angle_beta     89.72476968690219
_cell_angle_gamma    89.48388968248379

_space_group_name_H-M_alt    "P 1"
_space_group_IT_number       1

loop_
  _space_group_symop_operation_xyz
  'x, y, z'

loop_
  _atom_site_type_symbol
  _atom_site_label
  _atom_site_symmetry_multiplicity
  _atom_site_fract_x
  _atom_site_fract_y
  _atom_site_fract_z
  _atom_site_occupancy
  N   N1        1.0  0.9046151770304065  0.5644655572333812  0.40168668325558476  1.0000
  C   C1        1.0  0.832323935284989  0.5891484693268243  0.34252497527199255  1.0000
  C   C2        1.0  0.7423926156022725  0.6198546754294061  0.2689255468530325  1.0000
  C   C3        1.0  0.6547641992505151  0.5910144514828659  0.34078237834263625  1.0000
  C   C4        1.0  0.5672502032206093  0.6198546895530004  0.2689255236100603  1.0000
  C   C5        1.0  0.4772157945070821  0.5891483227853149  0.34252506768582847  1.0000
  N   N2        1.0  0.4048416068147792  0.5644654937104323  0.40168668352869896  1.0000
  C   C6        1.0  0.5673935485441608  0.678141955509475  0.12522738788236465  1.0000
  C   C7        1.0  0.6549766380611541  0.7091322138623493  0.0532549839459906  1.0000
  C   C8        1.0  0.6551234545703866  0.7675558377921354  0.8980718374779629  1.0000
  C   C9        1.0  0.7424706378830122  0.6781419533595371  0.12522729765371632  1.0000
  H   H1        1.0  0.6546792263078783  0.5457899031185731  0.4520027269918487  1.0000
  H   H2        1.0  0.4995715160788083  0.6994290922588521  0.06948031391665732  1.0000
  H   H3        1.0  0.7196455402055915  0.8355264101914482  0.873910131218413  1.0000
  H   H4        1.0  0.5899370623228001  0.8355264126631636  0.873910196262285  1.0000
  H   H5        1.0  0.6559019560443012  0.6763423507462896  0.8270638697945336  1.0000
  H   H6        1.0  0.8103944747635973  0.6994292040073136  0.06948022789285879  1.0000
  C   C10       1.0  0.15727191185596912  0.14078200806121766  0.40409895156631226  1.0000
  C   C11       1.0  0.20838851982644402  0.22183897062670124  0.29508666823495777  1.0000
  C   C12       1.0  0.2512453803086223  0.15464374280296167  0.1805345221328245  1.0000
  C   C13       1.0  0.24342153741879796  0.005412192778560422  0.17351917555622154  1.0000
  C   C14       1.0  0.1944143313536325  0.9229054778802601  0.28188387063227305  1.0000
  C   C15       1.0  0.15219411074154543  0.9881380174384239  0.39928697959485415  1.0000
  C   C16       1.0  0.3023818626878637  0.23942009075327642  0.06902978381536462  1.0000
  C   C17       1.0  0.3451960056050519  0.31042290725384314  0.9756770771421212  1.0000
  C   C18       1.0  0.39532938103443693  0.3935721842629821  0.8663651289401416  1.0000
  C   C19       1.0  0.43813526917351875  0.46456968196605614  0.7730303173245905  1.0000
  H   H7        1.0  0.11075384103912596  0.40519446419489374  0.6329115604662656  1.0000
  H   H8        1.0  0.2130188860962311  0.3383076537876906  0.2973126601423499  1.0000
  H   H9        1.0  0.27606743886266244  0.9524579159734059  0.08487988255792889  1.0000
  H   H10       1.0  0.19148278118603798  0.8068486319432733  0.27566294908329314  1.0000
  H   H11       1.0  0.08835477976791051  0.8607922801552144  0.74164001474215  1.0000
  H   H12       1.0  0.47572240950424016  0.526911514002641  0.6910746437619619  1.0000
  C   C20       1.0  0.15611668821172842  0.5605947066864931  0.978565560035487  1.0000
  C   C21       1.0  0.236755426924937  0.6154395513256457  0.047360583742833466  1.0000
  C   C22       1.0  0.31191610309352313  0.6810377583183792  0.9667555967722609  1.0000
  C   C23       1.0  0.3075646231042549  0.692895270939681  0.8162487338532207  1.0000
  C   C24       1.0  0.22903509773659778  0.6370383850566461  0.7458103511592924  1.0000
  C   C25       1.0  0.1533493401327548  0.568325287991709  0.8248203965821252  1.0000
  Cl  Cl1       1.0  0.41114809646606654  0.7505085378142169  0.05486555801241089  1.0000
  H   H13       1.0  0.039972092480982074  0.3991056272749538  0.2724847597433333  1.0000
  H   H14       1.0  0.36553431454224294  0.7442207259207395  0.7534680146650645  1.0000
  H   H15       1.0  0.22863609395444068  0.6445666357026619  0.6287193084543738  1.0000
  H   H16       1.0  0.9986173656767902  0.5154294873502137  0.5485246735143132  1.0000
  Zn  Zn1       1.0  0.04896972064221748  0.5644617522380504  0.4016950350605881  1.0000
  Zn  Zn2       1.0  0.260487096431153  0.5644576003219424  0.4016902324002196  1.0000
  C   C26       1.0  0.15390473625322884  0.5611163672169832  0.6648927270629772  1.0000
  C   C27       1.0  0.15555437921192314  0.5678048070216127  0.1384926714310477  1.0000
  C   C28       1.0  0.15316775559381282  0.8279172640277679  0.39445470662589655  1.0000
  C   C29       1.0  0.15629129783156692  0.30100217748862224  0.40893077853357207  1.0000
  O   O1        1.0  0.23563544267367353  0.5702167125469477  0.19216388412764385  1.0000
  O   O2        1.0  0.23436047471511223  0.5587002182670644  0.6112174606584682  1.0000
  O   O3        1.0  0.23376426653834942  0.7741453303074988  0.3928368372669675  1.0000
  O   O4        1.0  0.23623157896532487  0.3547716098420155  0.41054439942533705  1.0000
  O   O5        1.0  0.07322516592756134  0.7741477427208954  0.3928408680295217  1.0000
  O   O6        1.0  0.07382136396361294  0.5587043634055844  0.6112214047496298  1.0000
  O   O7        1.0  0.07509633795264525  0.57022079158275  0.19216609613602298  1.0000
  O   O8        1.0  0.0756924739489242  0.35477567954523404  0.4105467195215744  1.0000
