data_image0
_chemical_formula_structural       NC12NC2H8C6NH7C7NH4Zn2C4O8
_chemical_formula_sum              "N4 C31 H19 Zn2 O8"
_cell_length_a       19.240039667572717
_cell_length_b       9.274771166103584
_cell_length_c       9.275157849593905
_cell_angle_alpha    86.00874675488272
_cell_angle_beta     89.74087680363883
_cell_angle_gamma    90.59704977044065

_space_group_name_H-M_alt    "P 1"
_space_group_IT_number       1

loop_
  _space_group_symop_operation_xyz
  'x, y, z'

loop_
  _atom_site_type_symbol
  _atom_site_label
  _atom_site_symmetry_multiplicity
  _atom_site_fract_x
  _atom_site_fract_y
  _atom_site_fract_z
  _atom_site_occupancy
  N   N1        1.0  0.6658018662768879  0.5633170622501369  0.4075129463249254  1.0000
  C   C1        1.0  0.6056534981223592  0.5633171546534861  0.40751285523472025  1.0000
  C   C2        1.0  0.5308354619608875  0.5633172834569189  0.40751270263848816  1.0000
  C   C3        1.0  0.49375716355618615  0.4928197751874414  0.5223938564966422  1.0000
  C   C4        1.0  0.4210855916097859  0.4926975429845408  0.5224901107451148  1.0000
  C   C5        1.0  0.38450322807901605  0.5633173838378573  0.4075124498039708  1.0000
  C   C6        1.0  0.422296543519309  0.6339374344558972  0.29253500436302676  1.0000
  C   C7        1.0  0.4949664065319007  0.6338149419906169  0.2926313950164259  1.0000
  C   C8        1.0  0.3072981374258932  0.5633172954493136  0.40751234408234593  1.0000
  C   C9        1.0  0.26937887290133417  0.4379650167612485  0.45420090256206147  1.0000
  C   C10       1.0  0.19670899744954887  0.4380827761348456  0.45409934877604763  1.0000
  C   C11       1.0  0.1609658496373529  0.5633171526267176  0.40751241193013193  1.0000
  C   C12       1.0  0.0861478112590633  0.5633170289475441  0.40751268808641306  1.0000
  N   N2        1.0  0.025999493685977  0.5633169858305189  0.4075129194426749  1.0000
  C   C13       1.0  0.1981702132302821  0.6885516127759215  0.36092541624195595  1.0000
  C   C14       1.0  0.2708417237708773  0.6886695704744625  0.3608236816713484  1.0000
  H   H1        1.0  0.521002344697246  0.43824630484895133  0.6120889543534  1.0000
  H   H2        1.0  0.3935244173413259  0.4390224243137315  0.6134214481368373  1.0000
  H   H3        1.0  0.3956711872709799  0.6876125826309489  0.2016036104927721  1.0000
  H   H4        1.0  0.5231509956416641  0.6883883039123992  0.2029366033992303  1.0000
  H   H5        1.0  0.2959006070317237  0.3392724326440155  0.4889644656770126  1.0000
  H   H6        1.0  0.1684251914732703  0.3403999489846121  0.4900073580474879  1.0000
  H   H7        1.0  0.1710241955873455  0.7862344128283107  0.32501742316557114  1.0000
  H   H8        1.0  0.2985064690057026  0.7873622420555082  0.3260600687170352  1.0000
  C   C15       1.0  0.8437685220505166  0.13972805533991606  0.40829841182626087  1.0000
  C   C16       1.0  0.828049601450863  0.22179516356722379  0.2794261696664388  1.0000
  C   C17       1.0  0.8188216682356394  0.1554962561379647  0.14973628777859327  1.0000
  C   C18       1.0  0.8253510945218877  0.0057437170624139436  0.147979292100489  1.0000
  C   C19       1.0  0.8397885561578166  0.9223401243328333  0.27508120664045155  1.0000
  C   C20       1.0  0.8480394395614915  0.98689507807008  0.40673992862448305  1.0000
  N   N3        1.0  0.803532788761439  0.2406492158899509  0.019447664891967923  1.0000
  H   H9        1.0  0.9213164039670834  0.22242704899103893  0.7236884289333823  1.0000
  H   H10       1.0  0.8245463464706302  0.33838253861392253  0.27887260097946487  1.0000
  H   H11       1.0  0.818580086207365  0.9532951134286547  0.04819601237232305  1.0000
  H   H12       1.0  0.8428603570782478  0.8061363437373037  0.27095394824790575  1.0000
  H   H13       1.0  0.8974494553274888  0.6918961430128373  0.6213168102755844  1.0000
  H   H14       1.0  0.798744207486277  0.35272266674777564  0.01940085894237864  1.0000
  H   H15       1.0  0.7968221618883625  0.1922406539402544  0.922034356799926  1.0000
  C   C21       1.0  0.8468056626868739  0.5592342433481565  0.9843288855786243  1.0000
  C   C22       1.0  0.906948708860901  0.606258223957622  0.053938398067594685  1.0000
  C   C23       1.0  0.9635836216777727  0.6646247642654504  0.9739528471951764  1.0000
  C   C24       1.0  0.9607369727380485  0.6768952313466998  0.8232713269105879  1.0000
  C   C25       1.0  0.9020169851709825  0.6287031920099688  0.7523224211592701  1.0000
  C   C26       1.0  0.8450023075642018  0.5673888147248629  0.8307094546923222  1.0000
  C   C27       1.0  0.02441800529730509  0.7136575589559244  0.04686625613224437  1.0000
  N   N4        1.0  0.07331326956222849  0.7530667045944712  0.1054763457730088  1.0000
  H   H16       1.0  0.6774517902717795  0.5105989215925621  0.09225599808984031  1.0000
  H   H17       1.0  0.004246561147018378  0.7225223789678934  0.7603645834505222  1.0000
  H   H18       1.0  0.9019014602800564  0.6362868480507566  0.6352440299507802  1.0000
  H   H19       1.0  0.731675127155536  0.5285869270643049  0.5533743558720876  1.0000
  Zn  Zn1       1.0  0.7697470929017828  0.5633132692126739  0.4075212552672196  1.0000
  Zn  Zn2       1.0  0.9220542014543528  0.5633091259331129  0.40751639333387324  1.0000
  C   C28       1.0  0.8453126431894709  0.5601010163779667  0.6707359505768826  1.0000
  C   C29       1.0  0.8464903232296568  0.5665232001112173  0.14430183606742641  1.0000
  C   C30       1.0  0.8472407952032508  0.8267071176953014  0.4012918033379027  1.0000
  C   C31       1.0  0.8445621103434624  0.2999153664969017  0.41374606332771513  1.0000
  O   O1        1.0  0.9041842146422742  0.568961575255982  0.19798838612109848  1.0000
  O   O2        1.0  0.9032163184195824  0.5576584043985908  0.6170452975877847  1.0000
  O   O3        1.0  0.9047725431944266  0.7729462173651067  0.3994672395958982  1.0000
  O   O4        1.0  0.9026279381775791  0.3536737715685369  0.4155663360427748  1.0000
  O   O5        1.0  0.7891733042036393  0.772948623580161  0.3994713125523939  1.0000
  O   O6        1.0  0.7876170883262926  0.5576625429135373  0.6170492905170479  1.0000
  O   O7        1.0  0.7885849880334858  0.5689656468115203  0.1979906465171497  1.0000
  O   O8        1.0  0.7870287112837245  0.3536778338479156  0.41556870450311223  1.0000
