data_image0
_chemical_formula_structural       NC5NC4H6C9H10C6NH7Zn2C4O8
_chemical_formula_sum              "N3 C28 H23 Zn2 O8"
_cell_length_a       13.854160002989762
_cell_length_b       10.297183801781406
_cell_length_c       9.274774538082514
_cell_angle_alpha    85.03689992379437
_cell_angle_beta     90.34967120186236
_cell_angle_gamma    89.99762469776624

_space_group_name_H-M_alt    "P 1"
_space_group_IT_number       1

loop_
  _space_group_symop_operation_xyz
  'x, y, z'

loop_
  _atom_site_type_symbol
  _atom_site_label
  _atom_site_symmetry_multiplicity
  _atom_site_fract_x
  _atom_site_fract_y
  _atom_site_fract_z
  _atom_site_occupancy
  N   N1        1.0  0.9023575365304795  0.4341694349299947  0.40732040995752605  1.0000
  C   C1        1.0  0.8297825715661082  0.4573423532523977  0.34819379967838193  1.0000
  C   C2        1.0  0.7394982876503597  0.4861700973433131  0.2746380326800235  1.0000
  C   C3        1.0  0.6522213396834312  0.4590502949061892  0.34645818173205867  1.0000
  C   C4        1.0  0.5643558751838949  0.4861701104323232  0.274638009473946  1.0000
  C   C5        1.0  0.4746744305808767  0.45734221983672046  0.3481938914737224  1.0000
  N   N2        1.0  0.4025839659341789  0.43416937773647546  0.4073204098994916  1.0000
  C   C6        1.0  0.5638000527636242  0.5409557784202879  0.13101643074019864  1.0000
  C   C7        1.0  0.6510437812068243  0.5700130951330562  0.05909174902612357  1.0000
  C   C8        1.0  0.6504083069244119  0.6251061648288431  0.9039676728741153  1.0000
  C   C9        1.0  0.7388771414300381  0.5409557779352883  0.13101634035735676  1.0000
  H   H1        1.0  0.6526768440113037  0.4165470040582402  0.45761869683162043  1.0000
  H   H2        1.0  0.49569879828856384  0.5610166156428111  0.07529213957289094  1.0000
  H   H3        1.0  0.7151632554568885  0.6866878859777761  0.8801224794289668  1.0000
  H   H4        1.0  0.585454778064396  0.6866878871573547  0.8801225445888052  1.0000
  H   H5        1.0  0.650118328101048  0.5441290650921763  0.8323710671565496  1.0000
  H   H6        1.0  0.8065217570177851  0.5610167176318963  0.07529205399609773  1.0000
  C   C10       1.0  0.15247958806717832  0.05269223895090369  0.407524924853363  1.0000
  C   C11       1.0  0.1490450071181757  0.06374282829555698  0.25565280479843655  1.0000
  C   C12       1.0  0.14728514759807454  0.9527878809779404  0.1778442764835424  1.0000
  C   C13       1.0  0.14903129350520422  0.8285763500772482  0.25506417094940237  1.0000
  C   C14       1.0  0.15247122541759905  0.8156364742017789  0.40712838704316257  1.0000
  C   C15       1.0  0.1541720012542045  0.9281783288257707  0.48236612354654507  1.0000
  C   C16       1.0  0.1435701387224002  0.9741720684618593  0.013583854724278359  1.0000
  C   C17       1.0  0.08672317670775674  0.8760849986042952  0.9332426125295689  1.0000
  C   C18       1.0  0.19666926269921792  0.8764291396572442  0.9286578233314016  1.0000
  H   H7        1.0  0.15381220744267465  0.37597254641435035  0.46604612403495155  1.0000
  H   H8        1.0  0.14771927207149407  0.1594313308030595  0.1970217874333018  1.0000
  H   H9        1.0  0.14774003217688175  0.7414235202906824  0.198061325592102  1.0000
  H   H10       1.0  0.15682136879173036  0.9189251242264799  0.5995386533745688  1.0000
  H   H11       1.0  0.15895546631704804  0.5839802423146354  0.6943348734266944  1.0000
  H   H12       1.0  0.1423769557178325  0.07530153015861683  0.9607876675643716  1.0000
  H   H13       1.0  0.05478268568101785  0.7919325943032914  0.9989225288779893  1.0000
  H   H14       1.0  0.052253118730288144  0.9177584797575297  0.831131105029411  1.0000
  H   H15       1.0  0.2315151178650835  0.7924865763727242  0.9915534798687089  1.0000
  H   H16       1.0  0.22645784802663704  0.9183013992225907  0.8238653766841233  1.0000
  C   C19       1.0  0.15074311714191108  0.43748689091318566  0.9835086293714244  1.0000
  C   C20       1.0  0.21913652877044537  0.5141468125351047  0.0502053004766887  1.0000
  C   C21       1.0  0.29186036600071463  0.5801058473804974  0.9694061068809607  1.0000
  C   C22       1.0  0.2967797924156436  0.5697041085933661  0.8204340978146663  1.0000
  C   C23       1.0  0.22869602373209733  0.4959058835246408  0.7520333769075971  1.0000
  C   C24       1.0  0.15420767097677546  0.43084178344397506  0.8311447094455671  1.0000
  N   N3        1.0  0.3613618690409566  0.6565850414467902  0.039108117108599405  1.0000
  H   H17       1.0  0.006467813654112531  0.18354370591313504  0.1095609144321974  1.0000
  H   H18       1.0  0.2173990022392287  0.5203078944241173  0.16622222776529116  1.0000
  H   H19       1.0  0.35292806611577865  0.6198945347009943  0.7568772449437509  1.0000
  H   H20       1.0  0.23300020661038504  0.4922923978812366  0.6358622055323431  1.0000
  H   H21       1.0  0.05406873985050309  0.26375683032940067  0.5651497595456401  1.0000
  H   H22       1.0  0.3585588595233556  0.6647313943058977  0.1504738061145039  1.0000
  H   H23       1.0  0.41611697828108685  0.7057539114949758  0.9798404797345  1.0000
  Zn  Zn1       1.0  0.04671211826432884  0.4341658750589907  0.4073287551346871  1.0000
  Zn  Zn2       1.0  0.2582294339388107  0.4341622143374133  0.407323923191826  1.0000
  C   C25       1.0  0.15355070520897396  0.4269227327047507  0.670926031700295  1.0000
  C   C26       1.0  0.15139315731766118  0.44140699462563004  0.14372678737599998  1.0000
  C   C27       1.0  0.15244431728240568  0.6714688567513978  0.4014521593175131  1.0000
  C   C28       1.0  0.15249947339979594  0.19685930923178163  0.41320073751695413  1.0000
  O   O1        1.0  0.23188103576778843  0.44271556066858  0.19749563406151568  1.0000
  O   O2        1.0  0.23359957349089858  0.42561041151537576  0.6171531027334547  1.0000
  O   O3        1.0  0.23270507530759943  0.6230844876449213  0.39955104353473314  1.0000
  O   O4        1.0  0.2327754613321513  0.24524149468148226  0.41509758504388183  1.0000
  O   O5        1.0  0.07216601869047845  0.6230865947176447  0.39955509327668803  1.0000
  O   O6        1.0  0.07306051653770118  0.42561407993802297  0.6171570747112938  1.0000
  O   O7        1.0  0.07134197178697786  0.442719197425551  0.19749787086697168  1.0000
  O   O8        1.0  0.07223639778976709  0.2452451212987285  0.41509993005975  1.0000
