data_image0
_chemical_formula_structural       NC8NC6H8C7F3H5C7F3H5Zn2C4O8
_chemical_formula_sum              "N2 C32 H18 F6 Zn2 O8"
_cell_length_a       17.457602349358154
_cell_length_b       9.272718291674593
_cell_length_c       9.272721663655245
_cell_angle_alpha    86.31122681088247
_cell_angle_beta     93.38388695232669
_cell_angle_gamma    91.24279848523653

_space_group_name_H-M_alt    "P 1"
_space_group_IT_number       1

loop_
  _space_group_symop_operation_xyz
  'x, y, z'

loop_
  _atom_site_type_symbol
  _atom_site_label
  _atom_site_symmetry_multiplicity
  _atom_site_fract_x
  _atom_site_fract_y
  _atom_site_fract_z
  _atom_site_occupancy
  N   N1        1.0  0.7088368634153702  0.6038583128147337  0.4858320807403865  1.0000
  C   C1        1.0  0.6479020811092927  0.5528138208760902  0.47367337768048556  1.0000
  C   C2        1.0  0.5720966546480428  0.4893208767910049  0.4585585963645305  1.0000
  C   C3        1.0  0.5137906022762184  0.5343787838791235  0.5420792337038249  1.0000
  C   C4        1.0  0.4394173172930911  0.4732410222138799  0.527663893306862  1.0000
  C   C5        1.0  0.3775340645057035  0.5208170601801922  0.6161143959116022  1.0000
  C   C6        1.0  0.30261165499358605  0.5409605759565039  0.5543165150946194  1.0000
  C   C7        1.0  0.2443069705815255  0.5858150167967289  0.6379556067398193  1.0000
  C   C8        1.0  0.1679320328403393  0.6066168703367432  0.5737015022054968  1.0000
  N   N2        1.0  0.10653952790604004  0.6233344801291798  0.522041319084172  1.0000
  C   C9        1.0  0.2604341724161587  0.6107990761706734  0.783959406844552  1.0000
  C   C10       1.0  0.33457224318389867  0.5910898092846102  0.8461909542528254  1.0000
  C   C11       1.0  0.39286696682351513  0.5464381519056636  0.7630617599543024  1.0000
  C   C12       1.0  0.4246340773540654  0.3662842675626843  0.4281307491846872  1.0000
  C   C13       1.0  0.4829293215649535  0.3215382489723297  0.34505667929020356  1.0000
  C   C14       1.0  0.5565202677303599  0.38280426046080474  0.3600838298204808  1.0000
  H   H1        1.0  0.526161285816082  0.6182696777037997  0.6166958023005029  1.0000
  H   H2        1.0  0.2897909163312521  0.5236918298297568  0.4408628151209986  1.0000
  H   H3        1.0  0.21575093873093487  0.6454546423047867  0.8495636908900851  1.0000
  H   H4        1.0  0.3468705288694801  0.6100851627613626  0.9592424359892495  1.0000
  H   H5        1.0  0.44966204750472144  0.5300919264495161  0.8141597770078896  1.0000
  H   H6        1.0  0.3682898212086419  0.3158940723739825  0.4159366271778806  1.0000
  H   H7        1.0  0.4710612487163974  0.23887896346378937  0.2691178523519445  1.0000
  H   H8        1.0  0.6012100307220929  0.347186601327012  0.2950403967040899  1.0000
  C   C15       1.0  0.9093478667435553  0.1902772428268691  0.500902446237018  1.0000
  C   C16       1.0  0.8620948140728099  0.2687210760072296  0.39694721925188303  1.0000
  C   C17       1.0  0.8094662080983062  0.19812068363869173  0.30388030511662306  1.0000
  C   C18       1.0  0.8061103601870976  0.04671459846467352  0.31200513276772335  1.0000
  C   C19       1.0  0.8534058840878017  0.9672964100163017  0.41284391911047813  1.0000
  C   C20       1.0  0.9060359479614541  0.03690484868812314  0.5069840622266777  1.0000
  C   C21       1.0  0.7607735338192106  0.2840402778416997  0.19062028909507348  1.0000
  F   F1        1.0  0.7413051022753472  0.41479783923545066  0.24125410757354282  1.0000
  F   F2        1.0  0.6936429516271174  0.2091846486919979  0.1543814853793779  1.0000
  F   F3        1.0  0.8015677570256947  0.3101170554315915  0.06802266339188257  1.0000
  H   H9        1.0  0.0019503686179864858  0.27523763659931966  0.8205326028540936  1.0000
  H   H10       1.0  0.8651258871299379  0.3858009823304096  0.39051177315112745  1.0000
  H   H11       1.0  0.7674221328532356  0.9893413640099868  0.2391408273263367  1.0000
  H   H12       1.0  0.8502830979814421  0.8503851926965293  0.414499713965911  1.0000
  H   H13       1.0  0.07160308688879202  0.9300653334593679  0.6956137974485411  1.0000
  C   C22       1.0  0.9056706308011759  0.6111535265101102  0.08029834891273402  1.0000
  C   C23       1.0  0.9387926067624421  0.49484317543927636  0.16514733536066917  1.0000
  C   C24       1.0  0.9786070915666111  0.38743680867510744  0.10204295249717421  1.0000
  C   C25       1.0  0.9829559617776914  0.3942891987033869  0.9513391289231201  1.0000
  C   C26       1.0  0.94939092284284  0.5075759626540491  0.8654588731203288  1.0000
  C   C27       1.0  0.9097132148498613  0.6160285951083374  0.9275880940527061  1.0000
  C   C28       1.0  0.011947920791390622  0.26160172482392  0.1944650032082547  1.0000
  F   F4        1.0  0.03762774545731773  0.304763965258892  0.3293518760784649  1.0000
  F   F5        1.0  0.07335179717607798  0.20497110997636522  0.13048611605382335  1.0000
  F   F6        1.0  0.9560140391046925  0.1550803280337983  0.21162584327184816  1.0000
  H   H14       1.0  0.8556840725645141  0.9520431718561753  0.1545547458582877  1.0000
  H   H15       1.0  0.9349808595798756  0.489534166666008  0.28160731226575453  1.0000
  H   H16       1.0  0.011651435597706875  0.3109970884242814  0.8994054277278796  1.0000
  H   H17       1.0  0.9526775130811924  0.5081980473694827  0.749106962627784  1.0000
  H   H18       1.0  0.7710489289832575  0.852422883094132  0.7955055460940493  1.0000
  Zn  Zn1       1.0  0.8236053164342371  0.6094748961214385  0.4962895866924791  1.0000
  Zn  Zn2       1.0  0.991771163225229  0.6177061457044251  0.5115955394094878  1.0000
  C   C29       1.0  0.908969817371526  0.6093642190445774  0.7673907977344334  1.0000
  C   C30       1.0  0.9064084922141502  0.6178187323480785  0.24049465017002564  1.0000
  C   C31       1.0  0.9066306029567172  0.8768409447752115  0.5000852550209943  1.0000
  C   C32       1.0  0.9087476563878016  0.350340272315977  0.5078002521335754  1.0000
  O   O1        1.0  0.970474212299996  0.6231730636631654  0.3000664763962231  1.0000
  O   O2        1.0  0.9725380861799438  0.6102561258237901  0.7194354123649729  1.0000
  O   O3        1.0  0.9706482878156912  0.8262469310779421  0.5035842278569114  1.0000
  O   O4        1.0  0.9723639527242037  0.4071822652900168  0.515917547586513  1.0000
  O   O5        1.0  0.84301246954847  0.819998773728451  0.4919675732847064  1.0000
  O   O6        1.0  0.8449022607670866  0.60400969996837  0.7078186933119097  1.0000
  O   O7        1.0  0.8428383788591501  0.6169265775964321  0.2884480224999969  1.0000
  O   O8        1.0  0.8447281198366096  0.4009357695348841  0.5042992017773115  1.0000
