data_image0
_chemical_formula_structural       NC6NC3H6C6NCOH7C6ClH3Zn2C4O8
_chemical_formula_sum              "N3 C26 H16 O9 Cl1 Zn2"
_cell_length_a       14.934028789175542
_cell_length_b       9.273730183620392
_cell_length_c       10.302974078461048
_cell_angle_alpha    85.70652844495697
_cell_angle_beta     89.97499619632823
_cell_angle_gamma    90.55680839480088

_space_group_name_H-M_alt    "P 1"
_space_group_IT_number       1

loop_
  _space_group_symop_operation_xyz
  'x, y, z'

loop_
  _atom_site_type_symbol
  _atom_site_label
  _atom_site_symmetry_multiplicity
  _atom_site_fract_x
  _atom_site_fract_y
  _atom_site_fract_z
  _atom_site_occupancy
  N   N1        1.0  0.8533483057430661  0.5774442669604514  0.5711225863551468  1.0000
  C   C1        1.0  0.7758551617132645  0.5763461006138517  0.5705086763547469  1.0000
  C   C2        1.0  0.6794497526037343  0.5749749324882452  0.5697423231965337  1.0000
  C   C3        1.0  0.6323781492028314  0.6817624223813146  0.6293300465920977  1.0000
  C   C4        1.0  0.5388593004133273  0.6806614702592881  0.6287155953091155  1.0000
  C   C5        1.0  0.4914998585947431  0.5728275248535064  0.5685440104995845  1.0000
  C   C6        1.0  0.39486906164480756  0.5751412110370162  0.5698362185154084  1.0000
  N   N2        1.0  0.3174008233672355  0.5769774127237824  0.5708620442125723  1.0000
  C   C7        1.0  0.5385563319979101  0.4645626533971529  0.5081314042120303  1.0000
  C   C8        1.0  0.48948150749296687  0.3473247396593611  0.4427134923830194  1.0000
  C   C9        1.0  0.6327135178873506  0.4667870225589752  0.5093726557244158  1.0000
  H   H1        1.0  0.6679668370078673  0.7659010588358692  0.676280176114884  1.0000
  H   H2        1.0  0.5033638502617406  0.7641521171737669  0.6753040149439329  1.0000
  H   H3        1.0  0.4470479858127183  0.3963956172333867  0.3630239262509414  1.0000
  H   H4        1.0  0.44633196191153374  0.2844781014343134  0.5147221508803039  1.0000
  H   H5        1.0  0.5364490035002424  0.27138805429372037  0.4003347897356224  1.0000
  H   H6        1.0  0.6697092144937269  0.38440705012803433  0.4634042579123819  1.0000
  C   C10       1.0  0.08264354047836514  0.15371296011302382  0.5700279239169983  1.0000
  C   C11       1.0  0.09577484367654061  0.23718702551579038  0.4516749285730801  1.0000
  C   C12       1.0  0.11579140827176104  0.1723594483537238  0.3367849727907329  1.0000
  C   C13       1.0  0.1255155514416404  0.021894301374298923  0.3411398294898793  1.0000
  C   C14       1.0  0.111380141850359  0.937251404536131  0.45715834704036906  1.0000
  C   C15       1.0  0.08811414393123429  0.0006976347838827428  0.5719679277034515  1.0000
  N   N3        1.0  0.1309271944678152  0.26212129184348565  0.218691336710239  1.0000
  C   C16       1.0  0.10856038836433153  0.2211890075275886  0.09116459387709819  1.0000
  O   O1        1.0  0.06253033394548257  0.10933384322415263  0.07542476275059928  1.0000
  H   H7        1.0  0.096679574801175  0.23032831162294354  0.889057473133622  1.0000
  H   H8        1.0  0.09179106615768307  0.35401763950558673  0.44881384413526343  1.0000
  H   H9        1.0  0.14494657751967424  0.9693807444844823  0.25533206002427167  1.0000
  H   H10       1.0  0.11714210337291159  0.8209540999153483  0.4564431231416948  1.0000
  H   H11       1.0  0.09372744921928339  0.7018740517882242  0.7866373100573001  1.0000
  H   H12       1.0  0.1541770105708855  0.36787133416551254  0.22580922594257324  1.0000
  H   H13       1.0  0.12935735308683727  0.2897821053712393  0.006755300115151685  1.0000
  C   C17       1.0  0.08537883851173017  0.5772052957346537  0.1897554125316998  1.0000
  C   C18       1.0  0.06883567529108053  0.4274349988857218  0.19865475184161863  1.0000
  C   C19       1.0  0.060627454800151054  0.3531230568390423  0.08611357004687137  1.0000
  C   C20       1.0  0.06883571586484427  0.42743508029170174  0.9635468530345737  1.0000
  C   C21       1.0  0.08537883574691357  0.5772052212946659  0.9522404314358965  1.0000
  C   C22       1.0  0.09356979308141966  0.6513603336226086  0.0659957456825615  1.0000
  Cl  Cl1       1.0  0.039961116762115875  0.16602437582836105  0.09873450177564047  1.0000
  H   H14       1.0  0.0622560851410634  0.3678678543752999  0.2927194566115878  1.0000
  H   H15       1.0  0.062256147579681426  0.36786783373404414  0.8775184904554153  1.0000
  H   H16       1.0  0.10632833692571309  0.7668676818989354  0.05820398308876507  1.0000
  Zn  Zn1       1.0  0.9872638267959485  0.577305678382475  0.5710548820379013  1.0000
  Zn  Zn2       1.0  0.18348525607874533  0.5771041880005238  0.5709403356672005  1.0000
  C   C23       1.0  0.085339718859192  0.5714600622264449  0.8081012514765047  1.0000
  C   C24       1.0  0.08541151850022083  0.5829516215903836  0.3338940965697057  1.0000
  C   C25       1.0  0.0870754554826063  0.840599471568719  0.5664277394677697  1.0000
  C   C26       1.0  0.08367570372905075  0.3138104796512575  0.5755676738646462  1.0000
  O   O2        1.0  0.1598874553622469  0.5847973848682363  0.3822248714947267  1.0000
  O   O3        1.0  0.15979129954105264  0.5694602844606957  0.7596831622925573  1.0000
  O   O4        1.0  0.16119192499186674  0.7867937622676785  0.5645300954858808  1.0000
  O   O5        1.0  0.15848676302098608  0.3674639174465055  0.5773778410217307  1.0000
  O   O6        1.0  0.01226225289297433  0.786945949006822  0.5646173767156346  1.0000
  O   O7        1.0  0.010861638629182435  0.5696142038670202  0.7597703782683696  1.0000
  O   O8        1.0  0.01095779418537002  0.584951254019294  0.382310526472307  1.0000
  O   O9        1.0  0.009557101773822515  0.36761777628264025  0.5774635933112475  1.0000
