data_image0
_chemical_formula_structural       NC6NC2H4C7NH3C9H8Zn2C4O8
_chemical_formula_sum              "N3 C28 H15 Zn2 O8"
_cell_length_a       14.927258858638513
_cell_length_b       9.275154477615127
_cell_length_c       9.275155815604963
_cell_angle_alpha    86.28252252333478
_cell_angle_beta     90.35750032956715
_cell_angle_gamma    89.43371000992973

_space_group_name_H-M_alt    "P 1"
_space_group_IT_number       1

loop_
  _space_group_symop_operation_xyz
  'x, y, z'

loop_
  _atom_site_type_symbol
  _atom_site_label
  _atom_site_symmetry_multiplicity
  _atom_site_fract_x
  _atom_site_fract_y
  _atom_site_fract_z
  _atom_site_occupancy
  N   N1        1.0  0.8278228324095159  0.5642522189832464  0.41644806577512394  1.0000
  C   C1        1.0  0.7502963414569435  0.5642521905701132  0.41644807624887825  1.0000
  C   C2        1.0  0.6538638330170887  0.5642523052173469  0.4164480268541868  1.0000
  C   C3        1.0  0.6064721845216268  0.5394753266779135  0.2896912163368828  1.0000
  C   C4        1.0  0.5127608725108134  0.5394753511599746  0.2896910830046424  1.0000
  C   C5        1.0  0.4660477701840441  0.5642521278612112  0.41644804477609765  1.0000
  C   C6        1.0  0.3696151947526132  0.5642522425113579  0.4164479953754947  1.0000
  N   N2        1.0  0.2920887038000405  0.564252214098224  0.416448005849249  1.0000
  C   C7        1.0  0.5134393516879295  0.5890291064035571  0.5432048552874902  1.0000
  C   C8        1.0  0.6071506636987427  0.5890290819214967  0.5432049886197301  1.0000
  H   H1        1.0  0.641904406632099  0.5201974393230939  0.19106714292644256  1.0000
  H   H2        1.0  0.4768007498922889  0.5201976367809139  0.1910671387753382  1.0000
  H   H3        1.0  0.47800719704173716  0.6083069843733104  0.6418290367225117  1.0000
  H   H4        1.0  0.6431107861396396  0.6083068945582821  0.641829043243876  1.0000
  C   C9        1.0  0.0625460271459988  0.14084854988592005  0.4147802173168671  1.0000
  C   C10       1.0  0.03747024682212444  0.22293339686674996  0.28770250863937874  1.0000
  C   C11       1.0  0.005133545944167481  0.15585869793680374  0.16735629630388482  1.0000
  C   C12       1.0  0.997342345344609  0.005783932549955354  0.17267045505406453  1.0000
  C   C13       1.0  0.0232373328132196  0.9224664681965242  0.29685152845543405  1.0000
  C   C14       1.0  0.05737421803827106  0.9876448981575666  0.4181283399301512  1.0000
  C   C15       1.0  0.9788600744334915  0.24151216885225413  0.038746969927337505  1.0000
  N   N3        1.0  0.957743480695864  0.31036193709265414  0.9353780145032515  1.0000
  H   H5        1.0  0.08126940529998367  0.22056595104407142  0.7685626114056392  1.0000
  H   H6        1.0  0.972012220419916  0.9528609152114512  0.08017683256810959  1.0000
  H   H7        1.0  0.07377826506471852  0.6909157894877671  0.6551726068991379  1.0000
  C   C16       1.0  0.05834099128218396  0.560602243335657  0.9932086125739864  1.0000
  C   C17       1.0  0.9878310688420621  0.630857203173163  0.06130126390244328  1.0000
  C   C18       1.0  0.923262991518353  0.7106945792364994  0.9803321615788824  1.0000
  C   C19       1.0  0.9280062535986683  0.721948802694079  0.8297948608227594  1.0000
  C   C20       1.0  0.9967181663193344  0.6509191765355178  0.7599907819645328  1.0000
  C   C21       1.0  0.06157923082236216  0.5678911366918244  0.839699856777353  1.0000
  C   C22       1.0  0.8616067619684299  0.8051546920557413  0.7465264587260574  1.0000
  C   C23       1.0  0.8060091272945364  0.8748282615294884  0.6767738936938614  1.0000
  C   C24       1.0  0.738551390514946  0.9593653576293775  0.5921294732667248  1.0000
  H   H8        1.0  0.26698470955972176  0.444273438038399  0.10570650188620223  1.0000
  H   H9        1.0  0.983830745357953  0.6268604342939416  0.17807699984831338  1.0000
  H   H10       1.0  0.8700669154676678  0.7648871085602799  0.03535946304122794  1.0000
  H   H11       1.0  0.9983319664142759  0.6576990948812331  0.6428712924753333  1.0000
  H   H12       1.0  0.2008303782009263  0.4843938738193807  0.5657873259750055  1.0000
  H   H13       1.0  0.7567302830389142  0.9635079915948926  0.47614686313206667  1.0000
  H   H14       1.0  0.672144493734442  0.9080221078542114  0.6069527578407556  1.0000
  H   H15       1.0  0.7356042460077435  0.07069778206984578  0.6290743880880019  1.0000
  Zn  Zn1       1.0  0.9617999976333078  0.5642484258018866  0.4164563613232539  1.0000
  Zn  Zn2       1.0  0.15811166681782352  0.5642442990428276  0.41645148667811904  1.0000
  C   C25       1.0  0.061000230112275844  0.5607694897484499  0.6796722110246274  1.0000
  C   C26       1.0  0.05891356748638988  0.5677250554988578  0.1532357855794948  1.0000
  C   C27       1.0  0.05832521336950069  0.8275328881423356  0.4117519994866728  1.0000
  C   C28       1.0  0.061588528115584816  0.30095992548765876  0.4211560671114625  1.0000
  O   O1        1.0  0.13360502307731523  0.5701076800209668  0.20694049193359532  1.0000
  O   O2        1.0  0.13530479414557117  0.5583826418308186  0.6259633857303559  1.0000
  O   O3        1.0  0.1331436857431163  0.7737974726432397  0.409615925285985  1.0000
  O   O4        1.0  0.13576606401548963  0.3546928585936122  0.42328784435338473  1.0000
  O   O5        1.0  0.9841455334440645  0.7737998662540146  0.4096200036420765  1.0000
  O   O6        1.0  0.9863066309685227  0.5583867670618199  0.6259673940865231  1.0000
  O   O7        1.0  0.9846068536376767  0.5701117400866682  0.2069427672387052  1.0000
  O   O8        1.0  0.9867678950485543  0.3546969092771597  0.4232902276771646  1.0000
