data_image0
_chemical_formula_structural       NC9NC5H8C6SCNH5C7F3H5Zn2C4O8
_chemical_formula_sum              "N3 C32 H18 S1 F3 Zn2 O8"
_cell_length_a       17.807436237873137
_cell_length_b       10.302215558581764
_cell_length_c       9.272721663655245
_cell_angle_alpha    85.88255001393937
_cell_angle_beta     89.9168972107098
_cell_angle_gamma    88.40943486361951

_space_group_name_H-M_alt    "P 1"
_space_group_IT_number       1

loop_
  _space_group_symop_operation_xyz
  'x, y, z'

loop_
  _atom_site_type_symbol
  _atom_site_label
  _atom_site_symmetry_multiplicity
  _atom_site_fract_x
  _atom_site_fract_y
  _atom_site_fract_z
  _atom_site_occupancy
  N   N1        1.0  0.7001627929981957  0.3797880091830357  0.39822858098410485  1.0000
  C   C1        1.0  0.6395109066961516  0.34454949539923674  0.38598522383569045  1.0000
  C   C2        1.0  0.5640666262674513  0.30071666483049286  0.3707558169190508  1.0000
  C   C3        1.0  0.545413920673827  0.22876729118771255  0.25416887253179166  1.0000
  C   C4        1.0  0.47216096587716017  0.18609708742234912  0.23929034939808821  1.0000
  C   C5        1.0  0.4165117550244246  0.2149986563256731  0.34096269701566095  1.0000
  C   C6        1.0  0.3386631977592975  0.1697665380325284  0.3252418159433943  1.0000
  C   C7        1.0  0.2766380691753587  0.25163777583836455  0.35404990613378384  1.0000
  C   C8        1.0  0.2032428410264461  0.2087646596413668  0.33918654843728663  1.0000
  C   C9        1.0  0.14017004700549582  0.2933284562339699  0.3683989757649069  1.0000
  N   N2        1.0  0.08947250397371967  0.3613119039926647  0.3918849600715564  1.0000
  C   C10       1.0  0.1912890139118324  0.08376226022724477  0.2954869258158743  1.0000
  C   C11       1.0  0.2524567262297331  0.0018771295829920192  0.2666695194016291  1.0000
  C   C12       1.0  0.3257313893831476  0.04435474188534672  0.28130796406874076  1.0000
  C   C13       1.0  0.4358571046669542  0.28744342078960483  0.45779309751319075  1.0000
  C   C14       1.0  0.509162082204286  0.3299224604340252  0.4724987882523053  1.0000
  H   H1        1.0  0.5874306557043663  0.20591021272141877  0.17454773050026562  1.0000
  H   H2        1.0  0.4588056966121161  0.131992152664812  0.1472222774749612  1.0000
  H   H3        1.0  0.2853051502922984  0.3492290471802988  0.3861218619014197  1.0000
  H   H4        1.0  0.1347620954078862  0.04967938590581577  0.2837200419719974  1.0000
  H   H5        1.0  0.24308520445711712  0.9050994171984403  0.23326491339292255  1.0000
  H   H6        1.0  0.3722600528907298  0.9785267246276715  0.2601519034028405  1.0000
  H   H7        1.0  0.3945638914326276  0.30976841190342186  0.5388513822686143  1.0000
  H   H8        1.0  0.5230405111262256  0.3852421710414895  0.5634105462303671  1.0000
  C   C15       1.0  0.8947464358703743  0.9892809411664552  0.3950182555382293  1.0000
  C   C16       1.0  0.9702459892394347  0.9818537927472804  0.4391609725874144  1.0000
  C   C17       1.0  0.007819953805926929  0.8611192012909793  0.4615842405892927  1.0000
  C   C18       1.0  0.9704418167569437  0.7466699027715419  0.43927987718976264  1.0000
  C   C19       1.0  0.8948960675508915  0.7518087029030932  0.39510764658070774  1.0000
  C   C20       1.0  0.8574550676758348  0.873614551808223  0.3732753697020319  1.0000
  S   S1        1.0  0.10427541119655671  0.8531506436516493  0.5173391165831212  1.0000
  C   C21       1.0  0.08035947053266111  0.8423795607078595  0.7025064460505555  1.0000
  N   N3        1.0  0.0646575943095451  0.8353196755965514  0.8238998429709639  1.0000
  H   H9        1.0  0.8660177124797088  0.3194467595339878  0.3781488093194953  1.0000
  H   H10       1.0  0.00015524065779293385  0.06949739481452631  0.4565660538043881  1.0000
  H   H11       1.0  0.0004853001069122806  0.6540258015792645  0.45676653533597134  1.0000
  H   H12       1.0  0.799226826757456  0.8784931043303638  0.33925096868053584  1.0000
  H   H13       1.0  0.7525239113170481  0.5542856592809978  0.3116993712301801  1.0000
  C   C22       1.0  0.8928332707519132  0.368533328635325  0.9716518839851185  1.0000
  C   C23       1.0  0.9247838961750052  0.2608187896211425  0.053840810961987215  1.0000
  C   C24       1.0  0.9633201450574006  0.16051461874443884  0.987296016232206  1.0000
  C   C25       1.0  0.9676038314900668  0.16629012322199044  0.8360771175657975  1.0000
  C   C26       1.0  0.9352074697709409  0.27132261223836496  0.7529268259511914  1.0000
  C   C27       1.0  0.8968092750232812  0.37255636263906783  0.8184740327712721  1.0000
  C   C28       1.0  0.9954468125671961  0.04420504436092876  0.07710605705337235  1.0000
  F   F1        1.0  0.02075254231315071  0.08073924944947386  0.2089312110818149  1.0000
  F   F2        1.0  0.05531597789159836  0.9876599795457381  0.007004138475579237  1.0000
  F   F3        1.0  0.9402776554817571  0.9533673159062733  0.10102945446513001  1.0000
  H   H14       1.0  0.8452767876177941  0.6799660432128238  0.048683429713344044  1.0000
  H   H15       1.0  0.9210320739312634  0.25638417312355566  0.1707470224849694  1.0000
  H   H16       1.0  0.995354486956378  0.08870306500862934  0.7817078881494886  1.0000
  H   H17       1.0  0.9384265481224564  0.2715850920123686  0.6362198055463413  1.0000
  H   H18       1.0  0.7620453394250813  0.5979402595403309  0.6994054666280367  1.0000
  Zn  Zn1       1.0  0.8125092033123713  0.3744527795689814  0.3964062873955134  1.0000
  Zn  Zn2       1.0  0.9771261290400836  0.3666366065224931  0.3937191060223213  1.0000
  C   C29       1.0  0.8960550187254723  0.3666236656455362  0.6584059526131328  1.0000
  C   C30       1.0  0.8935821122246651  0.37446727395567336  0.1317195531712625  1.0000
  C   C31       1.0  0.8948369604106521  0.607647634708502  0.38934515937334657  1.0000
  C   C32       1.0  0.8948001144220099  0.1334417480316905  0.40078042401656244  1.0000
  O   O1        1.0  0.9563046945573328  0.37348689902028553  0.1844199531952899  1.0000
  O   O2        1.0  0.9582728719027459  0.3616707646552151  0.6036656289302449  1.0000
  O   O3        1.0  0.9572884393057816  0.5563007149459325  0.3863971486448967  1.0000
  O   O4        1.0  0.9572890704759214  0.17885696017088692  0.40168832628941353  1.0000
  O   O5        1.0  0.8323462057008205  0.5622324285892412  0.38843706803784056  1.0000
  O   O6        1.0  0.8333306382395474  0.36760403782819484  0.6057054716270951  1.0000
  O   O7        1.0  0.8313624527959733  0.37942011871128334  0.18645806235626816  1.0000
  O   O8        1.0  0.8323468292172246  0.18479017108921947  0.40372654355103554  1.0000
