data_image0
_chemical_formula_structural       NC12NC2H8C12ClH9C12IH9Zn2C4O8
_chemical_formula_sum              "N2 C42 H26 Cl1 I1 Zn2 O8"
_cell_length_a       17.80743265337812
_cell_length_b       10.299768534541528
_cell_length_c       10.299773350644648
_cell_angle_alpha    85.54596918474078
_cell_angle_beta     91.54321816322954
_cell_angle_gamma    89.45366305101135

_space_group_name_H-M_alt    "P 1"
_space_group_IT_number       1

loop_
  _space_group_symop_operation_xyz
  'x, y, z'

loop_
  _atom_site_type_symbol
  _atom_site_label
  _atom_site_symmetry_multiplicity
  _atom_site_fract_x
  _atom_site_fract_y
  _atom_site_fract_z
  _atom_site_occupancy
  N   N1        1.0  0.7075417069780038  0.4070191093822048  0.6014202454429629  1.0000
  C   C1        1.0  0.6567204328546083  0.4365948761574718  0.5327237792219468  1.0000
  C   C2        1.0  0.5934937535374155  0.4733849822660931  0.44727402304117686  1.0000
  C   C3        1.0  0.6052176553288304  0.5274369439316151  0.32065843351748047  1.0000
  C   C4        1.0  0.5438982931858944  0.5627228741540063  0.23760455540717285  1.0000
  C   C5        1.0  0.4707007083371941  0.5442204704298665  0.28050638541754647  1.0000
  C   C6        1.0  0.4580000585688688  0.49004958919559816  0.40759010639065485  1.0000
  C   C7        1.0  0.5201767357393811  0.4547669169980664  0.4906274731533466  1.0000
  C   C8        1.0  0.38023434988625704  0.4704323508686116  0.45335214140209096  1.0000
  C   C9        1.0  0.36146657409243454  0.49758643902583727  0.5803967072143938  1.0000
  C   C10       1.0  0.2882390550890988  0.4791255979037436  0.623339101988823  1.0000
  C   C11       1.0  0.2328363828426542  0.4332561896091429  0.5400748772749171  1.0000
  C   C12       1.0  0.1574723029635903  0.4142421780559628  0.5844181555041279  1.0000
  N   N2        1.0  0.09688491971379  0.3989561915669612  0.6200671006775018  1.0000
  C   C13       1.0  0.2509126910887151  0.40593305480023295  0.41357326642759656  1.0000
  C   C14       1.0  0.324087331014119  0.42440874539282397  0.37037498797908674  1.0000
  H   H1        1.0  0.6616824449289384  0.5422691608479727  0.28622258412956114  1.0000
  H   H2        1.0  0.5530938529533268  0.6048439294291788  0.1398287392282469  1.0000
  H   H3        1.0  0.4240599244318064  0.5738720657265699  0.21491783838546796  1.0000
  H   H4        1.0  0.5116792965106577  0.4112606015134678  0.5882787706429042  1.0000
  H   H5        1.0  0.4031565382193192  0.5347488139304255  0.6459711619805644  1.0000
  H   H6        1.0  0.2748098743650517  0.5009463175854882  0.7213481891148892  1.0000
  H   H7        1.0  0.20850611939319144  0.37003784273474566  0.34841183006663523  1.0000
  H   H8        1.0  0.3369878725469486  0.4010524214646131  0.2726691509514403  1.0000
  C   C15       1.0  0.9021460527439314  0.021623661009563703  0.6107383100125634  1.0000
  C   C16       1.0  0.9070812587351595  0.03112631311605107  0.47450596740875706  1.0000
  C   C17       1.0  0.909654191454956  0.9188005174817303  0.4054868038576114  1.0000
  C   C18       1.0  0.9072247449336494  0.7958356197686461  0.4745283293221978  1.0000
  C   C19       1.0  0.9022877716016713  0.7843414752422432  0.6107605252331691  1.0000
  C   C20       1.0  0.8997766260898526  0.8977922453638711  0.6781026408660968  1.0000
  C   C21       1.0  0.9148762268633752  0.9299071783531861  0.26136439010568546  1.0000
  C   C22       1.0  0.8721298833600204  0.024353855276505687  0.18485345779930507  1.0000
  C   C23       1.0  0.8771119494607702  0.034610577597690595  0.04921253680618821  1.0000
  C   C24       1.0  0.9247676517566266  0.9509447489149289  0.988387210877116  1.0000
  C   C25       1.0  0.9675015426068423  0.8568110079162721  0.06338632872821592  1.0000
  C   C26       1.0  0.9626528908726693  0.8461592672785377  0.19904828257364748  1.0000
  Cl  Cl1       1.0  0.9309346859779917  0.9640611095882343  0.8181978481857319  1.0000
  H   H9        1.0  0.9002269489842981  0.345457232287139  0.6626444394966595  1.0000
  H   H10       1.0  0.9099727548158286  0.12609393220731002  0.4219119460104967  1.0000
  H   H11       1.0  0.9081556570432455  0.7089977463171098  0.42162685476567835  1.0000
  H   H12       1.0  0.8959685810031104  0.8896932137375392  0.7831995855861458  1.0000
  H   H13       1.0  0.9004364663790836  0.45250730139789813  0.6626777027610815  1.0000
  H   H14       1.0  0.8341494918071491  0.08910289816291249  0.229777853962875  1.0000
  H   H15       1.0  0.8437511105536667  0.10743146484316757  0.9915031184136245  1.0000
  H   H16       1.0  0.004643944668666805  0.7920331886010077  0.016732323522595353  1.0000
  H   H17       1.0  0.9969669055419611  0.7736123785689335  0.25530904867719695  1.0000
  C   C27       1.0  0.9021811117806432  0.403089407703572  0.22937853223217464  1.0000
  C   C28       1.0  0.9702952629597568  0.4706817174373059  0.22630490867374986  1.0000
  C   C29       1.0  0.004845339720135124  0.504822695666785  0.10761917029496937  1.0000
  C   C30       1.0  0.9703674881128049  0.47046606715722716  0.9910387500399684  1.0000
  C   C31       1.0  0.902252708137267  0.4028757753732797  0.9921203853222859  1.0000
  C   C32       1.0  0.8685412254034559  0.36956486040302505  0.11177674252110359  1.0000
  C   C33       1.0  0.07690413383104101  0.576327405695646  0.10542153661746556  1.0000
  C   C34       1.0  0.08874115500301395  0.6791004450387721  0.18580115866974545  1.0000
  C   C35       1.0  0.15660218869551024  0.7462867306999998  0.18353279181076254  1.0000
  C   C36       1.0  0.21338052795699158  0.7117516024852895  0.10126205148931809  1.0000
  C   C37       1.0  0.20226834964458032  0.6098497418461453  0.021059902907131004  1.0000
  C   C38       1.0  0.13448348657689824  0.5424359088938762  0.022925971576136735  1.0000
  I   I1        1.0  0.3156904967506382  0.8132707383965847  0.09814584275790383  1.0000
  H   H18       1.0  0.8762047036376781  0.3773991247403724  0.5579971675229973  1.0000
  H   H19       1.0  0.9971643333219137  0.4953720445602716  0.3165691278610454  1.0000
  H   H20       1.0  0.9962455074803  0.4981176164026768  0.899165896726354  1.0000
  H   H21       1.0  0.8159938372346219  0.31742161537326896  0.11337952355130887  1.0000
  H   H22       1.0  0.8763095528204023  0.37708481470761684  0.6650823430788027  1.0000
  H   H23       1.0  0.045183882478203374  0.7085801258644157  0.24910635045874074  1.0000
  H   H24       1.0  0.16493129188569622  0.8253904748547705  0.24551917080080599  1.0000
  H   H25       1.0  0.24619500518696147  0.5825986197159323  0.9574813066461968  1.0000
  H   H26       1.0  0.12745981780219684  0.46276424876776145  0.9611630127504683  1.0000
  Zn  Zn1       1.0  0.8198977512944803  0.4046888561376369  0.6068088119397281  1.0000
  Zn  Zn2       1.0  0.9845288719294786  0.4012758485240764  0.6146891269779693  1.0000
  C   C39       1.0  0.9022365338748655  0.39774257789594436  0.8479455811903859  1.0000
  C   C40       1.0  0.9021918874322234  0.4082237280582537  0.3735525712950476  1.0000
  C   C41       1.0  0.9022566247544018  0.6401731379669944  0.6055809788521991  1.0000
  C   C42       1.0  0.902171740092195  0.1657916088502862  0.6159172401376876  1.0000
  O   O1        1.0  0.9646721550853489  0.4086459686023547  0.4249292341737081  1.0000
  O   O2        1.0  0.9647074772617574  0.3947289639398104  0.8025495212110901  1.0000
  O   O3        1.0  0.9647228588126612  0.5904947242320089  0.6068383497781697  1.0000
  O   O4        1.0  0.9646567173495819  0.21288021879215835  0.6206403055427048  1.0000
  O   O5        1.0  0.8397698496938548  0.5930844870356626  0.6008576306789968  1.0000
  O   O6        1.0  0.8397544684229213  0.39732028704648953  0.7965687329114679  1.0000
  O   O7        1.0  0.8397191461415122  0.41123724688995783  0.4189468844663098  1.0000
  O   O8        1.0  0.8397037084100863  0.21547148776386704  0.6146580532032342  1.0000
