data_image0
_chemical_formula_structural       NC9NC5H8C6SCOC6H10C7OC3FC3H9Zn2C4O8
_chemical_formula_sum              "N2 C44 H27 S1 O10 F1 Zn2"
_cell_length_a       17.807436237873137
_cell_length_b       10.30203810924657
_cell_length_c       10.29938172300155
_cell_angle_alpha    85.58271297890445
_cell_angle_beta     89.37614531969923
_cell_angle_gamma    88.40854036149848

_space_group_name_H-M_alt    "P 1"
_space_group_IT_number       1

loop_
  _space_group_symop_operation_xyz
  'x, y, z'

loop_
  _atom_site_type_symbol
  _atom_site_label
  _atom_site_symmetry_multiplicity
  _atom_site_fract_x
  _atom_site_fract_y
  _atom_site_fract_z
  _atom_site_occupancy
  N   N1        1.0  0.7079099705283366  0.38702697500028393  0.5572922112026948  1.0000
  C   C1        1.0  0.6473177172324737  0.3518430258117522  0.5462641435156883  1.0000
  C   C2        1.0  0.571947613788054  0.3080780676758434  0.5325464247343136  1.0000
  C   C3        1.0  0.5538603639826343  0.2366527019403763  0.42753511227848295  1.0000
  C   C4        1.0  0.4806798757520859  0.19404880939466218  0.41413344994385165  1.0000
  C   C5        1.0  0.4245378538689314  0.2224928377897466  0.5057106039400059  1.0000
  C   C6        1.0  0.3467658672438241  0.17733078252305837  0.49155019546120254  1.0000
  C   C7        1.0  0.2846004342638024  0.2590736147047367  0.5174987498835618  1.0000
  C   C8        1.0  0.2112776010580071  0.21626673800734042  0.5041107447667645  1.0000
  C   C9        1.0  0.1480625193555475  0.3007003526037492  0.5304235192286728  1.0000
  N   N2        1.0  0.09725058099175998  0.3685791375761948  0.5515782627201584  1.0000
  C   C10       1.0  0.1995366121209788  0.09145910631646512  0.4647488050814466  1.0000
  C   C11       1.0  0.2608446740934394  0.009702423032271536  0.4387918593251097  1.0000
  C   C12       1.0  0.3340480354841482  0.052114802419147344  0.45197727947645766  1.0000
  C   C13       1.0  0.4433165638030838  0.29441250590154655  0.6109412043785384  1.0000
  C   C14       1.0  0.5165499137934543  0.33682600971680143  0.6241871934360093  1.0000
  H   H1        1.0  0.5962630287663  0.2141539265644316  0.3558196653361192  1.0000
  H   H2        1.0  0.4677711191534827  0.14035772628891618  0.3312066229067146  1.0000
  H   H3        1.0  0.2931112563309192  0.35652204048619374  0.5463872688157109  1.0000
  H   H4        1.0  0.14306700785449789  0.05742866949030699  0.4541499128997764  1.0000
  H   H5        1.0  0.2516358599496264  0.9130735733161118  0.40870302484332277  1.0000
  H   H6        1.0  0.3806797874860157  0.9863809879756821  0.4329211356028815  1.0000
  H   H7        1.0  0.4016304634665136  0.3163727108055567  0.6839510870862511  1.0000
  H   H8        1.0  0.5299874207238715  0.3917370981259145  0.7060725366373979  1.0000
  C   C15       1.0  0.9025127172717194  0.9965278237752317  0.5543960913732076  1.0000
  C   C16       1.0  0.8383025953881122  0.004319073097737148  0.4758194840998907  1.0000
  C   C17       1.0  0.8067077619075558  0.8912202910682234  0.4362339242252411  1.0000
  C   C18       1.0  0.8385442399630125  0.7691750110288303  0.4757619320314002  1.0000
  C   C19       1.0  0.9026550313454585  0.7590680020302359  0.5544855764568675  1.0000
  C   C20       1.0  0.9343473231638574  0.8734112899594229  0.5933088216174847  1.0000
  S   S1        1.0  0.7252045068876233  0.9025902838314964  0.3348217761584554  1.0000
  C   C21       1.0  0.7804610433878282  0.90842840606378  0.18759001668717157  1.0000
  O   O1        1.0  0.7985829704653022  0.8022899268404721  0.1409743793592464  1.0000
  C   C22       1.0  0.8052483103775135  0.03340302890049052  0.1217292031610091  1.0000
  C   C23       1.0  0.8583801646841155  0.03319831679631947  0.019443712328054863  1.0000
  C   C24       1.0  0.8825350237293175  0.1503738855941905  0.9573666090453523  1.0000
  C   C25       1.0  0.8539646351214638  0.2689745651354509  0.9962868698193916  1.0000
  C   C26       1.0  0.801058937239161  0.27064079179820455  0.09721600818177989  1.0000
  C   C27       1.0  0.7766536193855  0.15378081144963948  0.1596169572300714  1.0000
  H   H9        1.0  0.02345424325718248  0.18915042658230563  0.7026738234257779  1.0000
  H   H10       1.0  0.8127485758051723  0.09804379763570492  0.44491895847412466  1.0000
  H   H11       1.0  0.8132323274560753  0.6826146031619613  0.4443693260591022  1.0000
  H   H12       1.0  0.9838491274192126  0.8664844551566878  0.6538828189295817  1.0000
  H   H13       1.0  0.9271610097061639  0.42790450024133814  0.5840922728058342  1.0000
  H   H14       1.0  0.8816246640969055  0.9425243018351231  0.9878052500701299  1.0000
  H   H15       1.0  0.9235282621956413  0.1491648184497265  0.8790680050594031  1.0000
  H   H16       1.0  0.8727506311236588  0.35957643346873747  0.9481372585212072  1.0000
  H   H17       1.0  0.778799315084321  0.3626505714835827  0.12707937635243138  1.0000
  H   H18       1.0  0.7352204915014133  0.15839813582455894  0.2367896878917246  1.0000
  C   C28       1.0  0.9026470867230009  0.3776937961211678  0.17307221330711164  1.0000
  C   C29       1.0  0.9263968503054463  0.24614524009045713  0.18156924987397788  1.0000
  C   C30       1.0  0.9391918233638362  0.1802132325154071  0.0686342245016649  1.0000
  C   C31       1.0  0.9263250515731544  0.24644170601911616  0.9463042887462382  1.0000
  C   C32       1.0  0.9025206100045162  0.3779019861394927  0.9358094492929787  1.0000
  C   C33       1.0  0.8910087536973809  0.44286228364157443  0.049778223809807676  1.0000
  C   C34       1.0  0.9635094855814957  0.04092563512327695  0.07750605313485703  1.0000
  O   O2        1.0  0.9403570175442929  0.9687960766918469  0.9936557868152063  1.0000
  C   C35       1.0  0.014097591028083173  0.9834687368884746  0.18140223469538785  1.0000
  C   C36       1.0  0.008020975456044077  0.8518273963995292  0.2267487241610624  1.0000
  C   C37       1.0  0.05605018911571969  0.7963572743500877  0.32359393810984916  1.0000
  F   F1        1.0  0.04937388319208091  0.6696368516752658  0.36734546677561974  1.0000
  C   C38       1.0  0.11093274649746583  0.8713618210123626  0.3752657308897027  1.0000
  C   C39       1.0  0.1180910154524939  0.001746750975156308  0.32983816413730427  1.0000
  C   C40       1.0  0.07021085283100592  0.05762148243443921  0.23306178802142075  1.0000
  H   H19       1.0  0.8567246871224758  0.6253810992201332  0.3644210242936979  1.0000
  H   H20       1.0  0.9341704958834297  0.1943987384268937  0.2762545868604649  1.0000
  H   H21       1.0  0.9356271739203812  0.19546356667031858  0.8591358986608517  1.0000
  H   H22       1.0  0.8726991030618175  0.5442761334942798  0.04242359155451858  1.0000
  H   H23       1.0  0.8927704937242027  0.42809326717585944  0.6043563483464474  1.0000
  H   H24       1.0  0.9656883523255478  0.7923316675389452  0.18798966152871244  1.0000
  H   H25       1.0  0.14813677631397737  0.8284004481129589  0.4501314677784063  1.0000
  H   H26       1.0  0.16101280313503996  0.05946724470953257  0.36922729448805214  1.0000
  H   H27       1.0  0.07761589336525863  0.15820536092212456  0.19770450666785536  1.0000
  Zn  Zn1       1.0  0.8202652574034217  0.3816998652319061  0.5556507994785731  1.0000
  Zn  Zn2       1.0  0.9848952721745957  0.37389566669005403  0.5532303498059963  1.0000
  C   C41       1.0  0.9025418956867527  0.37269033474933033  0.7916351794259862  1.0000
  C   C42       1.0  0.9026204319304622  0.38290675020220255  0.3172460710858853  1.0000
  C   C43       1.0  0.9026251010459754  0.6149304387986491  0.5492935292300758  1.0000
  C   C44       1.0  0.9025371700919668  0.14066508891616514  0.5595877911632964  1.0000
  O   O3        1.0  0.9650877179107654  0.38168894819072  0.36471358609991533  1.0000
  O   O4        1.0  0.9650249815177396  0.3679839510609224  0.7423302251552211  1.0000
  O   O5        1.0  0.9650913284642146  0.5635959389181313  0.5466376405556677  1.0000
  O   O6        1.0  0.9650213148050945  0.1860769722579085  0.5604060741519045  1.0000
  O   O7        1.0  0.8401391585927801  0.5695185623286533  0.5484750759518144  1.0000
  O   O8        1.0  0.8400728119454354  0.37390813437276366  0.7441675914890169  1.0000
  O   O9        1.0  0.8401355486388412  0.38761308582910936  0.36654939102824186  1.0000
  O   O10       1.0  0.8400691455122232  0.1920011006365021  0.5622419764469455  1.0000
