data_image0
_chemical_formula_structural       NC5NC4H6C6NCH9C7F3H5Zn2C4O8
_chemical_formula_sum              "N3 C27 H20 F3 Zn2 O8"
_cell_length_a       13.854160002989762
_cell_length_b       9.273386996610926
_cell_length_c       10.299327507215198
_cell_angle_alpha    85.45811780594276
_cell_angle_beta     89.98119510094074
_cell_angle_gamma    89.39858485477477

_space_group_name_H-M_alt    "P 1"
_space_group_IT_number       1

loop_
  _space_group_symop_operation_xyz
  'x, y, z'

loop_
  _atom_site_type_symbol
  _atom_site_label
  _atom_site_symmetry_multiplicity
  _atom_site_fract_x
  _atom_site_fract_y
  _atom_site_fract_z
  _atom_site_occupancy
  N   N1        1.0  0.8981643517954134  0.5790946550084319  0.565100808690554  1.0000
  C   C1        1.0  0.8256674054255431  0.604323126181906  0.5118674349409191  1.0000
  C   C2        1.0  0.7354801815988765  0.6357080286889636  0.44564308012451814  1.0000
  C   C3        1.0  0.6481004766822727  0.6062050384451486  0.51030358501998  1.0000
  C   C4        1.0  0.5603377691319915  0.6357080430263516  0.4456430592266693  1.0000
  C   C5        1.0  0.47055926507644735  0.6043229788014044  0.5118675177028913  1.0000
  N   N2        1.0  0.3983907816438531  0.579094591490716  0.5651008087064242  1.0000
  C   C6        1.0  0.5599831350953292  0.6953206234199086  0.3163382441537683  1.0000
  C   C7        1.0  0.6473150191749231  0.7269744568813097  0.2515813675365943  1.0000
  C   C8        1.0  0.646928556986908  0.7868298732503405  0.11192552715416304  1.0000
  C   C9        1.0  0.7350602241600674  0.6953206221068781  0.3163381628222688  1.0000
  H   H1        1.0  0.648401043313424  0.5599547288015374  0.610383302173306  1.0000
  H   H2        1.0  0.49196923274625254  0.7171220722026859  0.26617019295981925  1.0000
  H   H3        1.0  0.7113090085996717  0.855016175741893  0.09039482797922926  1.0000
  H   H4        1.0  0.5816005309135649  0.8550161776101871  0.09039488661268158  1.0000
  H   H5        1.0  0.6475804480304538  0.6962859575183044  0.04759487811055041  1.0000
  H   H6        1.0  0.8027921910564272  0.7171221847351417  0.2661701158310963  1.0000
  C   C10       1.0  0.15125020889798074  0.15544053176427372  0.5657390219509977  1.0000
  C   C11       1.0  0.16822661369075442  0.2389341761913819  0.44831065859366204  1.0000
  C   C12       1.0  0.17611485343644598  0.17444933448559863  0.3308750357163377  1.0000
  C   C13       1.0  0.16714631150319872  0.024149133820335233  0.32786522012094244  1.0000
  C   C14       1.0  0.1518709926044819  0.9396926374531086  0.44488566376321126  1.0000
  C   C15       1.0  0.1453142227313129  0.0027375835573659763  0.5644739010475563  1.0000
  N   N3        1.0  0.17421917397806652  0.9546282402123554  0.20800502258407128  1.0000
  C   C16       1.0  0.19032928721695663  0.032544212972434025  0.08126837454361269  1.0000
  H   H7        1.0  0.1709185951206743  0.41755247857717426  0.7789608283247151  1.0000
  H   H8        1.0  0.17315013557445152  0.35558031369898435  0.44671729851145975  1.0000
  H   H9        1.0  0.18830860270222627  0.2430650093962734  0.24265702700623645  1.0000
  H   H10       1.0  0.1473155525761285  0.8232918834358199  0.44283684979995525  1.0000
  H   H11       1.0  0.18077694613498682  0.8713270118411733  0.8807966251049253  1.0000
  H   H12       1.0  0.16739449989358568  0.842260704724794  0.21069814877449922  1.0000
  H   H13       1.0  0.13049758024563785  0.11112125153213714  0.05870322806814277  1.0000
  H   H14       1.0  0.260192533945675  0.09009591880807741  0.08147795103648181  1.0000
  H   H15       1.0  0.1927810795002871  0.9551194352570553  0.00438211668672617  1.0000
  C   C17       1.0  0.1483742480029828  0.5791476649316776  0.1837247796320831  1.0000
  C   C18       1.0  0.2417677010300281  0.6369939299117386  0.1783679400903042  1.0000
  C   C19       1.0  0.2881590438548052  0.6686237923312766  0.05836572115232918  1.0000
  C   C20       1.0  0.24152606054804154  0.6368409449431505  0.9431307108476985  1.0000
  C   C21       1.0  0.14819023428972544  0.5790304921726278  0.9464881308744428  1.0000
  C   C22       1.0  0.10200851573566094  0.5510539500059362  0.06725746154920276  1.0000
  C   C23       1.0  0.38977623112303506  0.7258328128348019  0.054017970861160114  1.0000
  F   F1        1.0  0.4060462371817277  0.8100801222377684  0.1567833405640655  1.0000
  F   F2        1.0  0.45433893094684796  0.6108079154097301  0.06205868270916759  1.0000
  F   F3        1.0  0.40578120868148826  0.8100605484781966  0.9391399661071453  1.0000
  H   H16       1.0  0.9728015374600224  0.46757296819898486  0.4012434591883969  1.0000
  H   H17       1.0  0.27864142457369  0.6572850634480718  0.2677341750005695  1.0000
  H   H18       1.0  0.2782340667737693  0.6570232609626482  0.8507205453184586  1.0000
  H   H19       1.0  0.030024927825102344  0.5064721769465748  0.07058129225594967  1.0000
  H   H20       1.0  0.11295368806625622  0.5544371843319178  0.6204933210209136  1.0000
  Zn  Zn1       1.0  0.04251892476541852  0.5790907730362014  0.565108322435935  1.0000
  Zn  Zn2       1.0  0.25403628998290784  0.5790866661602794  0.5651039787129635  1.0000
  C   C24       1.0  0.14826310157683958  0.5733052984548084  0.8023180953474133  1.0000
  C   C25       1.0  0.14829441015114475  0.5848739609825766  0.32789433050676586  1.0000
  C   C26       1.0  0.14643254715040022  0.8425812143019883  0.5595376701391257  1.0000
  C   C27       1.0  0.1501249045279145  0.3155963118214051  0.5706748275455755  1.0000
  O   O1        1.0  0.2285373977006695  0.5867879057659459  0.37627730976303053  1.0000
  O   O2        1.0  0.22855690776365445  0.5713871483535726  0.7539314470724614  1.0000
  O   O3        1.0  0.2270776295134849  0.7888308556724388  0.557884533787351  1.0000
  O   O4        1.0  0.2300166037254845  0.36934420878373975  0.5723241256562892  1.0000
  O   O5        1.0  0.06653853884233668  0.788833230415714  0.5578881754872584  1.0000
  O   O6        1.0  0.0680178049616706  0.5713912564138114  0.7539350169364949  1.0000
  O   O7        1.0  0.06799829569184523  0.5867919637922716  0.376279318249225  1.0000
  O   O8        1.0  0.06947750176150969  0.36934825647637837  0.5723262315289848  1.0000
