data_image0
_chemical_formula_structural       NC5N2C2NH4C10H6C6ClH4Zn2C4O8
_chemical_formula_sum              "N4 C27 H14 Cl1 Zn2 O8"
_cell_length_a       13.87973921873968
_cell_length_b       9.275150299802176
_cell_length_c       9.276548810779733
_cell_angle_alpha    85.75527424230437
_cell_angle_beta     89.72476731639557
_cell_angle_gamma    89.48389152441209

_space_group_name_H-M_alt    "P 1"
_space_group_IT_number       1

loop_
  _space_group_symop_operation_xyz
  'x, y, z'

loop_
  _atom_site_type_symbol
  _atom_site_label
  _atom_site_symmetry_multiplicity
  _atom_site_fract_x
  _atom_site_fract_y
  _atom_site_fract_z
  _atom_site_occupancy
  N   N1        1.0  0.9029480456983638  0.5644656050710615  0.4016866238212614  1.0000
  C   C1        1.0  0.8298764648499856  0.5884953028323402  0.3449329192748769  1.0000
  C   C2        1.0  0.7391242400827293  0.6183425315159401  0.2744386866697842  1.0000
  C   C3        1.0  0.6526299016622136  0.5883007671517104  0.3477801617747318  1.0000
  C   C4        1.0  0.5662448391876481  0.6183424672229378  0.27443872692242344  1.0000
  C   C5        1.0  0.47539934431896813  0.5884951571244519  0.34493281691218214  1.0000
  N   N2        1.0  0.40225261473487967  0.564465580336454  0.40168661297213815  1.0000
  N   N3        1.0  0.5679839591110167  0.6757428233833014  0.1354084366644994  1.0000
  C   C6        1.0  0.6528272577795642  0.705747267107691  0.06610896521034813  1.0000
  C   C7        1.0  0.6529658972938668  0.7648870599344186  0.9120812463354748  1.0000
  N   N4        1.0  0.7375868580175795  0.6757427767969452  0.1354084476755235  1.0000
  H   H1        1.0  0.6525502040612897  0.5423701597270061  0.4587295584005268  1.0000
  H   H2        1.0  0.7176334232244823  0.8325847932977315  0.8893098327959271  1.0000
  H   H3        1.0  0.6537425097960521  0.6742446567184732  0.8404010718168557  1.0000
  H   H4        1.0  0.5876286177914779  0.8325827216552536  0.8893090788051192  1.0000
  C   C8        1.0  0.15513915495232974  0.14078206925984163  0.40409887553213275  1.0000
  C   C9        1.0  0.20616155922061274  0.22183903452846335  0.29508658884235484  1.0000
  C   C10       1.0  0.2489394380355392  0.15464380897107177  0.180534439924473  1.0000
  C   C11       1.0  0.2411300138443504  0.005412258532931926  0.17351909386190553  1.0000
  C   C12       1.0  0.19221312402724489  0.9229055410430419  0.28188379215779125  1.0000
  C   C13       1.0  0.15007071180751663  0.9881380783685242  0.39928690389429233  1.0000
  C   C14       1.0  0.29998168008568915  0.23942015962557586  0.06902969824728399  1.0000
  C   C15       1.0  0.34271692006058285  0.31042297839023125  0.9756769887610991  1.0000
  C   C16       1.0  0.3927579038044404  0.3935722580505132  0.8663650372652961  1.0000
  C   C17       1.0  0.43548490421410513  0.46456975801724015  0.7730302228373458  1.0000
  H   H5        1.0  0.10870681311211006  0.4051945229335581  0.6329114874883806  1.0000
  H   H6        1.0  0.21078339210638952  0.3383077179343146  0.2973125804455259  1.0000
  H   H7        1.0  0.2737157515782289  0.9524579834541509  0.08487979871873841  1.0000
  H   H8        1.0  0.18928697646537707  0.8068486949510291  0.27566287080141727  1.0000
  H   H9        1.0  0.0863490314676374  0.8607923377093759  0.7416399432359102  1.0000
  H   H10       1.0  0.4730027745381774  0.5269115920415003  0.6910745468051953  1.0000
  C   C18       1.0  0.15398606029020412  0.5605947678240264  0.9785654840772073  1.0000
  C   C19       1.0  0.23447618844358709  0.6154396167275007  0.04736050248649024  1.0000
  C   C20       1.0  0.309498349670837  0.6810378276948665  0.966755510577769  1.0000
  C   C21       1.0  0.3051548891011129  0.6928953400860542  0.816248647944626  1.0000
  C   C22       1.0  0.22677008718664937  0.6370384500502362  0.745810270410184  1.0000
  C   C23       1.0  0.15122381220601966  0.5683253489828997  0.8248203208056641  1.0000
  Cl  Cl1       1.0  0.4085474666452242  0.7505086124382705  0.05486546529825587  1.0000
  H   H11       1.0  0.038055509492050714  0.39910568227055193  0.2724846914158953  1.0000
  H   H12       1.0  0.36301774716800717  0.7442207981326541  0.75346792494779  1.0000
  H   H13       1.0  0.2263718187356294  0.6445667006751519  0.6287192277314795  1.0000
  H   H14       1.0  0.9967769960463497  0.5154295401588991  0.5485246079039312  1.0000
  Zn  Zn1       1.0  0.047036555764984334  0.5644618077094591  0.40169496614199485  1.0000
  Zn  Zn2       1.0  0.25816412243574133  0.5644576669787715  0.40169014958467636  1.0000
  C   C24       1.0  0.15177818477714622  0.5611164282375445  0.6648926512500253  1.0000
  C   C25       1.0  0.15342478757961395  0.5678048681294101  0.1384925955097127  1.0000
  C   C26       1.0  0.1510425623124407  0.8279173250093568  0.39445463086136484  1.0000
  C   C27       1.0  0.1541603481188816  0.30100223863538944  0.4089307025638199  1.0000
  O   O1        1.0  0.23335826823113726  0.5702167778895759  0.1921638029448842  1.0000
  O   O2        1.0  0.23208564993360847  0.5587002835422704  0.6112173795594754  1.0000
  O   O3        1.0  0.23149054051945472  0.7741453955511761  0.3928367562071471  1.0000
  O   O4        1.0  0.23395330589265795  0.3547716752161689  0.410544318203411  1.0000
  O   O5        1.0  0.07124730026060622  0.7741477994749757  0.39284079751731626  1.0000
  O   O6        1.0  0.07184239955273748  0.5587044201911928  0.6112213341982531  1.0000
  O   O7        1.0  0.07311502386962342  0.5702208484357811  0.19216602550087858  1.0000
  O   O8        1.0  0.07371006123631596  0.3547757364297899  0.4105466488472638  1.0000
