data_image0
_chemical_formula_structural       NC10NC3NH7C13OH12C11NCOCH11Zn2C4O8
_chemical_formula_sum              "N4 C43 H30 O10 Zn2"
_cell_length_a       19.210446455230148
_cell_length_b       10.299150109392551
_cell_length_c       10.299158637457994
_cell_angle_alpha    85.56061603079257
_cell_angle_beta     89.9723271520695
_cell_angle_gamma    89.9285097185194

_space_group_name_H-M_alt    "P 1"
_space_group_IT_number       1

loop_
  _space_group_symop_operation_xyz
  'x, y, z'

loop_
  _atom_site_type_symbol
  _atom_site_label
  _atom_site_symmetry_multiplicity
  _atom_site_fract_x
  _atom_site_fract_y
  _atom_site_fract_z
  _atom_site_occupancy
  N   N1        1.0  0.6554659131711098  0.4197938698179906  0.5668611574658409  1.0000
  C   C1        1.0  0.5952367654408527  0.42200160576252377  0.5670916102312056  1.0000
  C   C2        1.0  0.5204315840156277  0.4247387939809388  0.5673771117958142  1.0000
  C   C3        1.0  0.48478868331574165  0.5409818992638995  0.5824522970830819  1.0000
  C   C4        1.0  0.4121231727377946  0.5411334285029468  0.5823996515495029  1.0000
  C   C5        1.0  0.3752646347945394  0.4254478357478251  0.5674633716721076  1.0000
  C   C6        1.0  0.2979428773551499  0.42409122159959906  0.5673132069746747  1.0000
  C   C7        1.0  0.2601715635207625  0.5276471337413593  0.5039183510403069  1.0000
  C   C8        1.0  0.187393585491141  0.5262447754789179  0.5038097187859548  1.0000
  C   C9        1.0  0.1513854516599764  0.42154401430535904  0.5670448640524006  1.0000
  C   C10       1.0  0.0764562874037283  0.42024180234148156  0.5669084455545068  1.0000
  N   N2        1.0  0.016218721153871702  0.41919477972264446  0.5667987999722568  1.0000
  C   C11       1.0  0.1884330794085494  0.31811379437627574  0.6304146716939503  1.0000
  C   C12       1.0  0.2612129694190007  0.31924188381897584  0.63057363668596  1.0000
  C   C13       1.0  0.4135168855401162  0.3110252008980865  0.5526757780152292  1.0000
  N   N3        1.0  0.4842861780185793  0.31347038916724723  0.5528405698562506  1.0000
  H   H1        1.0  0.5128647903368013  0.6304253250615612  0.5944725585529642  1.0000
  H   H2        1.0  0.3848291043652862  0.6311592246629001  0.5958144607612652  1.0000
  H   H3        1.0  0.286885319727414  0.608888632042667  0.45290177354220296  1.0000
  H   H4        1.0  0.1592336669787844  0.6066589614125457  0.4541238037456403  1.0000
  H   H5        1.0  0.16107992971838614  0.23673611607852707  0.6800014056822627  1.0000
  H   H6        1.0  0.2887277727386792  0.23894737335821545  0.6816972486597945  1.0000
  H   H7        1.0  0.3872769897628242  0.22013641275676774  0.5392149939636139  1.0000
  C   C14       1.0  0.8359112249625344  0.03809463291886007  0.566974095380208  1.0000
  C   C15       1.0  0.8346055900790218  0.02634049219832191  0.7037860210758249  1.0000
  C   C16       1.0  0.8338830826014526  0.9032463016128754  0.7728888855337774  1.0000
  C   C17       1.0  0.8344714436231033  0.7910852430496934  0.7034226466979462  1.0000
  C   C18       1.0  0.8357800589021367  0.800884002866102  0.5666971200714677  1.0000
  C   C19       1.0  0.8364942166270665  0.9248494019860931  0.49927185747149117  1.0000
  C   C20       1.0  0.8324958151076354  0.8917934823819825  0.9175302686105388  1.0000
  C   C21       1.0  0.7896810367139729  0.7990081399721057  0.9855595628418382  1.0000
  C   C22       1.0  0.7883525574718211  0.7883124961194169  0.12166696374772679  1.0000
  C   C23       1.0  0.8302714036451957  0.8692436992731916  0.1922055108897871  1.0000
  C   C24       1.0  0.8724201017161188  0.9629840071897443  0.1248189079545895  1.0000
  C   C25       1.0  0.873764739306169  0.9738554211408634  0.9887112155403355  1.0000
  C   C26       1.0  0.8273802464804071  0.8601071634566726  0.3382933184395801  1.0000
  O   O1        1.0  0.7753459976434167  0.9433830597420795  0.37854325501839425  1.0000
  H   H8        1.0  0.8379234329323365  0.2675747112797444  0.3087352526282987  1.0000
  H   H9        1.0  0.8331825739392718  0.11313345268113649  0.7567952206945976  1.0000
  H   H10       1.0  0.8348595523892341  0.6959791602816848  0.756256469358205  1.0000
  H   H11       1.0  0.8375016210438619  0.9331236904733519  0.3938113679730679  1.0000
  H   H12       1.0  0.8362365460986265  0.4771775593562849  0.5141076954008597  1.0000
  H   H13       1.0  0.7564002765966048  0.7360380105963762  0.9334562520245591  1.0000
  H   H14       1.0  0.7544823174661454  0.7170553169271675  0.17204873746009708  1.0000
  H   H15       1.0  0.9044185320303822  0.027509476097517412  0.17766865147587  1.0000
  H   H16       1.0  0.9076581640458206  0.04555825422642035  0.9391360868083585  1.0000
  H   H17       1.0  0.8785760934803292  0.8878642481466805  0.3784547600668665  1.0000
  H   H18       1.0  0.8160614954764901  0.7581168189313787  0.3761081252681635  1.0000
  H   H19       1.0  0.7755872724785157  0.9337364814073247  0.47517057986067157  1.0000
  C   C27       1.0  0.8359109271171467  0.41935125420302755  0.18546254301370513  1.0000
  C   C28       1.0  0.8375047594923494  0.5560628625697126  0.174099073098037  1.0000
  C   C29       1.0  0.8382581970007255  0.6255174988160475  0.05117996297571881  1.0000
  C   C30       1.0  0.8373714427978639  0.5564229826511511  0.938787486853796  1.0000
  C   C31       1.0  0.8357803573839061  0.41962745408551416  0.9482086806185439  1.0000
  C   C32       1.0  0.8350629400664399  0.3519327084771499  0.07193379131456124  1.0000
  C   C33       1.0  0.8399451102697917  0.7701416032824129  0.04013234461614701  1.0000
  C   C34       1.0  0.8826579569406438  0.8379100339644675  0.12266770691013384  1.0000
  C   C35       1.0  0.843604432793117  0.04506750858037778  0.017972145024593322  1.0000
  C   C36       1.0  0.8000625528339964  0.9776608715875326  0.9372198745123491  1.0000
  C   C37       1.0  0.7984979791217898  0.8415898354645939  0.9474861223518025  1.0000
  N   N4        1.0  0.8433145199585713  0.1851252276357367  0.006685952313159269  1.0000
  C   C38       1.0  0.9029403218880458  0.2640204565385207  0.029878523731019072  1.0000
  O   O2        1.0  0.962965342948178  0.2145041379809922  0.03840222847389163  1.0000
  C   C39       1.0  0.8947502873783881  0.407860773041854  0.03443026558882801  1.0000
  H   H20       1.0  0.8353196797256952  0.3667642236800064  0.5173091898622575  1.0000
  H   H21       1.0  0.8371913836439081  0.6088848782461896  0.26103079908195315  1.0000
  H   H22       1.0  0.838871439042474  0.609438358074792  0.8437963645949128  1.0000
  H   H23       1.0  0.8338359628190685  0.24648384693591274  0.07998380359837398  1.0000
  H   H24       1.0  0.9152463229111233  0.7856246751362171  0.19487358287895296  1.0000
  H   H25       1.0  0.7674938563010151  0.030821275450639615  0.8655829679127005  1.0000
  H   H26       1.0  0.764104871176404  0.7922566167177272  0.8841627295888399  1.0000
  H   H27       1.0  0.7981833068216974  0.232658985981363  0.9717297840180898  1.0000
  H   H28       1.0  0.8457999904620245  0.429658486258273  0.08584864199857957  1.0000
  H   H29       1.0  0.8928707411753473  0.4545349886680827  0.9336948456289474  1.0000
  H   H30       1.0  0.9391528655477333  0.4485579583883687  0.08706254447561368  1.0000
  Zn  Zn1       1.0  0.7595713793377631  0.4196175237397135  0.5668506628468155  1.0000
  Zn  Zn2       1.0  0.9121132390464026  0.4193605462501675  0.5668199343271638  1.0000
  C   C40       1.0  0.8358043725650411  0.4144011328087088  0.8040351822113104  1.0000
  C   C41       1.0  0.8358819112678745  0.4245785731730001  0.3296355414998555  1.0000
  C   C42       1.0  0.8358021544665838  0.6566987458967566  0.5615742287513628  1.0000
  C   C43       1.0  0.8358840775709304  0.18227939976917673  0.572096564776321  1.0000
  O   O3        1.0  0.8937610150389818  0.42622972135465487  0.3780096575729608  1.0000
  O   O4        1.0  0.8937010109669007  0.4125539647215899  0.7556373704085104  1.0000
  O   O5        1.0  0.8936984392239136  0.6082123533653212  0.559848434704928  1.0000
  O   O6        1.0  0.893763534744837  0.23057134205432628  0.5737984959079303  1.0000
  O   O7        1.0  0.7779210315842795  0.6084067280246601  0.5598721012697034  1.0000
  O   O8        1.0  0.7779236030676188  0.41274989978580995  0.7556609671604227  1.0000
  O   O9        1.0  0.7779836074610715  0.42642561059381956  0.37803169292366867  1.0000
  O   O10       1.0  0.7779861271490093  0.23076722203919317  0.5738206286309058  1.0000
