data_image0
_chemical_formula_structural       NC9NC5H8C6NCOC6H11C7OC6OH12Zn2C4O8
_chemical_formula_sum              "N3 C44 H31 O11 Zn2"
_cell_length_a       17.807436237873137
_cell_length_b       10.29965916528486
_cell_length_c       10.299362532796529
_cell_angle_alpha    85.59689086151258
_cell_angle_beta     89.40785739381337
_cell_angle_gamma    88.40731929758992

_space_group_name_H-M_alt    "P 1"
_space_group_IT_number       1

loop_
  _space_group_symop_operation_xyz
  'x, y, z'

loop_
  _atom_site_type_symbol
  _atom_site_label
  _atom_site_symmetry_multiplicity
  _atom_site_fract_x
  _atom_site_fract_y
  _atom_site_fract_z
  _atom_site_occupancy
  N   N1        1.0  0.7074305028417885  0.3872756296475612  0.5575762007814158  1.0000
  C   C1        1.0  0.6468351921840866  0.3520836724985008  0.5465412503842186  1.0000
  C   C2        1.0  0.5714612857127841  0.3083087533409665  0.5328149702694449  1.0000
  C   C3        1.0  0.5533414245155523  0.2368641808449696  0.4277902426024321  1.0000
  C   C4        1.0  0.48015721885296264  0.19425058983006838  0.41438024638565296  1.0000
  C   C5        1.0  0.4240440855540844  0.22270404367299057  0.5059624072962565  1.0000
  C   C6        1.0  0.3462681729706589  0.1775317092308628  0.4917931642151281  1.0000
  C   C7        1.0  0.2841099476764113  0.2592931579766766  0.5177577070257371  1.0000
  C   C8        1.0  0.2107834040972033  0.21647653936973588  0.5043613277978356  1.0000
  C   C9        1.0  0.147575610764504  0.3009293658499683  0.5306906202516022  1.0000
  N   N2        1.0  0.0967695320951398  0.3688235958869515  0.5518586430584473  1.0000
  C   C10       1.0  0.1990314924132727  0.09164049248163028  0.46497497478416294  1.0000
  C   C11       1.0  0.2603323442021041  0.009865189336150552  0.4390020379573185  1.0000
  C   C12       1.0  0.3335393564602965  0.05228721802553338  0.4521957555801073  1.0000
  C   C13       1.0  0.44285547039925965  0.2946430333476664  0.6112065192078784  1.0000
  C   C14       1.0  0.5160924905987192  0.3370661888714366  0.624460805550755  1.0000
  H   H1        1.0  0.5957214691850145  0.2143579758200107  0.35607083041146037  1.0000
  H   H2        1.0  0.4672226732171898  0.14054492640449712  0.33144336190905466  1.0000
  H   H3        1.0  0.2926287085293064  0.3567637041594193  0.5466653000545747  1.0000
  H   H4        1.0  0.1425589526304792  0.05760231265180103  0.45436942508734446  1.0000
  H   H5        1.0  0.25111519679960764  0.9132143537255827  0.4088942995297864  1.0000
  H   H6        1.0  0.3801658909666018  0.986538497645171  0.43312674237552834  1.0000
  H   H7        1.0  0.4011924109990094  0.31661059756716026  0.6842202519430429  1.0000
  H   H8        1.0  0.5295554375379941  0.39199208443577294  0.7063564544501522  1.0000
  C   C15       1.0  0.9020375068820395  0.9966918667079699  0.5546028855033225  1.0000
  C   C16       1.0  0.9025271815287358  0.005907273189454271  0.4177824201454461  1.0000
  C   C17       1.0  0.9038816740387703  0.8936612204438856  0.34892830165681277  1.0000
  C   C18       1.0  0.9026687733035945  0.770710361607078  0.41807671925689066  1.0000
  C   C19       1.0  0.902169691045888  0.759397025808376  0.5548431002413523  1.0000
  C   C20       1.0  0.9021212304726623  0.8729827378026478  0.6223303370011132  1.0000
  N   N3        1.0  0.9032281660609763  0.9067216517162073  0.20887455051049297  1.0000
  C   C21       1.0  0.9384309958572364  0.8138997496741593  0.1286330645425231  1.0000
  O   O1        1.0  0.9902634856183921  0.7386391219941033  0.1748490017186093  1.0000
  C   C22       1.0  0.9165734734736304  0.8086962577222301  0.9905905742650827  1.0000
  C   C23       1.0  0.8470991992184724  0.8618318352647366  0.9452659743003462  1.0000
  C   C24       1.0  0.8269483413003388  0.8557331431166078  0.8150418732276115  1.0000
  C   C25       1.0  0.8755717879064697  0.7963153384431828  0.7288729234395097  1.0000
  C   C26       1.0  0.9443845231764271  0.7424231669082247  0.7728310466291828  1.0000
  C   C27       1.0  0.9648221625528983  0.7481519027743105  0.902946463784065  1.0000
  H   H9        1.0  0.9003967747209902  0.18660648940816782  0.8127006717626096  1.0000
  H   H10       1.0  0.9024325160956166  0.10050443220254544  0.3639619104160825  1.0000
  H   H11       1.0  0.9007950218615327  0.6839922492515498  0.3652999757123321  1.0000
  H   H12       1.0  0.9017537919657832  0.8650128352591474  0.7278033285676138  1.0000
  H   H13       1.0  0.9009787715583353  0.4276555165846369  0.6073210067943312  1.0000
  H   H14       1.0  0.8817857786146345  0.9938566230378807  0.16324994989968156  1.0000
  H   H15       1.0  0.8077416765676433  0.9064138428371821  0.01032497677360844  1.0000
  H   H16       1.0  0.773403240690288  0.8966933910361158  0.7810431652033352  1.0000
  H   H17       1.0  0.8598237583403175  0.7916732147989805  0.6281487673867492  1.0000
  H   H18       1.0  0.9819642744977138  0.6961290948869557  0.7060344681037157  1.0000
  H   H19       1.0  0.018555050369992502  0.7059959502816834  0.9347237516373639  1.0000
  C   C28       1.0  0.9020449544027144  0.3779267120328609  0.17335694791496659  1.0000
  C   C29       1.0  0.8307220712779418  0.3226277338329151  0.17767336187545557  1.0000
  C   C30       1.0  0.7944251863560167  0.29607511918109  0.0626840994393827  1.0000
  C   C31       1.0  0.8309336607718404  0.32278125979750416  0.9424160067181339  1.0000
  C   C32       1.0  0.9021622667337229  0.3781622007212669  0.9360890767835328  1.0000
  C   C33       1.0  0.9372452672303535  0.4056739218256298  0.05210529781333273  1.0000
  C   C34       1.0  0.7194918170651118  0.23633031131380244  0.06956722327743625  1.0000
  O   O2        1.0  0.7041293464832785  0.15785371367512077  0.1656642372432262  1.0000
  C   C35       1.0  0.6619893697482075  0.26560611067171613  0.9675052778711184  1.0000
  C   C36       1.0  0.6562335982573443  0.38924845453400553  0.8997755771970667  1.0000
  C   C37       1.0  0.6012495557262546  0.41603334078779075  0.8048951182429827  1.0000
  C   C38       1.0  0.5506976297250481  0.32076722836832117  0.7765576627705344  1.0000
  C   C39       1.0  0.5556633754163286  0.19735587612660452  0.8452172426012015  1.0000
  C   C40       1.0  0.6106406635926709  0.17044411395452097  0.9401701653655747  1.0000
  O   O3        1.0  0.4966219741955447  0.352488923265164  0.6803764835437014  1.0000
  H   H20       1.0  0.036759346381213254  0.4817783764626639  0.3725179547840449  1.0000
  H   H21       1.0  0.8029026187684095  0.30120580011796516  0.27060875565019926  1.0000
  H   H22       1.0  0.8040737113748002  0.29897477487942564  0.8537484137181806  1.0000
  H   H23       1.0  0.9921931375327924  0.44839209493039295  0.04795731152824679  1.0000
  H   H24       1.0  0.9296130150155344  0.3989187100759328  0.6062237643015642  1.0000
  H   H25       1.0  0.693692608640194  0.46572197391007614  0.9210745370561454  1.0000
  H   H26       1.0  0.5976866554040238  0.5116592645153502  0.7534141146404165  1.0000
  H   H27       1.0  0.5173415324752637  0.12160902087450418  0.8260279470835079  1.0000
  H   H28       1.0  0.6134736297857503  0.07467092018888778  0.9915486382807739  1.0000
  H   H29       1.0  0.4065523780000785  0.3156924257054785  0.5642301166995698  1.0000
  H   H30       1.0  0.4051413147547175  0.23485318393474988  0.7258582191155547  1.0000
  H   H31       1.0  0.4698213389945145  0.17868213988280113  0.6026860181044187  1.0000
  Zn  Zn1       1.0  0.8197853358599138  0.3819473084259773  0.5559337467732008  1.0000
  Zn  Zn2       1.0  0.984414680686983  0.37414133454542164  0.5535117702642463  1.0000
  C   C41       1.0  0.9021375092894232  0.37294425422428173  0.7919147541585185  1.0000
  C   C42       1.0  0.9020643053084089  0.38314594211639674  0.3175308644126351  1.0000
  C   C43       1.0  0.9021400523407187  0.6152281286585728  0.5496226370108703  1.0000
  C   C44       1.0  0.902061705820841  0.14086051011087952  0.5598230511333946  1.0000
  O   O4        1.0  0.9645467770559765  0.38192957143104883  0.36499781858678465  1.0000
  O   O5        1.0  0.964604900774563  0.36823509154339584  0.7426092017029762  1.0000
  O   O6        1.0  0.9646061123222475  0.5638824245974001  0.5469566156651045  1.0000
  O   O7        1.0  0.9645455093180834  0.18628225030057538  0.5606503080801011  1.0000
  O   O8        1.0  0.8396544510488969  0.5698063953360306  0.5487952097770175  1.0000
  O   O9        1.0  0.8396532397575683  0.3741606225184595  0.7444477270614491  1.0000
  O   O10       1.0  0.8395951158409766  0.38785505666702486  0.36683478254128526  1.0000
  O   O11       1.0  0.8395938481133751  0.1922077262782276  0.5624873693988279  1.0000
