data_image0
_chemical_formula_structural       NC6NC2H4C6ClH5C6NH7Zn2C4O8
_chemical_formula_sum              "N3 C24 H16 Cl1 Zn2 O8"
_cell_length_a       14.927258858638513
_cell_length_b       10.302970706292308
_cell_length_c       9.274774538082516
_cell_angle_alpha    85.06361778746081
_cell_angle_beta     90.34966586359073
_cell_angle_gamma    89.9983139300619

_space_group_name_H-M_alt    "P 1"
_space_group_IT_number       1

loop_
  _space_group_symop_operation_xyz
  'x, y, z'

loop_
  _atom_site_type_symbol
  _atom_site_label
  _atom_site_symmetry_multiplicity
  _atom_site_fract_x
  _atom_site_fract_y
  _atom_site_fract_z
  _atom_site_occupancy
  N   N1        1.0  0.8375030425125033  0.4333060813072416  0.4080656833121541  1.0000
  C   C1        1.0  0.7599765513855539  0.43330605555793  0.4080656939128817  1.0000
  C   C2        1.0  0.6635440436498782  0.43330615956789  0.40806564399599043  1.0000
  C   C3        1.0  0.6160111455006185  0.4129719038458026  0.28123170165476497  1.0000
  C   C4        1.0  0.5222998336499458  0.41297192797171256  0.281231568041274  1.0000
  C   C5        1.0  0.47572797973214187  0.43330599957973837  0.4080656626448733  1.0000
  C   C6        1.0  0.37929540500490755  0.4333061035924133  0.40806561272205055  1.0000
  N   N2        1.0  0.30176891387795873  0.4333060778431017  0.4080656233227784  1.0000
  C   C7        1.0  0.5232608108898428  0.4536402553045411  0.5348996049801675  1.0000
  C   C8        1.0  0.6169721227405154  0.4536402311786314  0.534899738593658  1.0000
  H   H1        1.0  0.6513334674201156  0.3971507074366132  0.18254761516374218  1.0000
  H   H2        1.0  0.4862298118866792  0.3971508853114451  0.182547610225114  1.0000
  H   H3        1.0  0.48793855636870953  0.4694614415773953  0.6335837996822637  1.0000
  H   H4        1.0  0.6530421449175159  0.46946136059754684  0.6335838065682435  1.0000
  C   C9        1.0  0.06964028174751485  0.052058572944100316  0.40807188936833017  1.0000
  C   C10       1.0  0.16224932069684994  0.04869775091824889  0.43587026541934387  1.0000
  C   C11       1.0  0.20819945366657078  0.9300733576110743  0.4496629767817633  1.0000
  C   C12       1.0  0.16224931972418155  0.8135897827800316  0.43587019754381107  1.0000
  C   C13       1.0  0.06964029162135482  0.8145435141096201  0.4080719719856456  1.0000
  C   C14       1.0  0.023787199275189692  0.9343692124205537  0.3943082568060863  1.0000
  Cl  Cl1       1.0  0.3238902075971324  0.9273784078860006  0.4843896720821155  1.0000
  H   H5        1.0  0.03475607569939388  0.3806276603924279  0.3975999199690601  1.0000
  H   H6        1.0  0.1990821856811803  0.1378863358005067  0.4469262312496194  1.0000
  H   H7        1.0  0.1990821498607993  0.7226851437846441  0.44692612755852235  1.0000
  H   H8        1.0  0.9523642979143665  0.9360328534393627  0.3728692691202937  1.0000
  H   H9        1.0  0.03475607236430234  0.4875996915817855  0.39760019245440703  1.0000
  C   C15       1.0  0.06803258001013737  0.4366215616768139  0.984255590328892  1.0000
  C   C16       1.0  0.13151007335251216  0.5132353366576243  0.05099209517400837  1.0000
  C   C17       1.0  0.1990065748366224  0.5791546676373596  0.9702271729166716  1.0000
  C   C18       1.0  0.20357224444288025  0.5687591915769219  0.8212497568435544  1.0000
  C   C19       1.0  0.1403821635438327  0.4950053903107762  0.7528106895115405  1.0000
  C   C20       1.0  0.07124800413781612  0.42998045515248307  0.8318882161117971  1.0000
  N   N3        1.0  0.2635124986665389  0.6555878239649084  0.03996892278795983  1.0000
  H   H10       1.0  0.9341264195391923  0.18283124892479605  0.11017591025074759  1.0000
  H   H11       1.0  0.12989751810288808  0.5193927091566148  0.16701222492786116  1.0000
  H   H12       1.0  0.2556846141509184  0.6189194057615885  0.7577189820557666  1.0000
  H   H13       1.0  0.14437688802428317  0.49139408051750466  0.6366376394000737  1.0000
  H   H14       1.0  0.9783062052485894  0.2629960857062832  0.5658064389404558  1.0000
  H   H15       1.0  0.2609110767594026  0.663729272121899  0.15133884625655947  1.0000
  H   H16       1.0  0.3143318460237869  0.7047270969898398  0.9807268327509356  1.0000
  Zn  Zn1       1.0  0.9714801839081151  0.4333025361553089  0.40807400534628857  1.0000
  Zn  Zn2       1.0  0.16779182827480307  0.4332988960645991  0.40806914030125285  1.0000
  C   C21       1.0  0.07063822658497745  0.4260637637946336  0.6716675015453015  1.0000
  C   C22       1.0  0.06863592985240752  0.4405393053733444  0.1444757857029937  1.0000
  C   C23       1.0  0.06961387721885859  0.6704626603663653  0.40232073164366766  1.0000
  C   C24       1.0  0.06966021252290981  0.19613884839440465  0.41382263255130325  1.0000
  O   O1        1.0  0.14333766552135407  0.44184709061469096  0.1982453006406384  1.0000
  O   O2        1.0  0.14493248507205914  0.4247522396532552  0.6178938786948873  1.0000
  O   O3        1.0  0.1441043114115087  0.6221074277418381  0.400394456351177  1.0000
  O   O4        1.0  0.1441657717835415  0.24449191266244363  0.41574461477327596  1.0000
  O   O5        1.0  0.9951061734078179  0.6221095195601796  0.40039853086833443  1.0000
  O   O6        1.0  0.9959343467724258  0.4247558918815199  0.6178978762594378  1.0000
  O   O7        1.0  0.9943395206989887  0.44185071119634317  0.19824756301634827  1.0000
  O   O8        1.0  0.995167627367981  0.24449552311047507  0.41574698535412763  1.0000
