data_image0
_chemical_formula_structural       NC8NC6H8C9H8C6ClH5Zn2C4O8
_chemical_formula_sum              "N2 C33 H21 Cl1 Zn2 O8"
_cell_length_a       17.457602349358154
_cell_length_b       9.275152443626249
_cell_length_c       10.302974078461048
_cell_angle_alpha    85.36323094855369
_cell_angle_beta     92.87591007631781
_cell_angle_gamma    92.27213218982278

_space_group_name_H-M_alt    "P 1"
_space_group_IT_number       1

loop_
  _space_group_symop_operation_xyz
  'x, y, z'

loop_
  _atom_site_type_symbol
  _atom_site_label
  _atom_site_symmetry_multiplicity
  _atom_site_fract_x
  _atom_site_fract_y
  _atom_site_fract_z
  _atom_site_occupancy
  N   N1        1.0  0.7310490247219886  0.6142474849259336  0.622634604727325  1.0000
  C   C1        1.0  0.6696984791761289  0.5632199385332599  0.6121591097066057  1.0000
  C   C2        1.0  0.5933758514045232  0.4997480200533229  0.5991371156956051  1.0000
  C   C3        1.0  0.5350856233919192  0.5443717305105722  0.6738904803344399  1.0000
  C   C4        1.0  0.4602136523984158  0.4832534152051709  0.6614764151831369  1.0000
  C   C5        1.0  0.3983458433830844  0.5303694806751968  0.7406434443066108  1.0000
  C   C6        1.0  0.3239088087316234  0.550889884137167  0.6848433809546097  1.0000
  C   C7        1.0  0.26561748609155694  0.5953092344814166  0.7597052111544758  1.0000
  C   C8        1.0  0.1897458924865855  0.6165028075396709  0.7016886153073354  1.0000
  N   N2        1.0  0.1287580098655294  0.633535351787792  0.6550434422367186  1.0000
  C   C9        1.0  0.2812724786867821  0.6194783349562654  0.8908747304197047  1.0000
  C   C10       1.0  0.3549271183546355  0.59939013419412  0.9470611057739614  1.0000
  C   C11       1.0  0.4132079048764002  0.5551708413330982  0.8726563095981181  1.0000
  C   C12       1.0  0.4449165340925894  0.3767587112706885  0.5728785559247127  1.0000
  C   C13       1.0  0.503196698203477  0.33244464156305376  0.4985242327776609  1.0000
  C   C14       1.0  0.5772845705971525  0.39368781621046534  0.5114877314451833  1.0000
  H   H1        1.0  0.5478760174798404  0.6279200982232698  0.7402753165471847  1.0000
  H   H2        1.0  0.3114749446918209  0.5342566410367063  0.5828971828780878  1.0000
  H   H3        1.0  0.23659482688034675  0.6537920795117604  0.9495991844361764  1.0000
  H   H4        1.0  0.3668565176642848  0.6177540969482285  0.04862952945508058  1.0000
  H   H5        1.0  0.46960452728077423  0.5385133055757896  0.9187921569674977  1.0000
  H   H6        1.0  0.3881627668492236  0.3263863460868548  0.5623652004854744  1.0000
  H   H7        1.0  0.4909267412500198  0.25013677885958063  0.4309381475874741  1.0000
  H   H8        1.0  0.6219571037709218  0.35840774775045503  0.4532768226021362  1.0000
  C   C15       1.0  0.9276433549871863  0.20014949775925595  0.6399802899610156  1.0000
  C   C16       1.0  0.8999595631442429  0.28154630970378314  0.5274290630026146  1.0000
  C   C17       1.0  0.879409209696449  0.21510832884290548  0.41339412824358185  1.0000
  C   C18       1.0  0.8862199690072934  0.0660966936448504  0.4096594247149083  1.0000
  C   C19       1.0  0.9124030982422208  0.982938956717895  0.5211562262028422  1.0000
  C   C20       1.0  0.9321709597972728  0.04762259338238617  0.6377095793917533  1.0000
  C   C21       1.0  0.8654285478217492  0.9979388586204354  0.29160898808546865  1.0000
  C   C22       1.0  0.8480205910487087  0.9408392668740946  0.19276038667283624  1.0000
  C   C23       1.0  0.8268994764447499  0.8715470297852336  0.07282497656065257  1.0000
  H   H9        1.0  0.037913871076330055  0.2871487679207625  0.9082478773881835  1.0000
  H   H10       1.0  0.895917073660014  0.3978677456150155  0.5266912678606459  1.0000
  H   H11       1.0  0.8588913391272552  0.28035303294494596  0.32763891927496  1.0000
  H   H12       1.0  0.9156341603304321  0.8667856248687199  0.517797799220721  1.0000
  H   H13       1.0  0.003952713769095116  0.7558044148894066  0.8208990175019355  1.0000
  H   H14       1.0  0.8409285859745647  0.755505575154042  0.08609692667290703  1.0000
  H   H15       1.0  0.7644389151824603  0.8811004230146776  0.04996177552827553  1.0000
  H   H16       1.0  0.8593078545018397  0.9254672863011779  0.9914300719842579  1.0000
  C   C24       1.0  0.9299071612362925  0.6238860484975419  0.25760245803642556  1.0000
  C   C25       1.0  0.9157575525329837  0.4733663169202829  0.2661498998145102  1.0000
  C   C26       1.0  0.9087369419505492  0.39868252775382074  0.1534341193236095  1.0000
  C   C27       1.0  0.9157575872906228  0.4733664000780609  0.03104200342193586  1.0000
  C   C28       1.0  0.9299071588808892  0.6238859739173954  0.020087477149905334  1.0000
  C   C29       1.0  0.9369130041367129  0.6984121511501618  0.13401702581590524  1.0000
  Cl  Cl1       1.0  0.8910607217147022  0.21064762485147992  0.16561544764116087  1.0000
  H   H17       1.0  0.935237517109585  0.6805842548746613  0.5816857593943374  1.0000
  H   H18       1.0  0.9101299331676516  0.4135011052360546  0.36007464757597507  1.0000
  H   H19       1.0  0.9101299866836006  0.41350108724660073  0.9448736859271527  1.0000
  H   H20       1.0  0.9478255726382797  0.8144974842730144  0.1264966543328383  1.0000
  H   H21       1.0  0.9352373710141639  0.6805842350233355  0.6886581170475887  1.0000
  Zn  Zn1       1.0  0.8458192262061011  0.6198096770021944  0.6319946015141062  1.0000
  Zn  Zn2       1.0  0.01398773092519657  0.6279613288324146  0.6456941061518466  1.0000
  C   C30       1.0  0.9298747256002032  0.6181374162489426  0.8759767168237993  1.0000
  C   C31       1.0  0.9299340776528798  0.6296354992848754  0.4017122629862637  1.0000
  C   C32       1.0  0.9313111911772775  0.8874319189708694  0.6329650400151137  1.0000
  C   C33       1.0  0.9284975454295972  0.36033926011657885  0.644724008981042  1.0000
  O   O1        1.0  0.9937621485393553  0.6346522816268911  0.4552757374684004  1.0000
  O   O2        1.0  0.9936826528255113  0.6193064604521277  0.8328104785713232  1.0000
  O   O3        1.0  0.9948417566339564  0.8367651353918375  0.6365767560957549  1.0000
  O   O4        1.0  0.9926029874015405  0.41719361422802104  0.6515093578992099  1.0000
  O   O5        1.0  0.8672039123421088  0.8305773888264002  0.6261793450849418  1.0000
  O   O6        1.0  0.8660448177922229  0.6131204475528722  0.8224129936926161  1.0000
  O   O7        1.0  0.8661243132884929  0.6284662184459253  0.4448766918454923  1.0000
  O   O8        1.0  0.8649651520923992  0.41100754072602813  0.6411104096392592  1.0000
