data_image0
_chemical_formula_structural       NC11NC3H8C13OH12C13NH13Zn2C4O8
_chemical_formula_sum              "N3 C44 H33 O9 Zn2"
_cell_length_a       17.807433833752565
_cell_length_b       10.299150109392551
_cell_length_c       10.299780419254978
_cell_angle_alpha    85.552664501727
_cell_angle_beta     88.51101288378402
_cell_angle_gamma    90.66566965777596

_space_group_name_H-M_alt    "P 1"
_space_group_IT_number       1

loop_
  _space_group_symop_operation_xyz
  'x, y, z'

loop_
  _atom_site_type_symbol
  _atom_site_label
  _atom_site_symmetry_multiplicity
  _atom_site_fract_x
  _atom_site_fract_y
  _atom_site_fract_z
  _atom_site_occupancy
  N   N1        1.0  0.707340746144507  0.43826419310659576  0.534221725388002  1.0000
  C   C1        1.0  0.656518873340611  0.40354936012059883  0.6007932988179301  1.0000
  C   C2        1.0  0.5932913385448136  0.36036696872514923  0.6835998412350799  1.0000
  C   C3        1.0  0.6050139503390849  0.2968387157192658  0.8063351045110598  1.0000
  C   C4        1.0  0.5436938004659118  0.25533572710259816  0.8868572349906825  1.0000
  C   C5        1.0  0.4704966641888221  0.27704783896840746  0.8452849794714945  1.0000
  C   C6        1.0  0.4577972915197983  0.3407305549099322  0.7220894845231216  1.0000
  C   C7        1.0  0.38003205872551626  0.3637722804178949  0.6777362342253608  1.0000
  C   C8        1.0  0.3612688204642676  0.34687068883839495  0.5481667167638768  1.0000
  C   C9        1.0  0.2880417546988297  0.3685440603156745  0.5065504046535003  1.0000
  C   C10       1.0  0.2326349033105979  0.4074373961532203  0.5936832595913455  1.0000
  C   C11       1.0  0.15727117490821851  0.4297689854008085  0.5507054823094695  1.0000
  N   N2        1.0  0.0966841106071879  0.4477219240877648  0.5161544773004667  1.0000
  C   C12       1.0  0.2507066096035887  0.42454946481383143  0.7227215921099698  1.0000
  C   C13       1.0  0.3238808861932882  0.4028412162401395  0.7645933353961586  1.0000
  C   C14       1.0  0.5199747519437059  0.38222898182539455  0.6415837707817951  1.0000
  H   H1        1.0  0.6614785360867246  0.279430213286036  0.8397052672843568  1.0000
  H   H2        1.0  0.5528884772842898  0.20590041500823617  0.9816065033252934  1.0000
  H   H3        1.0  0.423855378043312  0.24250306776094788  0.908733333653235  1.0000
  H   H4        1.0  0.40296216532344337  0.3152116562295959  0.4794636902849318  1.0000
  H   H5        1.0  0.2746161336106289  0.3546406162054041  0.4065245471228333  1.0000
  H   H6        1.0  0.2082967763562014  0.45498527101571473  0.7909102871532688  1.0000
  H   H7        1.0  0.3367778126522358  0.4182901409747658  0.86443591909012  1.0000
  H   H8        1.0  0.5114782689246864  0.4330267952828358  0.5470683449813514  1.0000
  C   C15       1.0  0.9020868058080339  0.06159524950684035  0.5253287461010636  1.0000
  C   C16       1.0  0.9006846152277858  0.049785831305019006  0.6621987273186334  1.0000
  C   C17       1.0  0.8999083420373861  0.9266619630438948  0.7313340615165193  1.0000
  C   C18       1.0  0.9005398189524931  0.8145268926753345  0.661842066984139  1.0000
  C   C19       1.0  0.90194523050161  0.8243810011350182  0.5250583315973003  1.0000
  C   C20       1.0  0.9027125770437077  0.9483756136539703  0.45760092883059844  1.0000
  C   C21       1.0  0.8984184452256755  0.9151505101785693  0.8760371675776972  1.0000
  C   C22       1.0  0.8522139291031744  0.8211622238617576  0.94619978593221  1.0000
  C   C23       1.0  0.8507870480610743  0.8104107629155947  0.08236641911022236  1.0000
  C   C24       1.0  0.8960316350308267  0.8925008115391148  0.15080915842398446  1.0000
  C   C25       1.0  0.9415173148029856  0.9874254062211202  0.08132244162280955  1.0000
  C   C26       1.0  0.9429616347677157  0.9983530877553339  0.9451547104986576  1.0000
  C   C27       1.0  0.8929187346828033  0.8832635182581353  0.2970336719929413  1.0000
  O   O1        1.0  0.8367626771167  0.9650832912256734  0.33987851387218726  1.0000
  H   H9        1.0  0.9042454261080536  0.29116705953751465  0.2670028917920062  1.0000
  H   H10       1.0  0.8991515023903828  0.13653180682223542  0.7152761947472284  1.0000
  H   H11       1.0  0.9009613583289308  0.7194243382233199  0.7146537744676531  1.0000
  H   H12       1.0  0.9037944872159793  0.9566925392960612  0.3520956394802679  1.0000
  H   H13       1.0  0.902435235789924  0.500694540547421  0.4724488561559801  1.0000
  H   H14       1.0  0.8162929504532509  0.7572715105508017  0.8957602037548021  1.0000
  H   H15       1.0  0.8142350548529985  0.7382024238021307  0.13443601754896561  1.0000
  H   H16       1.0  0.9760543735565826  0.05283560830027456  0.13257241799333241  1.0000
  H   H17       1.0  0.9795386909532079  0.07100761577041959  0.8938905579966949  1.0000
  H   H18       1.0  0.9481740116985088  0.9124422572060139  0.3346378747544844  1.0000
  H   H19       1.0  0.8807048568071987  0.7809524202770738  0.33541142590211726  1.0000
  H   H20       1.0  0.8370279604204717  0.9554301043859615  0.43648877669081176  1.0000
  C   C28       1.0  0.9020671897751887  0.4429045110798091  0.1438370295454747  1.0000
  C   C29       1.0  0.956441193138083  0.5432624553877767  0.13261629474926062  1.0000
  C   C30       1.0  0.9839349871587756  0.5942085056992112  0.009789393718522277  1.0000
  C   C31       1.0  0.9563379806796818  0.5434321947061107  0.8973208458578119  1.0000
  C   C32       1.0  0.9019648702766806  0.4430717525413132  0.9065499867791997  1.0000
  C   C33       1.0  0.8751318821988752  0.3933732768575169  0.03024819838506132  1.0000
  C   C34       1.0  0.04146054746235838  0.7003760795579463  0.999010279665729  1.0000
  C   C35       1.0  0.03636261091578086  0.8048383119234165  0.9033825696274835  1.0000
  C   C36       1.0  0.09053134897148674  0.9046786869043434  0.8933215976720197  1.0000
  C   C37       1.0  0.15041752612127057  0.9024300179358999  0.9792184244757859  1.0000
  C   C38       1.0  0.15623570073027992  0.7977064214046711  0.07375604095219845  1.0000
  C   C39       1.0  0.10208250067174651  0.6978417228987011  0.08398907151505797  1.0000
  C   C40       1.0  0.20972282295411124  0.008096776240104308  0.9659731015023615  1.0000
  N   N3        1.0  0.26732026548330934  0.9768413525976978  0.8704342981288623  1.0000
  H   H21       1.0  0.8813786889376797  0.40461731056948497  0.4755680734114613  1.0000
  H   H22       1.0  0.9767983383717606  0.5832659952060597  0.21952716332356004  1.0000
  H   H23       1.0  0.9781096318007536  0.581119036694735  0.8024895509022478  1.0000
  H   H24       1.0  0.8331850649884259  0.3159506520977684  0.038135909034097124  1.0000
  H   H25       1.0  0.8812319635487118  0.40485247372040223  0.582612056380388  1.0000
  H   H26       1.0  0.9900288595748713  0.8100597199350799  0.8372286566639957  1.0000
  H   H27       1.0  0.08567795383672716  0.9839672623848799  0.8186787198152613  1.0000
  H   H28       1.0  0.20284829628080112  0.7931440985603608  0.13937025300960415  1.0000
  H   H29       1.0  0.10824545067845248  0.6175677188358508  0.15710566193241646  1.0000
  H   H30       1.0  0.18374675404411644  0.10249990686267597  0.93386346326431  1.0000
  H   H31       1.0  0.2356286062699069  0.020037313175588434  0.06162353210037064  1.0000
  H   H32       1.0  0.3052164397826831  0.055459607556688884  0.8587080147270276  1.0000
  H   H33       1.0  0.29747494575390565  0.897264045089656  0.9098366184450571  1.0000
  Zn  Zn1       1.0  0.819696830288332  0.4409900167081364  0.5290153933711319  1.0000
  Zn  Zn2       1.0  0.9843280122535404  0.44498548240907376  0.5213713987515718  1.0000
  C   C41       1.0  0.9019834742289597  0.4378660562231877  0.7623828496615959  1.0000
  C   C42       1.0  0.9020431657590396  0.4481111252964254  0.2880039858702266  1.0000
  C   C43       1.0  0.9019688181094525  0.6801970670869704  0.5199346036548331  1.0000
  C   C44       1.0  0.9020577659817622  0.20577855266332157  0.530452304274956  1.0000
  O   O2        1.0  0.9645117797046023  0.4513691048295856  0.3334868792819905  1.0000
  O   O3        1.0  0.9644661183207596  0.43763956282932526  0.711097967717095  1.0000
  O   O4        1.0  0.9644534409222404  0.6333248986520101  0.5153193323317746  1.0000
  O   O5        1.0  0.9645244009369922  0.2556837769130915  0.529265419900897  1.0000
  O   O6        1.0  0.839500385424338  0.6302917208420745  0.5211213748234957  1.0000
  O   O7        1.0  0.8395130625391007  0.43460794542666686  0.7168999404125387  1.0000
  O   O8        1.0  0.8395587241908183  0.44833744182630414  0.3392872906413107  1.0000
  O   O9        1.0  0.8395713454087954  0.2526521046415757  0.5350659286283201  1.0000
