data_image0
_chemical_formula_structural       NC12NC2H8C12NCOCH13C12SCH12Zn2C4O8
_chemical_formula_sum              "N3 C45 H33 O9 S1 Zn2"
_cell_length_a       17.80743265337812
_cell_length_b       10.299155265289647
_cell_length_c       10.299780138516091
_cell_angle_alpha    85.56043235920357
_cell_angle_beta     91.52646952147008
_cell_angle_gamma    89.4139958816946

_space_group_name_H-M_alt    "P 1"
_space_group_IT_number       1

loop_
  _space_group_symop_operation_xyz
  'x, y, z'

loop_
  _atom_site_type_symbol
  _atom_site_label
  _atom_site_symmetry_multiplicity
  _atom_site_fract_x
  _atom_site_fract_y
  _atom_site_fract_z
  _atom_site_occupancy
  N   N1        1.0  0.7072130086844682  0.4063469316915549  0.6010216006727864  1.0000
  C   C1        1.0  0.6563916324555323  0.43588602670015614  0.5323188472431122  1.0000
  C   C2        1.0  0.5931648254926287  0.47263051789309013  0.4468612700365165  1.0000
  C   C3        1.0  0.6048887256031287  0.5266148467262848  0.32023424700264  1.0000
  C   C4        1.0  0.5435694311871349  0.5618563973061336  0.237172926080582  1.0000
  C   C5        1.0  0.4703719230720196  0.5433768926192335  0.28007869327898227  1.0000
  C   C6        1.0  0.45767124215203414  0.48927390175578084  0.40717386282400747  1.0000
  C   C7        1.0  0.5198478531336016  0.45403560003064425  0.49021867218206205  1.0000
  C   C8        1.0  0.37990556715316287  0.4696811000868041  0.452940057599182  1.0000
  C   C9        1.0  0.3611047658481233  0.49691057509584247  0.5799687285543587  1.0000
  C   C10       1.0  0.2878772996859431  0.47847266012276035  0.6229150443815832  1.0000
  C   C11       1.0  0.23250766390939442  0.43255124826675684  0.5396706765309495  1.0000
  C   C12       1.0  0.1571436186845117  0.41356091530476036  0.5840179872285262  1.0000
  N   N2        1.0  0.09655626330615359  0.3982939647714375  0.6196701742388901  1.0000
  C   C13       1.0  0.25061697221447027  0.40515302243085327  0.4131849884738537  1.0000
  C   C14       1.0  0.3237915975968682  0.42360564146533464  0.36998279760355773  1.0000
  H   H1        1.0  0.6613534613370319  0.541428681599048  0.2857952437682445  1.0000
  H   H2        1.0  0.5527648351548498  0.6039252599694006  0.13938815262722137  1.0000
  H   H3        1.0  0.42373046793906327  0.5729936059491746  0.21448366806441602  1.0000
  H   H4        1.0  0.51135115340318  0.4105812776556188  0.5878793993694891  1.0000
  H   H5        1.0  0.4027682909704405  0.5341140012031407  0.6455271960617387  1.0000
  H   H6        1.0  0.2744222871995083  0.5003516179965215  0.7209115759457212  1.0000
  H   H7        1.0  0.208236253774379  0.36921711323771983  0.348039091297744  1.0000
  H   H8        1.0  0.33671854150152747  0.40019111132274926  0.2722900163385358  1.0000
  C   C15       1.0  0.9019721313410853  0.02092119648808732  0.6104687583016113  1.0000
  C   C16       1.0  0.8891496703081313  0.030859822251920556  0.47493603800523854  1.0000
  C   C17       1.0  0.8825756624040046  0.9187627131204092  0.40609689106430974  1.0000
  C   C18       1.0  0.8889700644737821  0.7956037066842249  0.4746196656581546  1.0000
  C   C19       1.0  0.9018043583295191  0.7837096184970935  0.6102345392733352  1.0000
  C   C20       1.0  0.9082297213702352  0.8968870015120534  0.6773243438620773  1.0000
  C   C21       1.0  0.8690119743246097  0.9302502292434564  0.26271968289891845  1.0000
  C   C22       1.0  0.9071182955041804  0.023556868132976312  0.18313128014608518  1.0000
  C   C23       1.0  0.8943601530036742  0.03423637249315447  0.048204069892385806  1.0000
  C   C24       1.0  0.843707732005941  0.9509306869226466  0.9900301281958571  1.0000
  C   C25       1.0  0.8046837527450157  0.859459300416815  0.06950642140073195  1.0000
  C   C26       1.0  0.8174692603835866  0.8485232032477305  0.20439760874234716  1.0000
  N   N3        1.0  0.8285322091161583  0.9614583570938858  0.8517489626341042  1.0000
  C   C27       1.0  0.8833949240439039  0.9972406943034037  0.756163842098124  1.0000
  O   O1        1.0  0.9523126911775144  0.9983550647518156  0.7873218717076957  1.0000
  C   C28       1.0  0.8594391390334404  0.024155519258387548  0.6164833401519751  1.0000
  H   H9        1.0  0.906927517888019  0.34457407933144113  0.6625958627999856  1.0000
  H   H10       1.0  0.8832099359800609  0.12601751924649407  0.42284444799956145  1.0000
  H   H11       1.0  0.8849329651580723  0.7088777101340965  0.4218004360875707  1.0000
  H   H12       1.0  0.9181224826320956  0.8885062142651456  0.7818632390399147  1.0000
  H   H13       1.0  0.9264782799811069  0.5539675014951424  0.8660912546797958  1.0000
  H   H14       1.0  0.9472312926145895  0.08778349460575918  0.22514293829214108  1.0000
  H   H15       1.0  0.923185679348668  0.10908400552381137  0.990007231288177  1.0000
  H   H16       1.0  0.7644987272766748  0.7959380424365204  0.026624319953730827  1.0000
  H   H17       1.0  0.7862296543594789  0.7773420146257475  0.26331172568467287  1.0000
  H   H18       1.0  0.7756209027285812  0.9336780151638924  0.8181427318775514  1.0000
  H   H19       1.0  0.8052094272286905  0.07872196200848736  0.6094324565405111  1.0000
  H   H20       1.0  0.8524909031959726  0.9306806484805333  0.570928691413402  1.0000
  H   H21       1.0  0.9022113062562546  0.08335115269875493  0.5631394490287707  1.0000
  C   C29       1.0  0.901918452906299  0.40220345318585515  0.22900101762689573  1.0000
  C   C30       1.0  0.8305000230797145  0.3456647574878532  0.22909187944234405  1.0000
  C   C31       1.0  0.7942819905546948  0.31713104051923446  0.111989544553496  1.0000
  C   C32       1.0  0.8304384683328525  0.34589148643204437  0.9937849677887534  1.0000
  C   C33       1.0  0.9018580189303694  0.40242733525535607  0.9917023221954829  1.0000
  C   C34       1.0  0.9371980483130055  0.43026751427943816  0.10981428537314232  1.0000
  C   C35       1.0  0.7187262474854033  0.257332889594883  0.11314842402500537  1.0000
  C   C36       1.0  0.6630780306728137  0.30014797119019465  0.019514190583502566  1.0000
  C   C37       1.0  0.5919814398415706  0.24383550976638468  0.02084223422924869  1.0000
  C   C38       1.0  0.57549601207835  0.14435923479975046  0.11564494996188879  1.0000
  C   C39       1.0  0.6304757919514754  0.1007589863063001  0.20884175345063727  1.0000
  C   C40       1.0  0.7016188987849635  0.15689704283776035  0.20787839714634027  1.0000
  S   S1        1.0  0.48430015709191515  0.07196875551444415  0.11690031194615826  1.0000
  C   C41       1.0  0.44574893380765335  0.18698989452895476  0.2237488997368691  1.0000
  H   H22       1.0  0.9291431098823438  0.42369953218779766  0.5564239438799521  1.0000
  H   H23       1.0  0.8024284270727027  0.32532149626844153  0.32030287329929563  1.0000
  H   H24       1.0  0.8032008921216354  0.3224516606923451  0.9034152662221859  1.0000
  H   H25       1.0  0.9922945016813743  0.4738839240690941  0.10897582589024468  1.0000
  H   H26       1.0  0.9290554826205126  0.42402883288937265  0.6634500809172361  1.0000
  H   H27       1.0  0.674232042819883  0.3782909253001929  0.946346945970733  1.0000
  H   H28       1.0  0.5496447141715043  0.27804693904821587  0.9484732269290502  1.0000
  H   H29       1.0  0.6181733926698707  0.023335811403719438  0.28207865149113  1.0000
  H   H30       1.0  0.7435518753737649  0.12064282316648248  0.28012785895352077  1.0000
  H   H31       1.0  0.47751807287868503  0.18030224584895782  0.3182864574635236  1.0000
  H   H32       1.0  0.386135940770795  0.16309226885868514  0.2416733903976067  1.0000
  H   H33       1.0  0.4486307266474867  0.2876598082660467  0.1772657708286956  1.0000
  Zn  Zn1       1.0  0.8195690651992728  0.40401955403428813  0.6064106638108584  1.0000
  Zn  Zn2       1.0  0.9842002057885422  0.4006107512378907  0.6142917068970535  1.0000
  C   C42       1.0  0.9018688970132215  0.39721095634805564  0.8475369297813277  1.0000
  C   C43       1.0  0.9019021713709358  0.4074209504871645  0.3731656539445152  1.0000
  C   C44       1.0  0.9018325933582982  0.6395249033636207  0.6051037145284205  1.0000
  C   C45       1.0  0.9019384191865348  0.16510544422867973  0.6155989362225942  1.0000
  O   O2        1.0  0.9643733682566139  0.4078727011566676  0.4245394393714666  1.0000
  O   O3        1.0  0.9643489267746707  0.3941710233204174  0.8021443001745912  1.0000
  O   O4        1.0  0.9643187687919305  0.5898426178486129  0.6063777228698083  1.0000
  O   O5        1.0  0.9644034700675705  0.21220111705404385  0.6203059166141287  1.0000
  O   O6        1.0  0.8393657447397163  0.592429189382804  0.600396451397539  1.0000
  O   O7        1.0  0.8393959023812533  0.3967591552621969  0.7961629589809055  1.0000
  O   O8        1.0  0.839420344046849  0.4104607873795604  0.41855653686821004  1.0000
  O   O9        1.0  0.8394504458490611  0.21478919401603402  0.6143231114767485  1.0000
