data_image0
_chemical_formula_structural       NC9NC5H8C6SCNH5C6NO2H3Zn2C4O8
_chemical_formula_sum              "N4 C31 H16 S1 O10 Zn2"
_cell_length_a       17.807436237873137
_cell_length_b       10.302215558581764
_cell_length_c       9.273395971720356
_cell_angle_alpha    84.96984654489938
_cell_angle_beta     89.26497821809997
_cell_angle_gamma    88.40943486361951

_space_group_name_H-M_alt    "P 1"
_space_group_IT_number       1

loop_
  _space_group_symop_operation_xyz
  'x, y, z'

loop_
  _atom_site_type_symbol
  _atom_site_label
  _atom_site_symmetry_multiplicity
  _atom_site_fract_x
  _atom_site_fract_y
  _atom_site_fract_z
  _atom_site_occupancy
  N   N1        1.0  0.7093036956848255  0.4024100774772506  0.3962155096926474  1.0000
  C   C1        1.0  0.6487216791125833  0.36734447854152186  0.38395676536070966  1.0000
  C   C2        1.0  0.5733643090413454  0.32372673526879225  0.368708218458498  1.0000
  C   C3        1.0  0.555376935529767  0.2534239372777132  0.25197475014908655  1.0000
  C   C4        1.0  0.48220888868592765  0.2109638652218131  0.2370775280128763  1.0000
  C   C5        1.0  0.4259794595670523  0.23842949965650284  0.3388776552135371  1.0000
  C   C6        1.0  0.3482206173775744  0.19341940982574687  0.3231370164817273  1.0000
  C   C7        1.0  0.2860310883393063  0.2748837864677638  0.35198131204988536  1.0000
  C   C8        1.0  0.21272068159792237  0.2322205877963879  0.33709927441047105  1.0000
  C   C9        1.0  0.1494811796732901  0.3163718127085382  0.3663484152779315  1.0000
  N   N2        1.0  0.0986496080938085  0.3840235642372747  0.38986391625605993  1.0000
  C   C10       1.0  0.2010162371312211  0.10783536498788937  0.29334473105898295  1.0000
  C   C11       1.0  0.2623484030687748  0.02635722708194232  0.26449110755854277  1.0000
  C   C12       1.0  0.3355395283361981  0.06862809834056917  0.27914794950279487  1.0000
  C   C13       1.0  0.44465808778534527  0.30922425010000776  0.4558548856035338  1.0000
  C   C14       1.0  0.5178791436804314  0.3514955989739071  0.4705790581331819  1.0000
  H   H1        1.0  0.5978480481965083  0.23169136065438978  0.17225354200743204  1.0000
  H   H2        1.0  0.46937902852483177  0.1581592222450099  0.14489374695032575  1.0000
  H   H3        1.0  0.2945151429499908  0.3720221005618096  0.3840935751501722  1.0000
  H   H4        1.0  0.14455646924493784  0.0739186762075219  0.2815630588528122  1.0000
  H   H5        1.0  0.2531675128988867  0.9300512931730828  0.23104451937150516  1.0000
  H   H6        1.0  0.3821889241089983  0.003098871436835626  0.25796530036249643  1.0000
  H   H7        1.0  0.4029022955062823  0.3304044423793717  0.5370150426386346  1.0000
  H   H8        1.0  0.5312387622884385  0.4055313486033494  0.5616050720205881  1.0000
  C   C15       1.0  0.903905659068997  0.011948349389090392  0.393001149579955  1.0000
  C   C16       1.0  0.9791533011627785  0.003897766472381161  0.43719934423060347  1.0000
  C   C17       1.0  0.016599301833618567  0.8828464876947208  0.4596507933053484  1.0000
  C   C18       1.0  0.9793484501219203  0.7687121971883452  0.4373183982696558  1.0000
  C   C19       1.0  0.9040547806175379  0.7744748486420531  0.3930906529671414  1.0000
  C   C20       1.0  0.8667383720018871  0.8965890382084684  0.37123093776031846  1.0000
  S   S1        1.0  0.11273658030701104  0.8740904952207483  0.5154757408080637  1.0000
  C   C21       1.0  0.08776393672076899  0.8607042651196672  0.7008757845258842  1.0000
  N   N3        1.0  0.07136929921169455  0.8519299220757239  0.8224217460128798  1.0000
  H   H9        1.0  0.8752732053235712  0.3423524175842294  0.3761105022101194  1.0000
  H   H10       1.0  0.008963226202997944  0.09129555385515829  0.4546262997730317  1.0000
  H   H11       1.0  0.00929214155493274  0.6758211291878672  0.4548270332654194  1.0000
  H   H12       1.0  0.808704299698965  0.901948122668213  0.3371637756156729  1.0000
  H   H13       1.0  0.7621586142279303  0.5781297931391622  0.3095775519201476  1.0000
  C   C22       1.0  0.9044085383106835  0.3971800063448841  0.9691027004293646  1.0000
  C   C23       1.0  0.8374546650439308  0.4299764961265602  0.04078521658092659  1.0000
  C   C24       1.0  0.7702881028520583  0.45050634266804535  0.9654535990822642  1.0000
  C   C25       1.0  0.7681698842532151  0.43867833174495413  0.8161920778642706  1.0000
  C   C26       1.0  0.8350840457168922  0.40810842794397373  0.7430727999058551  1.0000
  C   C27       1.0  0.9035519059942235  0.389243216434745  0.8169891619908118  1.0000
  N   N4        1.0  0.6985277134032082  0.45889240249066626  0.7391927092018995  1.0000
  O   O1        1.0  0.6332449757603114  0.48987824377347966  0.8110356485346237  1.0000
  O   O2        1.0  0.6961330447318895  0.4483055989920768  0.6062349417869815  1.0000
  H   H14       1.0  0.06877144191583562  0.24396497638901682  0.08282580069581313  1.0000
  H   H15       1.0  0.719731841699204  0.4744228136731006  0.024663920673657865  1.0000
  H   H16       1.0  0.0156190982226132  0.28981959858097195  0.5437003444879629  1.0000
  Zn  Zn1       1.0  0.8216605053657032  0.3971005844005851  0.39439092588532376  1.0000
  Zn  Zn2       1.0  0.9862927661550493  0.38932236283694976  0.39170036732134617  1.0000
  C   C28       1.0  0.9037111552294305  0.3855712082242051  0.6567198665527111  1.0000
  C   C29       1.0  0.9042439142477567  0.4008532909360947  0.12937153916173938  1.0000
  C   C30       1.0  0.9040285585282929  0.6303951649556399  0.38732092359187353  1.0000
  C   C31       1.0  0.9039264543885444  0.15602777624760766  0.39877055982562326  1.0000
  O   O3        1.0  0.9666657487818018  0.39912862000795607  0.1821381718960506  1.0000
  O   O4        1.0  0.9662413975315693  0.3813914133875462  0.6019107464280946  1.0000
  O   O5        1.0  0.9664968609719436  0.5790898804097053  0.3843692078680081  1.0000
  O   O6        1.0  0.9664102292747644  0.20143016594099383  0.399679603130197  1.0000
  O   O7        1.0  0.8415429860650854  0.584992783952351  0.3864116909870354  1.0000
  O   O8        1.0  0.8412875230041582  0.3872958775430532  0.603953152754638  1.0000
  O   O9        1.0  0.8417118760490788  0.4050330551644794  0.1841788425080526  1.0000
  O   O10       1.0  0.8414563564278016  0.20733459079813013  0.4017203819787014  1.0000
