data_image0
_chemical_formula_structural       NC5NC4H6C6NCH9C6NCOH5Zn2C4O8
_chemical_formula_sum              "N4 C27 H20 O9 Zn2"
_cell_length_a       13.854160002989762
_cell_length_b       9.273386996610926
_cell_length_c       9.273733555595832
_cell_angle_alpha    86.07967468279998
_cell_angle_beta     90.01106291040419
_cell_angle_gamma    89.39858485477477

_space_group_name_H-M_alt    "P 1"
_space_group_IT_number       1

loop_
  _space_group_symop_operation_xyz
  'x, y, z'

loop_
  _atom_site_type_symbol
  _atom_site_label
  _atom_site_symmetry_multiplicity
  _atom_site_fract_x
  _atom_site_fract_y
  _atom_site_fract_z
  _atom_site_occupancy
  N   N1        1.0  0.8977301449598256  0.5617730740506717  0.4076914819719021  1.0000
  C   C1        1.0  0.8252170899358396  0.5863589313048936  0.3486183742732598  1.0000
  C   C2        1.0  0.7350098263267841  0.6169443974959542  0.2751291668684943  1.0000
  C   C3        1.0  0.6476496879646733  0.5882219653408883  0.3468829690509907  1.0000
  C   C4        1.0  0.5598674138535757  0.6169444115810708  0.27512914367813873  1.0000
  C   C5        1.0  0.4701089496117883  0.5863587849234642  0.3486184661142717  1.0000
  N   N2        1.0  0.39795657480827024  0.5617730105331475  0.40769148198951277  1.0000
  C   C6        1.0  0.5594736516085212  0.6749960712938734  0.13163951060172963  1.0000
  C   C7        1.0  0.646785939971114  0.7058681833021644  0.05977876466018217  1.0000
  C   C8        1.0  0.6463572173087108  0.7640377251790638  0.9048025924104888  1.0000
  C   C9        1.0  0.7345507406486486  0.6749960689990386  0.13163942034811438  1.0000
  H   H1        1.0  0.6479805391604508  0.5431797816293293  0.45794149293214126  1.0000
  H   H2        1.0  0.49144456818547927  0.6961919096159906  0.0759679932346482  1.0000
  H   H3        1.0  0.7107311536367675  0.8319641169039963  0.8809099622501346  1.0000
  H   H4        1.0  0.5810226759684036  0.8319641194800926  0.8809100273157129  1.0000
  H   H5        1.0  0.6469896416136017  0.6727172332581057  0.8334148314703342  1.0000
  H   H6        1.0  0.8022675264723145  0.6961920212173764  0.07596790764485717  1.0000
  C   C10       1.0  0.15081619518854575  0.13812665508478328  0.4083997076208381  1.0000
  C   C11       1.0  0.16775706563969373  0.2202027470350689  0.27808938034178365  1.0000
  C   C12       1.0  0.17560976884699772  0.15430026521817924  0.14777099716891828  1.0000
  C   C13       1.0  0.1666403161302521  0.003963731154152272  0.14443100294544386  1.0000
  C   C14       1.0  0.15140040813485256  0.9209198630053673  0.2742886614649738  1.0000
  C   C15       1.0  0.14487982619070222  0.9854084347986362  0.40699580217362197  1.0000
  N   N3        1.0  0.1736769083797267  0.9329959288519432  0.011422067776749152  1.0000
  C   C16       1.0  0.18974867054891642  0.00938198290927005  0.8707823312409788  1.0000
  H   H7        1.0  0.17054910327199768  0.40281253796471295  0.6450120777263485  1.0000
  H   H8        1.0  0.1726801053655899  0.33682965007949417  0.2763212276753506  1.0000
  H   H9        1.0  0.18777682295353945  0.22185100442531525  0.049875418466708746  1.0000
  H   H10       1.0  0.14684434812634015  0.8044943764513633  0.2720150913456887  1.0000
  H   H11       1.0  0.18043827024839132  0.8578163959150802  0.7580193242530752  1.0000
  H   H12       1.0  0.16685304924713096  0.8206609038038744  0.014410631572112198  1.0000
  H   H13       1.0  0.12991013526456707  0.08768662323091836  0.8457417742728941  1.0000
  H   H14       1.0  0.25961198069640723  0.06693621867608177  0.8710148984044391  1.0000
  H   H15       1.0  0.1921771967108874  0.9310290622636609  0.7854616034530555  1.0000
  C   C17       1.0  0.14782463509584004  0.5572222513125742  0.9844782671903398  1.0000
  C   C18       1.0  0.05916838580738478  0.5489419513813245  0.05844344813520075  1.0000
  C   C19       1.0  0.9713080245739297  0.5523529191522334  0.9834883093632723  1.0000
  C   C20       1.0  0.9720453285771861  0.5687336050106588  0.8321134318654408  1.0000
  C   C21       1.0  0.059265296110370784  0.574861167996815  0.7569478254180266  1.0000
  C   C22       1.0  0.14787140277142163  0.5663128363816295  0.8309172366823074  1.0000
  N   N4        1.0  0.882343137334056  0.5472930429766454  0.06351117741398027  1.0000
  C   C23       1.0  0.7958474296264411  0.4808599789741052  0.01683883207361481  1.0000
  O   O1        1.0  0.7958747799858762  0.4045134313428054  0.9096145061638374  1.0000
  H   H16       1.0  0.37457692738477955  0.6573962117274825  0.08062573156919095  1.0000
  H   H17       1.0  0.9053166684406089  0.5783389145625326  0.7714829017586595  1.0000
  H   H18       1.0  0.30139673654894433  0.6276841064344043  0.5457093094311376  1.0000
  H   H19       1.0  0.8817287028455465  0.5856519908108917  0.16686661514021162  1.0000
  H   H20       1.0  0.7297901052984384  0.4929588886576461  0.07723962345038116  1.0000
  Zn  Zn1       1.0  0.042084720203523274  0.5617692827816412  0.40769981997978777  1.0000
  Zn  Zn2       1.0  0.2536020841065827  0.5617651234698758  0.4076949997477257  1.0000
  C   C24       1.0  0.14790067774037105  0.5588473182714394  0.6709316513544848  1.0000
  C   C25       1.0  0.14778842358712937  0.5646889097263799  0.14446330675855523  1.0000
  C   C26       1.0  0.1459966568845054  0.8251924771597513  0.4015180636885409  1.0000
  C   C27       1.0  0.14969238441506172  0.29834201839118846  0.4138769741348747  1.0000
  O   O2        1.0  0.22804605203996364  0.5671869162314649  0.19815392869487525  1.0000
  O   O3        1.0  0.22817984191361493  0.5563450621574291  0.6172369579058639  1.0000
  O   O4        1.0  0.22664123900122574  0.7714221624696475  0.39968357725887693  1.0000
  O   O5        1.0  0.22958458269752746  0.3521098250802279  0.4157072012660641  1.0000
  O   O6        1.0  0.06610214943207149  0.7714245811741982  0.39968761845551115  1.0000
  O   O7        1.0  0.06764074019188748  0.5563492133117673  0.6172409193861847  1.0000
  O   O8        1.0  0.06750695063891632  0.5671909985035049  0.19815615751324467  1.0000
  O   O9        1.0  0.06904548137079924  0.35211389819419536  0.4157095381542937  1.0000
