data_image0
_chemical_formula_structural       NC12NC2H8C12NH11C16H9Zn2C4O8
_chemical_formula_sum              "N3 C46 H28 Zn2 O8"
_cell_length_a       17.80743265337812
_cell_length_b       10.299770795358612
_cell_length_c       10.299151387937775
_cell_angle_alpha    85.58089315832936
_cell_angle_beta     91.52310795489359
_cell_angle_gamma    89.45311437677636

_space_group_name_H-M_alt    "P 1"
_space_group_IT_number       1

loop_
  _space_group_symop_operation_xyz
  'x, y, z'

loop_
  _atom_site_type_symbol
  _atom_site_label
  _atom_site_symmetry_multiplicity
  _atom_site_fract_x
  _atom_site_fract_y
  _atom_site_fract_z
  _atom_site_occupancy
  N   N1        1.0  0.7078223106445346  0.40601698674792813  0.6012733346439392  1.0000
  C   C1        1.0  0.657015106948441  0.43554320045243533  0.5325739905863305  1.0000
  C   C2        1.0  0.59380592946011  0.47227166879213134  0.4471206545662476  1.0000
  C   C3        1.0  0.6055557680307934  0.5262322945385887  0.32049981128917593  1.0000
  C   C4        1.0  0.5442534204300898  0.5614583112730729  0.23744250557572832  1.0000
  C   C5        1.0  0.47104704865029917  0.542986853814547  0.28034613633871786  1.0000
  C   C6        1.0  0.4583203656189984  0.48890764686811955  0.4074351216097632  1.0000
  C   C7        1.0  0.520480031657141  0.4536848762161563  0.49047591570642785  1.0000
  C   C8        1.0  0.38054528332965076  0.4693234189419635  0.4531990644029902  1.0000
  C   C9        1.0  0.3617508909575133  0.496569831977395  0.580239970861794  1.0000
  C   C10       1.0  0.28851457628531324  0.4781399668744534  0.6231841616111088  1.0000
  C   C11       1.0  0.23312955254699066  0.4322098150469831  0.5399254156666318  1.0000
  C   C12       1.0  0.1577563897064941  0.4132277904343146  0.5842705430756308  1.0000
  N   N2        1.0  0.0971617043807618  0.39796751924475077  0.6199209748655509  1.0000
  C   C13       1.0  0.25123236569256885  0.40479474755180345  0.41342747981754235  1.0000
  C   C14       1.0  0.3244158543902038  0.4232392767519624  0.37022740513372465  1.0000
  H   H1        1.0  0.6620276107420505  0.5410396717742052  0.28606251858696674  1.0000
  H   H2        1.0  0.5534690064768216  0.6035088377801394  0.13966259053436136  1.0000
  H   H3        1.0  0.42441968832464266  0.572591149691416  0.2147546865213874  1.0000
  H   H4        1.0  0.5119626021176291  0.41024898766715573  0.5881314647304541  1.0000
  H   H5        1.0  0.4034269485126075  0.533780053909918  0.6458099969324829  1.0000
  H   H6        1.0  0.275064855739198  0.5000319182732337  0.7211903299639735  1.0000
  H   H7        1.0  0.20883960546530542  0.3688519984464451  0.34827033089543846  1.0000
  H   H8        1.0  0.3373368838519197  0.39981192812059785  0.27252465376005164  1.0000
  C   C15       1.0  0.9024275215981032  0.020625075668982532  0.610633639144119  1.0000
  C   C16       1.0  0.880637784697645  0.030194245962586352  0.4781790052970494  1.0000
  C   C17       1.0  0.8696656643782825  0.9179054224637258  0.4110314032636244  1.0000
  C   C18       1.0  0.8807752982376441  0.794909759977394  0.47811703841521846  1.0000
  C   C19       1.0  0.902563675558052  0.7833493262163883  0.6105721576944079  1.0000
  C   C20       1.0  0.9132681373505571  0.8967639469982592  0.6760886193767877  1.0000
  C   C21       1.0  0.8466137163294307  0.9290824476029476  0.27090210421485805  1.0000
  C   C22       1.0  0.7919160683771626  0.02137173687433114  0.223094966881471  1.0000
  C   C23       1.0  0.7702517874618066  0.0317616611953071  0.09120575257328367  1.0000
  C   C24       1.0  0.8028751368349717  0.9502893214014551  0.005023889261864591  1.0000
  C   C25       1.0  0.8573926117305414  0.858201455243092  0.05193183423874959  1.0000
  C   C26       1.0  0.8791170771738871  0.8475542479494556  0.18379395796163991  1.0000
  N   N3        1.0  0.7806833752132841  0.9610489208364232  0.870124891909188  1.0000
  H   H9        1.0  0.9106984680295772  0.34443170504782666  0.6611205973969918  1.0000
  H   H10       1.0  0.8731439319190638  0.12523237169830015  0.4264676072559333  1.0000
  H   H11       1.0  0.8713955503980227  0.7080530337814934  0.4272554220215812  1.0000
  H   H12       1.0  0.9300773613005833  0.8886137412709283  0.7782714750006611  1.0000
  H   H13       1.0  0.9108987212448304  0.45149114261512474  0.6610305644488756  1.0000
  H   H14       1.0  0.7651844728430798  0.08436400236300345  0.2880181762656313  1.0000
  H   H15       1.0  0.7279004000661591  0.10310425308483649  0.05626559188064118  1.0000
  H   H16       1.0  0.883195199269491  0.7948825450466908  0.9862748533152557  1.0000
  H   H17       1.0  0.9220445524880992  0.77670939740106  0.21732216149824457  1.0000
  H   H18       1.0  0.8046827127793597  0.9007289517593131  0.8051344317989894  1.0000
  H   H19       1.0  0.7400905055386912  0.029414696211691453  0.8342457837223329  1.0000
  C   C27       1.0  0.9025391106150302  0.4018175487817692  0.22923404313310414  1.0000
  C   C28       1.0  0.8300635619224019  0.457268881303029  0.2208495178867118  1.0000
  C   C29       1.0  0.7932721844247022  0.4855587192589825  0.09944027508046172  1.0000
  C   C30       1.0  0.8299329408081034  0.4576491752236227  0.9855308938657187  1.0000
  C   C31       1.0  0.9024520814234751  0.40215679719254616  0.9919718213869166  1.0000
  C   C32       1.0  0.9383094586945143  0.37458453744264997  0.11422861341241199  1.0000
  C   C33       1.0  0.7166018314203821  0.5442198244047971  0.09161587036030205  1.0000
  C   C34       1.0  0.6975378055088446  0.6444260686346126  0.9953891175246206  1.0000
  C   C35       1.0  0.6253632806580586  0.6995989447589956  0.9881524698025285  1.0000
  C   C36       1.0  0.5713059975979113  0.6553936009915069  0.07679541454693206  1.0000
  C   C37       1.0  0.58968924358938  0.5557597692529697  0.17282741851112426  1.0000
  C   C38       1.0  0.6618421997395072  0.5004997464115439  0.18031260594544385  1.0000
  C   C39       1.0  0.49701268424035516  0.7122400033408154  0.06921777560137277  1.0000
  C   C40       1.0  0.43479308262003724  0.7598480075446867  0.06287152479836688  1.0000
  C   C41       1.0  0.3619345761261023  0.8155965522520334  0.05544012963908185  1.0000
  C   C42       1.0  0.2997250293580187  0.8631971006378082  0.04909501090030433  1.0000
  H   H20       1.0  0.930400325076036  0.3804263568390978  0.5599387746368285  1.0000
  H   H21       1.0  0.8024640579965422  0.4802338185946033  0.30882948589260084  1.0000
  H   H22       1.0  0.8014301160094733  0.47761742291570886  0.8917911168163976  1.0000
  H   H23       1.0  0.9942108022761861  0.3318099645641053  0.11998029570250446  1.0000
  H   H24       1.0  0.039139277532495464  0.29666341223303494  0.796885634416651  1.0000
  H   H25       1.0  0.738729678781655  0.6812763624605704  0.9268122519612247  1.0000
  H   H26       1.0  0.6117908109252052  0.7769285872731817  0.9136431116295931  1.0000
  H   H27       1.0  0.6745267253977679  0.4224268268607083  0.25438648619741255  1.0000
  H   H28       1.0  0.2450999110087995  0.9049942498301946  0.04352348015219865  1.0000
  Zn  Zn1       1.0  0.8201772513485599  0.4036906203713572  0.6066621280116536  1.0000
  Zn  Zn2       1.0  0.9848067580831791  0.4002832969244179  0.6145427754011357  1.0000
  C   C43       1.0  0.9024659397234511  0.3969190909470279  0.8477983693583419  1.0000
  C   C44       1.0  0.9025198677353603  0.40705642780942214  0.3734067474453291  1.0000
  C   C45       1.0  0.9025346675153034  0.6391759781476762  0.6054084615944326  1.0000
  C   C46       1.0  0.9024510834805257  0.16479798150705016  0.6157967218844219  1.0000
  O   O1        1.0  0.9649894484696323  0.4075159162635147  0.42478308911674256  1.0000
  O   O2        1.0  0.9649463452010247  0.39387254295263247  0.8024028829426884  1.0000
  O   O3        1.0  0.9650010014011653  0.5894980611554403  0.606671277049583  1.0000
  O   O4        1.0  0.9649347361053608  0.21189040847025775  0.6205145949453099  1.0000
  O   O5        1.0  0.8400492171464085  0.5920835099896802  0.6006903057713702  1.0000
  O   O6        1.0  0.8399945612292808  0.3964595520527591  0.7964218422931836  1.0000
  O   O7        1.0  0.8400376647179106  0.41010287941228335  0.4188004870727331  1.0000
  O   O8        1.0  0.8399829523378002  0.21447736237363868  0.6145320902697298  1.0000
