data_image0
_chemical_formula_structural       NC9NC4H8C7F3H5C8NH7Zn2C4O8
_chemical_formula_sum              "N3 C32 H20 F3 Zn2 O8"
_cell_length_a       16.32274767691083
_cell_length_b       9.272718291674593
_cell_length_c       9.274266800404108
_cell_angle_alpha    86.41389872873008
_cell_angle_beta     89.02225532851281
_cell_angle_gamma    89.10298441660798

_space_group_name_H-M_alt    "P 1"
_space_group_IT_number       1

loop_
  _space_group_symop_operation_xyz
  'x, y, z'

loop_
  _atom_site_type_symbol
  _atom_site_label
  _atom_site_symmetry_multiplicity
  _atom_site_fract_x
  _atom_site_fract_y
  _atom_site_fract_z
  _atom_site_occupancy
  N   N1        1.0  0.7720024138542352  0.5556985021966245  0.409877284128999  1.0000
  C   C1        1.0  0.7201695737120116  0.5025735692095608  0.3492054501831787  1.0000
  C   C2        1.0  0.6557403019122439  0.43659198874444716  0.27385054735655534  1.0000
  C   C3        1.0  0.6681470955499804  0.346340925225773  0.17077368532045623  1.0000
  C   C4        1.0  0.5891982411408467  0.30229795723260655  0.12047557694181132  1.0000
  C   C5        1.0  0.5296552663901112  0.3667538881004382  0.19409402014156574  1.0000
  C   C6        1.0  0.4398789667512014  0.3497187943786957  0.1746412442475136  1.0000
  C   C7        1.0  0.38357214896310265  0.42484628283099163  0.2604400867182859  1.0000
  C   C8        1.0  0.2990013928785244  0.410287270851961  0.2438145136618863  1.0000
  C   C9        1.0  0.24226079922459093  0.4877243100616768  0.3322501182512249  1.0000
  N   N2        1.0  0.19666042583461563  0.5499709438428768  0.4033373688697055  1.0000
  C   C10       1.0  0.2696855628839891  0.32047927142294275  0.14125203131825326  1.0000
  C   C11       1.0  0.32466951895207286  0.24545129766760043  0.05556721455089785  1.0000
  C   C12       1.0  0.4090851903520002  0.25961815584973547  0.07174479766283402  1.0000
  C   C13       1.0  0.566519948692129  0.46073770144648285  0.3014312202280318  1.0000
  H   H1        1.0  0.7273867437424558  0.3112465236199874  0.13068944791387493  1.0000
  H   H2        1.0  0.5816010310927541  0.22853587395930067  0.03623078099615018  1.0000
  H   H3        1.0  0.4050210833802693  0.4949565673278309  0.34050751285518044  1.0000
  H   H4        1.0  0.2044073043218964  0.3084856635525082  0.12755625690886574  1.0000
  H   H5        1.0  0.3018185231562105  0.17597643871925592  0.9762257408807176  1.0000
  H   H6        1.0  0.4494344372690185  0.19960060967175178  0.003202897540290019  1.0000
  H   H7        1.0  0.5494030580614578  0.4230088476003744  0.4138167101841379  1.0000
  H   H8        1.0  0.5493596077597058  0.5760937685768377  0.2777047943658886  1.0000
  C   C14       1.0  0.9861341024925802  0.12940385073649407  0.4033951579873569  1.0000
  C   C15       1.0  0.936632911367982  0.2106378438238268  0.3045342103425168  1.0000
  C   C16       1.0  0.8812828383722907  0.14319161766219216  0.21713767800291794  1.0000
  C   C17       1.0  0.8776187853822435  0.9920154972843359  0.22562195430263787  1.0000
  C   C18       1.0  0.9271952153911684  0.9097980565590935  0.32136236693512643  1.0000
  C   C19       1.0  0.982536566038371  0.9762544379227497  0.4098318096094913  1.0000
  C   C20       1.0  0.830332325349699  0.23197378690824588  0.1091280709340343  1.0000
  F   F1        1.0  0.8090423743586277  0.3640726308561616  0.16184664703534812  1.0000
  F   F2        1.0  0.758940368527959  0.16131064483735824  0.0801096947319766  1.0000
  F   F3        1.0  0.8751014122851554  0.2552061902604503  0.9821645262674589  1.0000
  H   H9        1.0  0.08203204957667731  0.2091340935451558  0.7130244893968518  1.0000
  H   H10       1.0  0.9399337113875428  0.3275118935719261  0.29777396631502223  1.0000
  H   H11       1.0  0.8369725770160635  0.9369518199354577  0.15692671910181488  1.0000
  H   H12       1.0  0.9238421899468829  0.7930887203896194  0.32335353798957644  1.0000
  H   H13       1.0  0.1576629961196887  0.8592784062887714  0.5806385057535886  1.0000
  C   C21       1.0  0.9862333413756393  0.5496510557193044  0.9832497485773737  1.0000
  C   C22       1.0  0.9390547395207599  0.44707126562942495  0.06434799997375351  1.0000
  C   C23       1.0  0.8868701178963982  0.35577250205565825  0.9965613437316198  1.0000
  C   C24       1.0  0.8801176570666015  0.36566349620647864  0.8460413204959458  1.0000
  C   C25       1.0  0.9284357996354965  0.46478085470472613  0.7635932927181663  1.0000
  C   C26       1.0  0.9824373177811161  0.5560072364966331  0.8299771359071233  1.0000
  C   C27       1.0  0.8247339956687285  0.2657056729053842  0.7730535774909066  1.0000
  C   C28       1.0  0.869665913444248  0.13328316020458233  0.7401531970144704  1.0000
  N   N3        1.0  0.9051335850118456  0.028771146156125305  0.714184296225802  1.0000
  H   H14       1.0  0.07515025537132942  0.8657811223142825  0.06370695629689038  1.0000
  H   H15       1.0  0.9411784919169224  0.43957526961998417  0.18127304503972508  1.0000
  H   H16       1.0  0.8510410814447656  0.2780902359774302  0.06176807265828876  1.0000
  H   H17       1.0  0.9252307580043512  0.468113906751561  0.646776446758266  1.0000
  H   H18       1.0  0.045291396205793255  0.7660068393161107  0.5342580421787542  1.0000
  H   H19       1.0  0.8011373476455987  0.31881812505602025  0.6710457770521456  1.0000
  H   H20       1.0  0.7711182892869061  0.23680394690809206  0.8438176057660907  1.0000
  Zn  Zn1       1.0  0.8945495283152496  0.5540418450692954  0.4079983022977405  1.0000
  Zn  Zn2       1.0  0.07411331486214423  0.5516158572812222  0.40522807149088225  1.0000
  C   C29       1.0  0.9831774400333829  0.5490615153571743  0.6698839263079182  1.0000
  C   C30       1.0  0.9854873556118018  0.5565979809100017  0.14334257256060212  1.0000
  C   C31       1.0  0.9832381268365407  0.8161385858552235  0.4028701320452126  1.0000
  C   C32       1.0  0.9854266145508915  0.2895191794253602  0.41035643146422  1.0000
  O   O1        1.0  0.053380543888133625  0.5580024921153881  0.19601985078857576  1.0000
  O   O2        1.0  0.05156901740451647  0.5458146446607618  0.6151036837160662  1.0000
  O   O3        1.0  0.05161709743771014  0.7614827804025237  0.39948818124966357  1.0000
  O   O4        1.0  0.05333240302277975  0.3423343667048504  0.4116352461814989  1.0000
  O   O5        1.0  0.9153303788783338  0.7633233364750509  0.40159112854489654  1.0000
  O   O6        1.0  0.9152822918266119  0.5476569325492642  0.6172065673081593  1.0000
  O   O7        1.0  0.917093826348976  0.5598447167440759  0.19812100066212343  1.0000
  O   O8        1.0  0.9170456850395016  0.34417658183169736  0.4137365040662986  1.0000
