data_image0
_chemical_formula_structural       NC9NC5H8C7F3H5C7OH5Zn2C4O8
_chemical_formula_sum              "N2 C32 H18 F3 O9 Zn2"
_cell_length_a       17.807436237873137
_cell_length_b       9.27228830945605
_cell_length_c       9.274081674992354
_cell_angle_alpha    85.76911069333654
_cell_angle_beta     89.07685020002327
_cell_angle_gamma    87.81380667828488

_space_group_name_H-M_alt    "P 1"
_space_group_IT_number       1

loop_
  _space_group_symop_operation_xyz
  'x, y, z'

loop_
  _atom_site_type_symbol
  _atom_site_label
  _atom_site_symmetry_multiplicity
  _atom_site_fract_x
  _atom_site_fract_y
  _atom_site_fract_z
  _atom_site_occupancy
  N   N1        1.0  0.7042622815459968  0.5280351661326951  0.39066536593326684  1.0000
  C   C1        1.0  0.6439154227005117  0.4888078631434894  0.37863133210370997  1.0000
  C   C2        1.0  0.5688505629828756  0.4400134179894135  0.3636623003501225  1.0000
  C   C3        1.0  0.5515266841776765  0.35957052886278573  0.24753060507209912  1.0000
  C   C4        1.0  0.47864349533834527  0.3120701105651065  0.2329055670209561  1.0000
  C   C5        1.0  0.42203775894284523  0.34459260099279776  0.33437836470098725  1.0000
  C   C6        1.0  0.3445807756101799  0.2942404568849848  0.3189261724334618  1.0000
  C   C7        1.0  0.28184416817182323  0.3853804121880231  0.3472478219938351  1.0000
  C   C8        1.0  0.2088198020369214  0.33765443967325215  0.3326391286623944  1.0000
  C   C9        1.0  0.1450163167852928  0.4317897096873791  0.3613492826152271  1.0000
  N   N2        1.0  0.09373133916522289  0.5074679651572627  0.38443147347505846  1.0000
  C   C10       1.0  0.19795007551440494  0.19850149170597156  0.2896821251743875  1.0000
  C   C11       1.0  0.2598294215505163  0.10734605385827956  0.26135124328159787  1.0000
  C   C12       1.0  0.3327373206987324  0.15463142012369913  0.275737399562614  1.0000
  C   C13       1.0  0.4400494437453962  0.4255872282646822  0.4507505516790142  1.0000
  C   C14       1.0  0.5129871303672511  0.47287443799257  0.46520392525146675  1.0000
  H   H1        1.0  0.5942938267007958  0.333852813193499  0.1680670395078201  1.0000
  H   H2        1.0  0.4663213751004331  0.25156140409860944  0.1411811732608781  1.0000
  H   H3        1.0  0.2896806397552525  0.4940114329726986  0.37874062571011197  1.0000
  H   H4        1.0  0.1417176033534113  0.1605609255046032  0.2781176771388689  1.0000
  H   H5        1.0  0.2512939190149232  0.9996145219884667  0.22852144792689844  1.0000
  H   H6        1.0  0.3798225735266202  0.08135860633719472  0.25497184781797655  1.0000
  H   H7        1.0  0.3979979252465627  0.45071881306816836  0.5316539273339538  1.0000
  H   H8        1.0  0.5258340622679665  0.5347294064798809  0.5557652691321018  1.0000
  C   C15       1.0  0.9012050297820969  0.09383020385877483  0.38973443508967853  1.0000
  C   C16       1.0  0.9372578017897866  0.17291844722913297  0.2753155761193449  1.0000
  C   C17       1.0  0.9659043056154492  0.10472695827681333  0.15599005671430355  1.0000
  C   C18       1.0  0.9582356782029993  0.9558448833175034  0.14689981108125094  1.0000
  C   C19       1.0  0.9249186594050555  0.8749461160276848  0.26310951250517833  1.0000
  C   C20       1.0  0.8967958068277152  0.94166160637891  0.38537488246654905  1.0000
  C   C21       1.0  0.991103842604436  0.8814363087008611  0.019771147465071026  1.0000
  F   F1        1.0  0.9908287535177926  0.9749471955596334  0.8963055145284513  1.0000
  F   F2        1.0  0.9498047875067397  0.7630185643398277  0.9929573159569148  1.0000
  F   F3        1.0  0.06429170278148666  0.8352930559616839  0.04981208669630033  1.0000
  H   H9        1.0  0.7740705024614182  0.18543787650316862  0.6510224653225182  1.0000
  H   H10       1.0  0.9419935532213779  0.2889459602901805  0.2767311804755159  1.0000
  H   H11       1.0  0.9935468578947728  0.16898000771812005  0.07001896458998735  1.0000
  H   H12       1.0  0.9225272271671697  0.7586046212788798  0.2599068386032062  1.0000
  H   H13       1.0  0.8607345794196333  0.8169985982852461  0.7350121680339865  1.0000
  C   C22       1.0  0.9002883772900402  0.5138946715853727  0.9642840767203377  1.0000
  C   C23       1.0  0.9609955794488321  0.5734980601165864  0.031510187231694964  1.0000
  C   C24       1.0  0.017391605666291714  0.6439759598097377  0.9497406254176366  1.0000
  C   C25       1.0  0.013063150094152707  0.6552427666078252  0.7986295114330728  1.0000
  C   C26       1.0  0.9539350164481338  0.5947331073845561  0.7301796000148935  1.0000
  C   C27       1.0  0.8977124447492782  0.5215971085206539  0.8108251739572373  1.0000
  C   C28       1.0  0.07983615992613524  0.7063605290761508  0.02384276203730672  1.0000
  O   O1        1.0  0.13120521675242064  0.7708865069588116  0.9533293846455301  1.0000
  H   H14       1.0  0.7227172148768464  0.42952220861521  0.07898507657995513  1.0000
  H   H15       1.0  0.05579734386761626  0.7096674276047603  0.7330413869668924  1.0000
  H   H16       1.0  0.9531991690574231  0.6022285834955172  0.6130786452064609  1.0000
  H   H17       1.0  0.7793772488844  0.45879763866053125  0.537995793424284  1.0000
  H   H18       1.0  0.08207476658636947  0.6970674281117037  0.14076207449278422  1.0000
  Zn  Zn1       1.0  0.8166546320540566  0.5220961401190523  0.38887475505205127  1.0000
  Zn  Zn2       1.0  0.9813389956001162  0.5133953316312092  0.386233994533981  1.0000
  C   C29       1.0  0.898227578338277  0.5143903346965701  0.6508404127976435  1.0000
  C   C30       1.0  0.8997678377608702  0.5211028647815856  0.12426844005680193  1.0000
  C   C31       1.0  0.8976428379115687  0.7813513524604324  0.3804551964640714  1.0000
  C   C32       1.0  0.9003525307784115  0.25414011628810673  0.39465374305580814  1.0000
  O   O2        1.0  0.962090030398649  0.5202137908767064  0.17695853139763074  1.0000
  O   O3        1.0  0.9608970140213975  0.5086746034690879  0.5961456360053683  1.0000
  O   O4        1.0  0.9604239816837039  0.7242490596443348  0.3778076665871448  1.0000
  O   O5        1.0  0.9625630068158755  0.30463934701393036  0.39529639359047697  1.0000
  O   O6        1.0  0.8354305646396214  0.7308521277069933  0.37981235688912757  1.0000
  O   O7        1.0  0.8359035881878064  0.5152794052320235  0.5981502405354895  1.0000
  O   O8        1.0  0.8370966101498603  0.5268185265637888  0.17896140323117216  1.0000
  O   O9        1.0  0.8375695862888778  0.3112440733592033  0.3972993735429682  1.0000
