data_image0
_chemical_formula_structural       NC8NC6H8C6NH6C7F3H3Zn2C4O8
_chemical_formula_sum              "N3 C31 H17 F3 Zn2 O8"
_cell_length_a       17.457602349358154
_cell_length_b       9.274771166103582
_cell_length_c       9.272291681409872
_cell_angle_alpha    85.95122569860638
_cell_angle_beta     93.27365386630078
_cell_angle_gamma    92.29117059398062

_space_group_name_H-M_alt    "P 1"
_space_group_IT_number       1

loop_
  _space_group_symop_operation_xyz
  'x, y, z'

loop_
  _atom_site_type_symbol
  _atom_site_label
  _atom_site_symmetry_multiplicity
  _atom_site_fract_x
  _atom_site_fract_y
  _atom_site_fract_z
  _atom_site_occupancy
  N   N1        1.0  0.7254984332618574  0.6004833590184626  0.4726046253620304  1.0000
  C   C1        1.0  0.6640914924124549  0.5493548756454796  0.46088428091512723  1.0000
  C   C2        1.0  0.587698751176757  0.48575748567819693  0.4463147600920152  1.0000
  C   C3        1.0  0.529739389684598  0.5311203889058482  0.5294274868693642  1.0000
  C   C4        1.0  0.45480044191219743  0.4698824957872292  0.5155371413166243  1.0000
  C   C5        1.0  0.3932830028861797  0.5177814066251256  0.6035568611352791  1.0000
  C   C6        1.0  0.31861104924314343  0.5377468506206045  0.5416051724226019  1.0000
  C   C7        1.0  0.2606510129224969  0.5829064822105803  0.6248380527542992  1.0000
  C   C8        1.0  0.18453513689627046  0.6035230596800433  0.5604252392396394  1.0000
  N   N2        1.0  0.12335085035033821  0.6200917015811174  0.5086375143840542  1.0000
  C   C9        1.0  0.2768744502719726  0.6083758449594976  0.7705869593129242  1.0000
  C   C10       1.0  0.3507657639485588  0.588846411752051  0.8329684902769465  1.0000
  C   C11       1.0  0.4087172707330513  0.5438913612956875  0.7502436328909279  1.0000
  C   C12       1.0  0.4390991717423057  0.3625148705914946  0.4169438464168349  1.0000
  C   C13       1.0  0.49705025153543814  0.31746554977735925  0.33427490143810235  1.0000
  C   C14       1.0  0.5712074870601346  0.3788337472861578  0.3487757883365332  1.0000
  H   H1        1.0  0.5428334485937933  0.6153225992542996  0.6033078844236389  1.0000
  H   H2        1.0  0.3057358664139003  0.5201029040330969  0.428331263272381  1.0000
  H   H3        1.0  0.23245655316877137  0.643270325538872  0.8358771121580497  1.0000
  H   H4        1.0  0.36313524818116377  0.6082172266577603  0.9458255877656963  1.0000
  H   H5        1.0  0.4653081948411232  0.527692651281447  0.8014661896990336  1.0000
  H   H6        1.0  0.3822889934471195  0.3120411539456977  0.40518251915708325  1.0000
  H   H7        1.0  0.4844717514097232  0.23449185015883442  0.2590621340775774  1.0000
  H   H8        1.0  0.615622253406268  0.3429780962651716  0.28405452112801477  1.0000
  C   C15       1.0  0.9220744582436816  0.18658200659978674  0.49119401894224834  1.0000
  C   C16       1.0  0.9039106670688769  0.2678679861736979  0.3606268786456257  1.0000
  C   C17       1.0  0.8929113396086849  0.20114177815413758  0.22989065825894126  1.0000
  C   C18       1.0  0.9001124174908628  0.051745703246633086  0.2287851751144709  1.0000
  C   C19       1.0  0.916849775045125  0.9690545038284369  0.3574521131366313  1.0000
  C   C20       1.0  0.9267821595707032  0.0339824304291474  0.49006130329043107  1.0000
  N   N3        1.0  0.8752137353378548  0.28553783935164456  0.09794881151162493  1.0000
  H   H9        1.0  0.009690960150967829  0.2733200279350451  0.8146412888298831  1.0000
  H   H10       1.0  0.9000377414021197  0.3842649721423522  0.35972233028960066  1.0000
  H   H11       1.0  0.8920128887276633  0.9989862425134513  0.12822975105014112  1.0000
  H   H12       1.0  0.9202170265189058  0.8530203335630223  0.35362822635482183  1.0000
  H   H13       1.0  0.8699242686864286  0.39735063757783773  0.09742292763296678  1.0000
  H   H14       1.0  0.8671956422476691  0.23682033590370996  0.9997716509463367  1.0000
  C   C21       1.0  0.9227918684119816  0.606498868010779  0.06712554068239673  1.0000
  C   C22       1.0  0.9739175247243519  0.5182367442401958  0.15214236297821393  1.0000
  C   C23       1.0  0.029286538032443635  0.44310917660978427  0.08850331692817814  1.0000
  C   C24       1.0  0.03576143915614117  0.45600406422569995  0.9381742548096934  1.0000
  C   C25       1.0  0.9830795858691697  0.5394107197957649  0.8518550874333473  1.0000
  C   C26       1.0  0.9260647258054525  0.6140655686957643  0.9141297102624429  1.0000
  C   C27       1.0  0.09421327112458443  0.37152550614078117  0.8690435926328907  1.0000
  F   F1        1.0  0.1583571358707507  0.35033109696232134  0.961816972746829  1.0000
  F   F2        1.0  0.1175918451971616  0.44486400416633853  0.7429556763808867  1.0000
  F   F3        1.0  0.06185398920634122  0.2384851670556789  0.8363957149019403  1.0000
  H   H15       1.0  0.8163056584428958  0.8927340979718982  0.13703544104915477  1.0000
  H   H16       1.0  0.06757407211057001  0.37574543258436066  0.15731175040514822  1.0000
  H   H17       1.0  0.7528585431147847  0.743712103896964  0.7848460572441933  1.0000
  Zn  Zn1       1.0  0.8403100574603468  0.6061381081793502  0.48301127084331763  1.0000
  Zn  Zn2       1.0  0.008539191805354125  0.6144252280351428  0.49824269191273257  1.0000
  C   C28       1.0  0.9254124487248427  0.6068871615684468  0.7540353458643934  1.0000
  C   C29       1.0  0.9234386482585732  0.6136780869329526  0.22721892233353905  1.0000
  C   C30       1.0  0.9258661364682712  0.8737541462951155  0.4845281085263449  1.0000
  C   C31       1.0  0.9229848937769386  0.34680936654923816  0.49672623367944757  1.0000
  O   O1        1.0  0.9874977582639777  0.6192261224716737  0.28672797701773134  1.0000
  O   O2        1.0  0.9890353514789271  0.6076277660564497  0.7060861736476998  1.0000
  O   O3        1.0  0.9894008552420537  0.8231262022181953  0.488457092761764  1.0000
  O   O4        1.0  0.9871321967351543  0.40372769283765614  0.5043569445599114  1.0000
  O   O5        1.0  0.8617169951221789  0.8168356405503524  0.47689701299081494  1.0000
  O   O6        1.0  0.8613515006888908  0.6013389372191684  0.6945260146635668  1.0000
  O   O7        1.0  0.8598139005457804  0.6129372278672365  0.2751660842030321  1.0000
  O   O8        1.0  0.8594483393742864  0.3974387888790074  0.49279515988364375  1.0000
