data_image0
_chemical_formula_structural       NC9NC4H8C6SCNH4C6NO2H3Zn2C4O8
_chemical_formula_sum              "N4 C30 H15 S1 O10 Zn2"
_cell_length_a       16.32274767691083
_cell_length_b       10.302215558581764
_cell_length_c       9.273395971720356
_cell_angle_alpha    84.96984654489938
_cell_angle_beta     89.35243876569035
_cell_angle_gamma    89.54366289277024

_space_group_name_H-M_alt    "P 1"
_space_group_IT_number       1

loop_
  _space_group_symop_operation_xyz
  'x, y, z'

loop_
  _atom_site_type_symbol
  _atom_site_label
  _atom_site_symmetry_multiplicity
  _atom_site_fract_x
  _atom_site_fract_y
  _atom_site_fract_z
  _atom_site_occupancy
  N   N1        1.0  0.7735487809045906  0.42670209567350675  0.3959336861791438  1.0000
  C   C1        1.0  0.7212783571793511  0.37984112688850025  0.33557410634341833  1.0000
  C   C2        1.0  0.656305603119747  0.32163943894491087  0.26060702553515736  1.0000
  C   C3        1.0  0.6679689937811387  0.2420299612809351  0.15806062823683598  1.0000
  C   C4        1.0  0.5886573681170953  0.2031800768578944  0.10802139486764005  1.0000
  C   C5        1.0  0.5296453288592416  0.2600359088795443  0.18126099185182348  1.0000
  C   C6        1.0  0.43972872098062  0.24500938671090375  0.16190834697010636  1.0000
  C   C7        1.0  0.3840407150580868  0.31127860796299034  0.24726560847252774  1.0000
  C   C8        1.0  0.2993500438088119  0.29843622276561654  0.23072561178612117  1.0000
  C   C9        1.0  0.24324728255528216  0.36674268976399965  0.3187060592293906  1.0000
  N   N2        1.0  0.1981596200275864  0.4216498531144505  0.3894274378210775  1.0000
  C   C10       1.0  0.2692944883284212  0.2192174320801088  0.12869100190623017  1.0000
  C   C11       1.0  0.3236604534730032  0.15303598569381105  0.04344718171968198  1.0000
  C   C12       1.0  0.4081928094897499  0.16553245802627647  0.059541493255467204  1.0000
  C   C13       1.0  0.5672841513583231  0.3429380510042226  0.2880457832713368  1.0000
  H   H1        1.0  0.7269195591403272  0.21107361300249836  0.11818266012080092  1.0000
  H   H2        1.0  0.5804525750498423  0.13811535190973334  0.02421014681026223  1.0000
  H   H3        1.0  0.4060671303219865  0.3731222278773955  0.3269209413235934  1.0000
  H   H4        1.0  0.20391744536971704  0.20863796476602858  0.11506572504461254  1.0000
  H   H5        1.0  0.3002372116187734  0.09175286407879768  0.96451406684313  1.0000
  H   H6        1.0  0.448047704927552  0.11259155688894952  0.9913523626100882  1.0000
  H   H7        1.0  0.5503768172006337  0.3071440432556303  0.4008746714675  1.0000
  H   H8        1.0  0.5505536737757072  0.44720617502253557  0.2634196931682779  1.0000
  C   C14       1.0  0.9857767905050855  0.042905036702840745  0.39264200599975907  1.0000
  C   C15       1.0  0.06783997748931636  0.03743151224795538  0.4368103029422652  1.0000
  C   C16       1.0  0.10867764454914151  0.9176626727628114  0.45924687381527524  1.0000
  C   C17       1.0  0.06805280203873963  0.8022526263663818  0.4369292794439161  1.0000
  C   C18       1.0  0.9859394187174888  0.8054366430254448  0.39273145013734756  1.0000
  C   C19       1.0  0.9452430814955258  0.9262728315288106  0.3708865616422017  1.0000
  S   S1        1.0  0.21352254387083117  0.9121991606921156  0.5150336236520783  1.0000
  C   C20       1.0  0.18628800650746458  0.8979576750550826  0.7004435896051839  1.0000
  N   N3        1.0  0.16840842694842606  0.8886218534299418  0.8219960650781816  1.0000
  H   H9        1.0  0.10034993241272194  0.12585022091721615  0.4542254142804926  1.0000
  H   H10       1.0  0.10070863922767015  0.7103870608433042  0.45442601708685587  1.0000
  H   H11       1.0  0.8819525810315303  0.929644382652747  0.3368424578380931  1.0000
  H   H12       1.0  0.8311910264653658  0.6042319705814816  0.30927472786915866  1.0000
  C   C21       1.0  0.9863252179653051  0.4281539161146344  0.968743357043083  1.0000
  C   C22       1.0  0.9133070067852088  0.45865738991796423  0.040452475587839924  1.0000
  C   C23       1.0  0.8400568424096917  0.4768869363751955  0.9651475449888255  1.0000
  C   C24       1.0  0.8377467664509834  0.46498638134291737  0.8158868653903131  1.0000
  C   C25       1.0  0.9107216689368717  0.4367081334824765  0.7427410008171629  1.0000
  C   C26       1.0  0.9853909962939497  0.42018778852030536  0.8166301589652678  1.0000
  N   N4        1.0  0.761796765501729  0.48281536810865433  0.7389151672467837  1.0000
  O   O1        1.0  0.690601052826046  0.5115654259599554  0.8107840449901018  1.0000
  O   O2        1.0  0.7591852000430429  0.47214655272250267  0.6059583512916471  1.0000
  H   H13       1.0  0.16557526908332298  0.2805679371131835  0.08240115195265128  1.0000
  H   H14       1.0  0.7849214548178843  0.49907197185646784  0.024377953805527548  1.0000
  H   H15       1.0  0.1076086591301395  0.32460221393259325  0.5432968144564918  1.0000
  Zn  Zn1       1.0  0.8960822932544144  0.4252405645937203  0.3940644602938742  1.0000
  Zn  Zn2       1.0  0.07562609854674229  0.4231006188477855  0.3913084893508916  1.0000
  C   C27       1.0  0.9855646695068538  0.41652123422935294  0.6563608002535948  1.0000
  C   C28       1.0  0.9861456831003959  0.4318215627107853  0.1290122611845801  1.0000
  C   C29       1.0  0.9859108215660969  0.6613560612928593  0.3869617311807497  1.0000
  C   C30       1.0  0.9857994693578567  0.18698517575316576  0.39841140798294394  1.0000
  O   O3        1.0  0.05422136675945041  0.4322346958707542  0.18175409221429728  1.0000
  O   O4        1.0  0.05375857995276956  0.41448295619721787  0.6015268353513561  1.0000
  O   O5        1.0  0.05403718195931462  0.61219017225393  0.3839851952894662  1.0000
  O   O6        1.0  0.05394270360801245  0.23452749084908553  0.39929562497252347  1.0000
  O   O7        1.0  0.9177656269236638  0.6138136933241638  0.3860773256051262  1.0000
  O   O8        1.0  0.917487025330935  0.4161080378933089  0.6036188888743821  1.0000
  O   O9        1.0  0.9179498140948571  0.4338597486293254  0.1838444100220682  1.0000
  O   O10       1.0  0.9176711508188322  0.23615253330435662  0.401386051016843  1.0000
