data_image0
_chemical_formula_structural       NC9NC5H8C6SCNH5C9H10Zn2C4O8
_chemical_formula_sum              "N3 C34 H23 S1 Zn2 O8"
_cell_length_a       17.807436237873137
_cell_length_b       10.302215558581764
_cell_length_c       9.272679976505534
_cell_angle_alpha    86.02649692228
_cell_angle_beta     89.80029134641114
_cell_angle_gamma    88.40943486361951

_space_group_name_H-M_alt    "P 1"
_space_group_IT_number       1

loop_
  _space_group_symop_operation_xyz
  'x, y, z'

loop_
  _atom_site_type_symbol
  _atom_site_label
  _atom_site_symmetry_multiplicity
  _atom_site_fract_x
  _atom_site_fract_y
  _atom_site_fract_z
  _atom_site_occupancy
  N   N1        1.0  0.7019194084369837  0.3760730438379422  0.39850423798951473  1.0000
  C   C1        1.0  0.6412809490633603  0.3408061342125308  0.38626298786281854  1.0000
  C   C2        1.0  0.5658533702757279  0.2969379823000236  0.37103620185241737  1.0000
  C   C3        1.0  0.5473285221429375  0.2247182102390004  0.2544693215064928  1.0000
  C   C4        1.0  0.4740918841834502  0.1820134989295692  0.23959335889364985  1.0000
  C   C5        1.0  0.4183311722679522  0.21115087504200503  0.341248209198844  1.0000
  C   C6        1.0  0.3404998556290936  0.16588229553617784  0.3255300336131077  1.0000
  C   C7        1.0  0.2784431340629168  0.24782034753000873  0.35433316607246335  1.0000
  C   C8        1.0  0.2050642061196965  0.20491275896192354  0.33947236628692923  1.0000
  C   C9        1.0  0.1419593756919038  0.2895443075158117  0.36867976629907706  1.0000
  N   N2        1.0  0.0912360762743297  0.3575822259791015  0.3921617087830136  1.0000
  C   C10       1.0  0.19315830309141285  0.079809007643463  0.2957802641562475  1.0000
  C   C11       1.0  0.2543576186083794  0.9978570412042315  0.2669678170763128  1.0000
  C   C12       1.0  0.3276162282115826  0.040368604240129224  0.28160374253889087  1.0000
  C   C13       1.0  0.4375483974585174  0.28386660256842466  0.45805850375743673  1.0000
  C   C14       1.0  0.5108372476988556  0.3263797489092328  0.47276166371929845  1.0000
  H   H1        1.0  0.5894325753299166  0.20167646760660096  0.17486188188301277  1.0000
  H   H2        1.0  0.460837583255486  0.12769503202098753  0.1475411314341577  1.0000
  H   H3        1.0  0.2870750428125732  0.3454860028962876  0.386399602413807  1.0000
  H   H4        1.0  0.13664428898167735  0.045698842558082875  0.2840154053353703  1.0000
  H   H5        1.0  0.2450227306812328  0.9010018539988559  0.2335689598364692  1.0000
  H   H6        1.0  0.3741680929464737  0.9744915200361478  0.26045132272727245  1.0000
  H   H7        1.0  0.396166289995743  0.3063795909927338  0.5391028387796004  1.0000
  H   H8        1.0  0.5246159763790905  0.38191030984548957  0.5636577762296844  1.0000
  C   C15       1.0  0.8965065719783252  0.9855585301598673  0.3952944650249033  1.0000
  C   C16       1.0  0.9719577153324751  0.9782337613075449  0.4394295853289798  1.0000
  C   C17       1.0  0.009507088962774413  0.8575511758132445  0.46184899439640853  1.0000
  C   C18       1.0  0.9721534124508159  0.7430501471055355  0.439548469468429  1.0000
  C   C19       1.0  0.8966561056263248  0.7480864992198606  0.39538384068362187  1.0000
  C   C20       1.0  0.8592390485649393  0.8698417128401763  0.3735553210327216  1.0000
  S   S1        1.0  0.10590140162651247  0.8497119296534913  0.5175942752495257  1.0000
  C   C21       1.0  0.08178239341762272  0.8393703026257259  0.7027297383277018  1.0000
  N   N3        1.0  0.06594738863904248  0.8325919634686837  0.8241022440398675  1.0000
  H   H9        1.0  0.8677963488114248  0.3156852234641421  0.3784279219551283  1.0000
  H   H10       1.0  0.001847879111975152  0.06591773072857321  0.4568316712168387  1.0000
  H   H11       1.0  0.0021777186989162503  0.6504466024672355  0.45703211824653306  1.0000
  H   H12       1.0  0.8010481212029269  0.8746413530598613  0.33953677544377037  1.0000
  H   H13       1.0  0.7543754207862546  0.550370007987986  0.31198991948821075  1.0000
  C   C22       1.0  0.8950577002638448  0.36382901011064406  0.9720009527479587  1.0000
  C   C23       1.0  0.946092308879156  0.2810923937669514  0.051426075238544255  1.0000
  C   C24       1.0  0.0008282757767699181  0.2087012264150807  0.9819249333828433  1.0000
  C   C25       1.0  0.006380565784683158  0.21666356044640533  0.830973219447102  1.0000
  C   C26       1.0  0.9544439292196437  0.29768090514710055  0.7501783032268192  1.0000
  C   C27       1.0  0.8981049913702328  0.36981606751056373  0.8186774418791045  1.0000
  C   C28       1.0  0.06812002231411829  0.13551934476422  0.7638097352540005  1.0000
  C   C29       1.0  0.050221344045257466  0.0769511233603304  0.6219943006500661  1.0000
  C   C30       1.0  0.1030810249891505  0.1906955581306713  0.6233286826095279  1.0000
  H   H14       1.0  0.7819673337140567  0.45698478845748425  0.24680481289317793  1.0000
  H   H15       1.0  0.9449018174667807  0.274599692213501  0.1685192828083557  1.0000
  H   H16       1.0  0.03970478515006892  0.1468528665986233  0.046916756415098515  1.0000
  H   H17       1.0  0.9561253810795897  0.30321385661008454  0.6333726828028574  1.0000
  H   H18       1.0  0.727584567580239  0.5000589956832926  0.7067674419108934  1.0000
  H   H19       1.0  0.10736992815599876  0.0752484695491029  0.8353495377936069  1.0000
  H   H20       1.0  0.994427652974463  0.10175741527731973  0.5732243212799304  1.0000
  H   H21       1.0  0.0793809559486187  0.9820958276541246  0.607213991545787  1.0000
  H   H22       1.0  0.07943279196315789  0.2845341764313145  0.5752519757055139  1.0000
  H   H23       1.0  0.16314357890207137  0.16230997922424978  0.6093242883331857  1.0000
  Zn  Zn1       1.0  0.8142678172067526  0.3707335878046565  0.3966822580087124  1.0000
  Zn  Zn2       1.0  0.9788876898869646  0.362911182417174  0.3939955390862555  1.0000
  C   C31       1.0  0.8975263053199563  0.36351212592516374  0.6586368343689117  1.0000
  C   C32       1.0  0.8956310002482141  0.3701341980670123  0.13204107507327945  1.0000
  C   C33       1.0  0.8966033180357252  0.6039120661718187  0.3896223451720473  1.0000
  C   C34       1.0  0.8965539313298619  0.12973270113932947  0.401055641862301  1.0000
  O   O1        1.0  0.9582957876076331  0.36927605040914835  0.18473240561692905  1.0000
  O   O2        1.0  0.9598041905945469  0.3584322664918042  0.6039059312272583  1.0000
  O   O3        1.0  0.9590580299272099  0.552558309130494  0.38667484178178535  1.0000
  O   O4        1.0  0.9590418917141474  0.17515001896317003  0.40196338788962427  1.0000
  O   O5        1.0  0.8341135592028593  0.5584947539294236  0.3887144101146063  1.0000
  O   O6        1.0  0.8348597198960688  0.36437027064252425  0.6059454228771848  1.0000
  O   O7        1.0  0.8333513107121119  0.3752139970573216  0.186770164029316  1.0000
  O   O8        1.0  0.8340974152027383  0.1810879570893944  0.40400125438405254  1.0000
