data_image0
_chemical_formula_structural       NC6NCNCH5C9H10C6OCH7Zn2C4O8
_chemical_formula_sum              "N3 C28 H22 O9 Zn2"
_cell_length_a       14.933214217465613
_cell_length_b       10.297183801781406
_cell_length_c       9.273891588657152
_cell_angle_alpha    86.04956984296379
_cell_angle_beta     89.64588733206324
_cell_angle_gamma    90.03175022610812

_space_group_name_H-M_alt    "P 1"
_space_group_IT_number       1

loop_
  _space_group_symop_operation_xyz
  'x, y, z'

loop_
  _atom_site_type_symbol
  _atom_site_label
  _atom_site_symmetry_multiplicity
  _atom_site_fract_x
  _atom_site_fract_y
  _atom_site_fract_z
  _atom_site_occupancy
  N   N1        1.0  0.8487100737827653  0.4095421594516721  0.4084895238075977  1.0000
  C   C1        1.0  0.7712232215994306  0.41043195204892297  0.40749861296768175  1.0000
  C   C2        1.0  0.6748290300132221  0.41154129506340364  0.40626306967640735  1.0000
  C   C3        1.0  0.6266771408999557  0.32604859228961836  0.5014908326327887  1.0000
  C   C4        1.0  0.5331474192774974  0.32701533075702804  0.5004140413783327  1.0000
  C   C5        1.0  0.48686704514324675  0.41342578901346494  0.40416405502878816  1.0000
  C   C6        1.0  0.39028430614950155  0.41154322103275276  0.40626099795886006  1.0000
  N   N2        1.0  0.3127926497508608  0.4099727403919242  0.4080099384612337  1.0000
  C   C7        1.0  0.5351218351230079  0.4999980325380963  0.3077339531153225  1.0000
  N   N3        1.0  0.49015420488775274  0.5898116957387621  0.20769347553328998  1.0000
  C   C8        1.0  0.6291286102330717  0.4981687774500587  0.30977162294287064  1.0000
  H   H1        1.0  0.6614165191102885  0.25864334538897954  0.5765714765104368  1.0000
  H   H2        1.0  0.49680796418699125  0.26017710625587953  0.5748629670802325  1.0000
  H   H3        1.0  0.5267527818109714  0.653246733568146  0.1370350443033897  1.0000
  H   H4        1.0  0.4204310350829255  0.5945905490648802  0.20237052587779503  1.0000
  H   H5        1.0  0.6665899261571588  0.5643344981216034  0.23607161339994143  1.0000
  C   C9        1.0  0.08075806878609426  0.02828353886975222  0.40845397589328836  1.0000
  C   C10       1.0  0.07867324795556857  0.03690873358089552  0.25677912628008676  1.0000
  C   C11       1.0  0.0776049261471361  0.9247111854742961  0.17907166559533638  1.0000
  C   C12       1.0  0.07866479483676493  0.8017328545463407  0.25619125740718607  1.0000
  C   C13       1.0  0.08075318664077447  0.7912214419407878  0.4080579525757584  1.0000
  C   C14       1.0  0.08178534092724199  0.9049648410476251  0.4831979616202129  1.0000
  C   C15       1.0  0.07534979744450299  0.9434721371714017  0.015024606004400818  1.0000
  C   C16       1.0  0.023193063544642456  0.8440546476546312  0.9348404804464782  1.0000
  C   C17       1.0  0.12522824868462923  0.8444203041768545  0.9301561376119256  1.0000
  H   H6        1.0  0.08156992006456149  0.3524984365701213  0.4668991516591967  1.0000
  H   H7        1.0  0.07786858013757697  0.13166090012150633  0.19822426599485166  1.0000
  H   H8        1.0  0.07788029999967326  0.7136696886457123  0.19926245650747632  1.0000
  H   H9        1.0  0.08339337514550539  0.8975828789231749  0.6002182936237344  1.0000
  H   H10       1.0  0.08468567528329124  0.5641518823331148  0.6948913898418261  1.0000
  H   H11       1.0  0.07462578156222266  0.04375844553409026  0.9622969963465913  1.0000
  H   H12       1.0  0.9930840282970897  0.7609223762060888  0.00046713016489818675  1.0000
  H   H13       1.0  0.9919542992838425  0.884069725050604  0.8328924419031742  1.0000
  H   H14       1.0  0.1571001064919495  0.7615109552571231  0.9929380530659243  1.0000
  H   H15       1.0  0.15362456437660532  0.8846467135850349  0.82546897690823  1.0000
  C   C18       1.0  0.08222264085096476  0.4063134191232569  0.9849809170084121  1.0000
  C   C19       1.0  0.15555671270005045  0.4612501027225058  0.05345036122361282  1.0000
  C   C20       1.0  0.22381127972853165  0.5258823140338491  0.9735365733222291  1.0000
  C   C21       1.0  0.21897584495997532  0.535903576895151  0.8220957532013036  1.0000
  C   C22       1.0  0.1475231088068627  0.4801820681040267  0.7522825753608228  1.0000
  C   C23       1.0  0.07928857880272842  0.4131915103731707  0.8315310180338032  1.0000
  O   O1        1.0  0.29469982527147165  0.5792173083567278  0.04864228243127755  1.0000
  C   C24       1.0  0.3684404974033606  0.6476518894264063  0.9814542293311694  1.0000
  H   H16       1.0  0.8692244063302675  0.32632930173229524  0.09625966178948708  1.0000
  H   H17       1.0  0.2705602760304038  0.5855565615107172  0.7570945674287441  1.0000
  H   H18       1.0  0.14680051396717042  0.4868764915600358  0.6351986708130202  1.0000
  H   H19       1.0  0.9372470590915609  0.3541931534630307  0.5562656969900446  1.0000
  H   H20       1.0  0.3444023539684624  0.7355370294337658  0.9170378619919513  1.0000
  H   H21       1.0  0.40577899358305514  0.5832151489583512  0.9110364430284138  1.0000
  H   H22       1.0  0.4142794721368961  0.6787449392380314  0.06623429189993857  1.0000
  Zn  Zn1       1.0  0.982634252221178  0.4096629978573574  0.4083594600570679  1.0000
  Zn  Zn2       1.0  0.17886841569367462  0.4098413411187234  0.40815184453033515  1.0000
  C   C25       1.0  0.07984122977189179  0.4067163371225955  0.6715176286423993  1.0000
  C   C26       1.0  0.0816635805130732  0.41278964402129475  0.14499381430001823  1.0000
  C   C27       1.0  0.08076939489705581  0.6469632625900437  0.40238900056916843  1.0000
  C   C28       1.0  0.08073534817058281  0.17254115838508266  0.4141225201009849  1.0000
  O   O2        1.0  0.15594579714785492  0.4150251372946238  0.19861681829809635  1.0000
  O   O3        1.0  0.1544962041076463  0.4046152188945166  0.6177366348465383  1.0000
  O   O4        1.0  0.15524470010082864  0.5986176608115013  0.40041336390876076  1.0000
  O   O5        1.0  0.1551972345677588  0.22102270373146826  0.41593998122735965  1.0000
  O   O6        1.0  0.006305366382030499  0.5984816351851046  0.4005713234233097  1.0000
  O   O7        1.0  0.0055568706411117715  0.4044807533773775  0.617894516696618  1.0000
  O   O8        1.0  0.007006469747446343  0.4148906124288716  0.19877296719876708  1.0000
  O   O9        1.0  0.006257906789200799  0.22088817045237996  0.41609623819981123  1.0000
