data_image0
_chemical_formula_structural       NC9NC5H8C6BrH5C6NH7Zn2C4O8
_chemical_formula_sum              "N3 C30 H20 Br1 Zn2 O8"
_cell_length_a       17.807436237873137
_cell_length_b       10.302969083221269
_cell_length_c       9.274774538082514
_cell_angle_alpha    85.06360997403345
_cell_angle_beta     89.72824813723155
_cell_angle_gamma    88.39001038669201

_space_group_name_H-M_alt    "P 1"
_space_group_IT_number       1

loop_
  _space_group_symop_operation_xyz
  'x, y, z'

loop_
  _atom_site_type_symbol
  _atom_site_label
  _atom_site_symmetry_multiplicity
  _atom_site_fract_x
  _atom_site_fract_y
  _atom_site_fract_z
  _atom_site_occupancy
  N   N1        1.0  0.7023111356466083  0.4001244732353171  0.39661572564808023  1.0000
  C   C1        1.0  0.641684647594711  0.3650439027783994  0.3843654200471389  1.0000
  C   C2        1.0  0.5662719598208006  0.32140753655594057  0.3691273700036217  1.0000
  C   C3        1.0  0.5478094224474345  0.25094778588291344  0.25244328597636256  1.0000
  C   C4        1.0  0.47458730246989334  0.20846951161274707  0.2375563009078423  1.0000
  C   C5        1.0  0.418778886728141  0.2360738673450129  0.3393173379255781  1.0000
  C   C6        1.0  0.3409629386649586  0.19104455274325005  0.3235875330078435  1.0000
  C   C7        1.0  0.27887825368812963  0.27254421367634984  0.35241209521065975  1.0000
  C   C8        1.0  0.2055138772417149  0.22986284479195174  0.3375403131564325  1.0000
  C   C9        1.0  0.1423803882965953  0.314049764992651  0.3667692623387151  1.0000
  N   N2        1.0  0.0916340489108319  0.38173021473841384  0.3902685301721054  1.0000
  C   C10       1.0  0.19365055136496262  0.10542414268405363  0.2938157989664718  1.0000
  C   C11       1.0  0.2548778368684074  0.023910708389703876  0.2649819137344105  1.0000
  C   C12       1.0  0.3281220655131222  0.06619946108703331  0.27962862552480305  1.0000
  C   C13       1.0  0.4379336033693463  0.3070258793810523  0.45624504035569413  1.0000
  C   C14       1.0  0.5112080445680155  0.34931520240925673  0.47095905895555235  1.0000
  H   H1        1.0  0.5899508771026448  0.22910658674425718  0.17275271624283128  1.0000
  H   H2        1.0  0.4613816760508235  0.1555407758901075  0.1454111995617187  1.0000
  H   H3        1.0  0.2874777673287842  0.36972145795190037  0.3845016320321706  1.0000
  H   H4        1.0  0.1371480849893922  0.07149307680149897  0.28204226243030633  1.0000
  H   H5        1.0  0.2455757355283057  0.9275639609609765  0.23155842409153515  1.0000
  H   H6        1.0  0.3746955842783204  0.0006446334138661132  0.258461138300774  1.0000
  H   H7        1.0  0.3965136045689782  0.3283167063424768  0.5373741169607391  1.0000
  H   H8        1.0  0.5249383386432955  0.40347338287719303  0.5619466563432651  1.0000
  C   C15       1.0  0.8969761933665482  0.009679627815035955  0.3934483761101768  1.0000
  C   C16       1.0  0.9749379965065307  0.0028918255975083273  0.4165002474380186  1.0000
  C   C17       1.0  0.013611246501540556  0.8825868611922167  0.4279350292067725  1.0000
  C   C18       1.0  0.9749380546193103  0.767809465399411  0.41649997263911254  1.0000
  C   C19       1.0  0.8969762046122062  0.7721646453909612  0.3934482802447532  1.0000
  C   C20       1.0  0.8583717789216669  0.8936809996423283  0.3820337260639861  1.0000
  Br  Br1       1.0  0.11965272021663576  0.8750086338699756  0.4592899332481504  1.0000
  H   H9        1.0  0.8676321217853444  0.33953616263373987  0.38477122069516595  1.0000
  H   H10       1.0  0.00597311665843292  0.09067322197800776  0.4256769203659576  1.0000
  H   H11       1.0  0.0059732029877510645  0.6755922888559774  0.42567626884247406  1.0000
  H   H12       1.0  0.7982446386579698  0.8979779175173364  0.36425542925215293  1.0000
  H   H13       1.0  0.8676319134288044  0.4465021635476044  0.38477335674648067  1.0000
  C   C21       1.0  0.8956280050618364  0.3943063790502789  0.9696539979666926  1.0000
  C   C22       1.0  0.9488587977701041  0.4684051901932546  0.03552267248934182  1.0000
  C   C23       1.0  0.005459840202366897  0.5316503225038791  0.9538349765433756  1.0000
  C   C24       1.0  0.009288507893401972  0.5210739529480115  0.8047951434959084  1.0000
  C   C25       1.0  0.9562987327323111  0.4498237287314695  0.7372199767552834  1.0000
  C   C26       1.0  0.8983243872981104  0.38753787636461  0.8172426657906389  1.0000
  N   N3        1.0  0.05955305151916401  0.60552776856997  0.02269483615697921  1.0000
  H   H14       1.0  0.7833373236667263  0.14582138222294572  0.09740502527068506  1.0000
  H   H15       1.0  0.9475065452221285  0.4746264531422333  0.1515648470040818  1.0000
  H   H16       1.0  0.05298876472145396  0.5691694847405055  0.7405519182102864  1.0000
  H   H17       1.0  0.9596486186171693  0.44605414742954  0.6209923141899081  1.0000
  H   H18       1.0  0.8203854940502084  0.22423583051516705  0.552431547490996  1.0000
  H   H19       1.0  0.05737155767031842  0.6137722863891926  0.1341003231593325  1.0000
  H   H20       1.0  0.1021690089897076  0.6526535885457269  0.9627579730497927  1.0000
  Zn  Zn1       1.0  0.8146613439356041  0.39481275673792826  0.3947924084722172  1.0000
  Zn  Zn2       1.0  0.9792838601678533  0.3870312536885354  0.3921037116818016  1.0000
  C   C27       1.0  0.8978130416587637  0.38364534371372183  0.6570302882599719  1.0000
  C   C28       1.0  0.8961339605680905  0.3982002187057765  0.12986594417984532  1.0000
  C   C29       1.0  0.8969540416416574  0.6280848665449157  0.38769748538238047  1.0000
  C   C30       1.0  0.8969929046557817  0.1537591381095873  0.3991988249161642  1.0000
  O   O1        1.0  0.9587771508305433  0.39654832307348475  0.1826141904641172  1.0000
  O   O2        1.0  0.9601145307892368  0.3793902824901158  0.6022409678895213  1.0000
  O   O3        1.0  0.959420040014539  0.5767783163612248  0.38475283774640645  1.0000
  O   O4        1.0  0.9594715850864942  0.19916030200903465  0.40010221331757956  1.0000
  O   O5        1.0  0.8344735628393536  0.5826837110743477  0.38679390774636846  1.0000
  O   O6        1.0  0.835168053365857  0.3852972376251531  0.6042819609406846  1.0000
  O   O7        1.0  0.833830667937348  0.4024552468203341  0.18465344841561948  1.0000
  O   O8        1.0  0.8345251025344361  0.20506721560614505  0.4021415794686636  1.0000
