data_image0
_chemical_formula_structural       NC8NH4C7NH5C6BrH3Zn2C4O8
_chemical_formula_sum              "N3 C25 H12 Br1 Zn2 O8"
_cell_length_a       11.048855714531884
_cell_length_b       9.275154477615127
_cell_length_c       9.275428193871797
_cell_angle_alpha    86.39200360318996
_cell_angle_beta     89.94092889072596
_cell_angle_gamma    89.43371274831733

_space_group_name_H-M_alt    "P 1"
_space_group_IT_number       1

loop_
  _space_group_symop_operation_xyz
  'x, y, z'

loop_
  _atom_site_type_symbol
  _atom_site_label
  _atom_site_symmetry_multiplicity
  _atom_site_fract_x
  _atom_site_fract_y
  _atom_site_fract_z
  _atom_site_occupancy
  N   N1        1.0  0.12809874248293163  0.5611039516614111  0.41672586330685135  1.0000
  C   C1        1.0  0.07414933381081013  0.5022649902497953  0.33153006464314627  1.0000
  C   C2        1.0  0.006837110644786652  0.4288507382831059  0.22522975552362912  1.0000
  C   C3        1.0  0.8791203567426642  0.4288505488186469  0.22522985646505636  1.0000
  C   C4        1.0  0.8170430503568089  0.3562772874141551  0.12014755007871812  1.0000
  C   C5        1.0  0.8811562908823966  0.2842780801163791  0.015896364372681493  1.0000
  C   C6        1.0  0.007562504194279065  0.28427797025058843  0.015896386594332457  1.0000
  C   C7        1.0  0.07030058838291575  0.35627738553980315  0.12014752275987516  1.0000
  C   C8        1.0  0.8104059121232488  0.5022650650312479  0.331530051811074  1.0000
  N   N2        1.0  0.7553326282404413  0.5611039946307868  0.41672589226003987  1.0000
  H   H1        1.0  0.7189894891092635  0.3553684948366296  0.11883102529515142  1.0000
  H   H2        1.0  0.8327917603805068  0.2284338202380116  0.9350373332548466  1.0000
  H   H3        1.0  0.05699380070005011  0.22843392963597148  0.9350373330800686  1.0000
  H   H4        1.0  0.16837150101638398  0.355368448714076  0.11883130014982403  1.0000
  C   C9        1.0  0.44522539804816735  0.13769698275332654  0.4150583382867903  1.0000
  C   C10       1.0  0.41212512960361014  0.21952917964266216  0.288002910378897  1.0000
  C   C11       1.0  0.3691739947073456  0.15221521328515109  0.16767779743409528  1.0000
  C   C12       1.0  0.3586153814959417  0.0021510126592225744  0.1729910232767291  1.0000
  C   C13       1.0  0.3928401444857694  0.9190804395348742  0.29715032396441265  1.0000
  C   C14       1.0  0.4382176748740967  0.9844999872090797  0.4184058730980482  1.0000
  C   C15       1.0  0.33446499103137756  0.2376129889553642  0.039091020250364254  1.0000
  N   N3        1.0  0.30656858234879386  0.30625724371437935  0.9357401886014509  1.0000
  H   H5        1.0  0.4683560394037743  0.2181177543899104  0.76877869631425  1.0000
  H   H6        1.0  0.4170719624517701  0.3364432541223694  0.2837271967925694  1.0000
  H   H7        1.0  0.324959840254113  0.9490441032427632  0.08051361693468406  1.0000
  H   H8        1.0  0.38648489109980894  0.802611498992511  0.29702350527107546  1.0000
  H   H9        1.0  0.45892925932375783  0.6882421570311817  0.6554085746505225  1.0000
  C   C16       1.0  0.4421242277074196  0.5566125322288995  0.9935606588931235  1.0000
  C   C17       1.0  0.55359195514387  0.5592968098966031  0.06661659595612601  1.0000
  C   C18       1.0  0.6620588655938032  0.5751389456916269  0.990142486593009  1.0000
  C   C19       1.0  0.6607659509148271  0.5887169533288541  0.8396389186183812  1.0000
  C   C20       1.0  0.5514305232411254  0.5839525581283733  0.765067612030268  1.0000
  C   C21       1.0  0.4413188709423471  0.5655844262556633  0.8399035146915721  1.0000
  Br  Br1       1.0  0.8120759674733301  0.5806510969588188  0.09172821037844892  1.0000
  H   H10       1.0  0.15036732499990493  0.6280574896874096  0.09240843554674494  1.0000
  H   H11       1.0  0.7446910478720846  0.601601818256853  0.780109986445344  1.0000
  H   H12       1.0  0.24453327754696708  0.6075875553586314  0.5563334491158778  1.0000
  Zn  Zn1       1.0  0.30910493137563905  0.5611001841662913  0.41673417507635  1.0000
  Zn  Zn2       1.0  0.5743265531187209  0.5610960611866729  0.41672932718608235  1.0000
  C   C22       1.0  0.44151590699352355  0.5581445650763082  0.679903880891457  1.0000
  C   C23       1.0  0.44191845852292705  0.5640535009748397  0.15355976994794718  1.0000
  C   C24       1.0  0.439541513366359  0.8243753001968464  0.4120306509215965  1.0000
  C   C25       1.0  0.44389277591100257  0.2978210343761414  0.42143306989953916  1.0000
  O   O1        1.0  0.5424996757975316  0.566542903137347  0.20725506861274767  1.0000
  O   O2        1.0  0.5422317732074967  0.5556509415533639  0.6262044836663212  1.0000
  O   O3        1.0  0.5406360671449018  0.7706356430156414  0.4098949611694107  1.0000
  O   O4        1.0  0.5440952913754168  0.35155821084536343  0.4235644831040106  1.0000
  O   O5        1.0  0.3393361026118145  0.7706380345104975  0.40989901915250226  1.0000
  O   O6        1.0  0.34093179440637017  0.5556550645292759  0.6262084716617617  1.0000
  O   O7        1.0  0.3411996991414117  0.5665469575024094  0.20725732386103446  1.0000
  O   O8        1.0  0.3427953146968781  0.35156225604302827  0.42356684635202524  1.0000
