data_image0
_chemical_formula_structural       NC8NH4C6NCH9C6OCH7Zn2C4O8
_chemical_formula_sum              "N3 C26 H20 O9 Zn2"
_cell_length_a       13.859017124695912
_cell_length_b       9.273386996610926
_cell_length_c       9.273891588657152
_cell_angle_alpha    85.97842517681073
_cell_angle_beta     89.68011635111247
_cell_angle_gamma    89.39861590222965

_space_group_name_H-M_alt    "P 1"
_space_group_IT_number       1

loop_
  _space_group_symop_operation_xyz
  'x, y, z'

loop_
  _atom_site_type_symbol
  _atom_site_label
  _atom_site_symmetry_multiplicity
  _atom_site_fract_x
  _atom_site_fract_y
  _atom_site_fract_z
  _atom_site_occupancy
  N   N1        1.0  0.9035512338243756  0.5644997337671354  0.4075047247521977  1.0000
  C   C1        1.0  0.8315705651188282  0.5411254425396025  0.3513790521214353  1.0000
  C   C2        1.0  0.742030858260619  0.5120512357286691  0.28156592800884295  1.0000
  C   C3        1.0  0.6539623394362799  0.5403956308085933  0.34962493931893857  1.0000
  C   C4        1.0  0.56680053199695  0.5120524567631921  0.281565346689745  1.0000
  C   C5        1.0  0.5678897843928974  0.4553571964469875  0.14542584987529095  1.0000
  C   C6        1.0  0.6557739991200947  0.4271217451253824  0.07762881618202311  1.0000
  C   C7        1.0  0.742755155283029  0.4553548567822547  0.14542703209674457  1.0000
  C   C8        1.0  0.47633072178868446  0.5411263649302461  0.35137855257790296  1.0000
  N   N2        1.0  0.4036023579687419  0.5645000545431202  0.40750450821116235  1.0000
  H   H1        1.0  0.653260429151963  0.5842799587142837  0.4550001700967583  1.0000
  H   H2        1.0  0.5009511665457372  0.43304906934764786  0.0918559542917936  1.0000
  H   H3        1.0  0.6564745486759141  0.38332704157007624  0.9724669868073006  1.0000
  H   H4        1.0  0.8104074061315367  0.4330446372204341  0.09185813920270336  1.0000
  C   C9        1.0  0.15654585576512847  0.14085231550954178  0.4082129157720724  1.0000
  C   C10       1.0  0.17398291982463587  0.22315150249227386  0.2778873310208052  1.0000
  C   C11       1.0  0.1823350328189206  0.15747212184537718  0.14755369365267512  1.0000
  C   C12       1.0  0.17338159378885276  0.007141298028444877  0.14421331272991167  1.0000
  C   C13       1.0  0.1576466403372987  0.9238751112120508  0.27408617495818555  1.0000
  C   C14       1.0  0.1506169770253838  0.9881364935969988  0.4068088487886783  1.0000
  N   N3        1.0  0.18092824947831954  0.9364012022168733  0.011188808882195648  1.0000
  C   C15       1.0  0.19753631264934746  0.013028033689930671  0.8705326064754221  1.0000
  H   H5        1.0  0.17536009851445056  0.4051331537213439  0.6448529663514675  1.0000
  H   H6        1.0  0.17891104747476372  0.33978143661727644  0.2761189691499606  1.0000
  H   H7        1.0  0.19487504834777525  0.22519046063064652  0.049646653040769984  1.0000
  H   H8        1.0  0.1531009379486199  0.8074535129898099  0.27181234088905826  1.0000
  H   H9        1.0  0.18481034351156467  0.8599435607119736  0.7578734329946668  1.0000
  H   H10       1.0  0.1740952659356656  0.8240610552420929  0.014177725583522708  1.0000
  H   H11       1.0  0.13781523897019277  0.09137549103232565  0.8454891469117878  1.0000
  H   H12       1.0  0.26737424159065615  0.07058193015509473  0.8707651684171696  1.0000
  H   H13       1.0  0.20029275804049473  0.9348211772911352  0.7852018928752891  1.0000
  C   C16       1.0  0.15518886046786995  0.5606736285188907  0.9842418671925334  1.0000
  C   C17       1.0  0.2337806540299927  0.6216083138815245  0.0527145587884914  1.0000
  C   C18       1.0  0.3068239432097701  0.6933156417070145  0.9727859543418068  1.0000
  C   C19       1.0  0.3015358981369858  0.7044497795545354  0.8213268922902781  1.0000
  C   C20       1.0  0.22497735959903095  0.6426415660392161  0.751513449637172  1.0000
  C   C21       1.0  0.15197397115791886  0.5683151451299684  0.8307798457429643  1.0000
  O   O1        1.0  0.3827930889886572  0.7524740814740996  0.04789449820150771  1.0000
  C   C22       1.0  0.4617181991746664  0.8283985002906695  0.9806922777112983  1.0000
  H   H14       1.0  0.9263017491888129  0.4720661916696926  0.09540602937022213  1.0000
  H   H15       1.0  0.3567332195743964  0.7595390210683883  0.7563134434212944  1.0000
  H   H16       1.0  0.22414677844061015  0.6500768327218519  0.6344199522518084  1.0000
  H   H17       1.0  0.999380623869429  0.5029404875507928  0.5554455915298289  1.0000
  H   H18       1.0  0.43513445941795825  0.9260244948949468  0.9161349259958325  1.0000
  H   H19       1.0  0.5024511692138389  0.7567995401818388  0.9103982469150266  1.0000
  H   H20       1.0  0.5108688258533578  0.862881836144491  0.06547865951770393  1.0000
  Zn  Zn1       1.0  0.0478551848876816  0.5644960497906271  0.4075129967111366  1.0000
  Zn  Zn2       1.0  0.25929843672306907  0.5644920768575878  0.4075080777061917  1.0000
  C   C23       1.0  0.15261973348567337  0.5611235427362966  0.6707755837415481  1.0000
  C   C24       1.0  0.1545361838041872  0.5678664054232497  0.14424562907643512  1.0000
  C   C25       1.0  0.15175452392899613  0.8279299143449413  0.40133046875100065  1.0000
  C   C26       1.0  0.15540133304681714  0.30105830123121735  0.4136908237867136  1.0000
  O   O2        1.0  0.23455879572045046  0.5702725655037648  0.19794249691033539  1.0000
  O   O3        1.0  0.2330776664399905  0.5587132752111414  0.6170745693806707  1.0000
  O   O4        1.0  0.2323779113938651  0.7741628080614774  0.399495730196225  1.0000
  O   O5        1.0  0.23525847895352703  0.3548230419993663  0.4155212280063687  1.0000
  O   O6        1.0  0.0718950705020365  0.7741650846517067  0.3994998464050541  1.0000
  O   O7        1.0  0.07259481370702268  0.5587172843876163  0.6170786058638633  1.0000
  O   O8        1.0  0.07407594998459754  0.570276508764119  0.19794480052881114  1.0000
  O   O9        1.0  0.07477563287553624  0.3548269759166409  0.41552363970735184  1.0000
