data_image0
_chemical_formula_structural       NC8NC6H8C8NH7C7OCH10Zn2C4O8
_chemical_formula_sum              "N3 C34 H25 O9 Zn2"
_cell_length_a       17.457602349358154
_cell_length_b       9.274263428431858
_cell_length_c       10.300835455316061
_cell_angle_alpha    85.53020100870764
_cell_angle_beta     92.89337507241441
_cell_angle_gamma    92.30649601595262

_space_group_name_H-M_alt    "P 1"
_space_group_IT_number       1

loop_
  _space_group_symop_operation_xyz
  'x, y, z'

loop_
  _atom_site_type_symbol
  _atom_site_label
  _atom_site_symmetry_multiplicity
  _atom_site_fract_x
  _atom_site_fract_y
  _atom_site_fract_z
  _atom_site_occupancy
  N   N1        1.0  0.7314235614230669  0.6138143513809975  0.6263979151975927  1.0000
  C   C1        1.0  0.6700512359478776  0.5627895845758677  0.6157921634338346  1.0000
  C   C2        1.0  0.5937015181666578  0.4993211252172441  0.6026081479606593  1.0000
  C   C3        1.0  0.5354424079451842  0.5439556558780749  0.6774891392817031  1.0000
  C   C4        1.0  0.4605443744823169  0.4828406966908203  0.664919086741371  1.0000
  C   C5        1.0  0.3987094651604182  0.5299682348810246  0.7442209207155723  1.0000
  C   C6        1.0  0.3242701448458989  0.5504753968181892  0.6884606892941683  1.0000
  C   C7        1.0  0.2660098804526091  0.5949056088855058  0.7634496559672065  1.0000
  C   C8        1.0  0.19013585516367423  0.6160854280491648  0.7054741180079737  1.0000
  N   N2        1.0  0.1291460147422425  0.6331069148804771  0.6588619377244858  1.0000
  C   C9        1.0  0.28169841547990526  0.6190988892385544  0.8947072639472013  1.0000
  C   C10       1.0  0.35535558005197115  0.5990239665760135  0.9508549728754581  1.0000
  C   C11       1.0  0.4136054702680015  0.5547938851271252  0.8763236378954906  1.0000
  C   C12       1.0  0.4451895198428384  0.37633831191218636  0.5760354252475512  1.0000
  C   C13       1.0  0.5034387600640902  0.33201347290658406  0.5015543359857717  1.0000
  C   C14       1.0  0.577552844617153  0.3932533904524264  0.5146742503060622  1.0000
  H   H1        1.0  0.548277523242962  0.6275094185613472  0.7440975430614085  1.0000
  H   H2        1.0  0.31181104823036565  0.5338231544882768  0.5864514268215069  1.0000
  H   H3        1.0  0.23704492055842924  0.6534212050373811  0.9535301172686994  1.0000
  H   H4        1.0  0.3673108157449282  0.6174066861878447  0.05249072561518531  1.0000
  H   H5        1.0  0.470004102635759  0.538147267912759  0.9224273271417914  1.0000
  H   H6        1.0  0.388414220598579  0.3259686558059647  0.565393449485007  1.0000
  H   H7        1.0  0.4911243434454891  0.24969985353665905  0.4337475453709635  1.0000
  H   H8        1.0  0.6222009394702429  0.3579649472091522  0.45636262432594  1.0000
  C   C15       1.0  0.9278599804647407  0.19975959903053764  0.6427079478099025  1.0000
  C   C16       1.0  0.9179200961279785  0.282615326284237  0.523224512913782  1.0000
  C   C17       1.0  0.9155075490278113  0.21756533260334507  0.405429741300503  1.0000
  C   C18       1.0  0.9235990541709036  0.06817566390554086  0.40425569764346825  1.0000
  C   C19       1.0  0.9314792069321562  0.9837152747661829  0.5227750304836056  1.0000
  C   C20       1.0  0.9327168729995701  0.047150934660860504  0.6425637541217852  1.0000
  C   C21       1.0  0.9198530112480736  0.997982818303649  0.2772550827926545  1.0000
  C   C22       1.0  0.8402221393751514  0.9551784650101842  0.24189593655402272  1.0000
  N   N3        1.0  0.7773711917000815  0.9213925573541029  0.21399630332517125  1.0000
  H   H9        1.0  0.9941392875156717  0.28129647360401866  0.9474902364224809  1.0000
  H   H10       1.0  0.9136773373547862  0.39902802895731493  0.52075147360652  1.0000
  H   H11       1.0  0.9080442007664614  0.2841146264236962  0.3148327296354674  1.0000
  H   H12       1.0  0.9347925865933762  0.8673861204476445  0.5213350666282802  1.0000
  H   H13       1.0  0.974354148134045  0.7517131460209369  0.8492803386996279  1.0000
  H   H14       1.0  0.9553105091105387  0.9005884162090223  0.2851743969330746  1.0000
  H   H15       1.0  0.942502878849558  0.0738796245676141  0.19829598665241188  1.0000
  C   C23       1.0  0.9302182698091437  0.6233782466155882  0.26131362251358786  1.0000
  C   C24       1.0  0.0010806867926094177  0.7006124697915235  0.26111428112981033  1.0000
  C   C25       1.0  0.036334932042374035  0.7410187344193662  0.14375401084810102  1.0000
  C   C26       1.0  0.0012650773017737207  0.7008130923284877  0.025830424687201644  1.0000
  C   C27       1.0  0.9303585931729067  0.6235322254057691  0.023958086321596687  1.0000
  C   C28       1.0  0.8951677812157756  0.5855741282665021  0.14215786709935438  1.0000
  C   C29       1.0  0.11320288366207779  0.8199308810996677  0.14501510032558104  1.0000
  O   O1        1.0  0.17124925326578078  0.7174618244684994  0.15732838642446653  1.0000
  C   C30       1.0  0.24373292119370873  0.7902099153724644  0.15866077484572624  1.0000
  H   H16       1.0  0.9034975204256462  0.5923232255843636  0.588927927258019  1.0000
  H   H17       1.0  0.029152057011613722  0.7296324141498658  0.35212645551953203  1.0000
  H   H18       1.0  0.029462924236222095  0.7299720732662569  0.9356780081395687  1.0000
  H   H19       1.0  0.8405192387210632  0.5259970034069057  0.1415495749068305  1.0000
  H   H20       1.0  0.7970166305681354  0.47633076195273705  0.8133111045366549  1.0000
  H   H21       1.0  0.11766774008754834  0.8905544507901335  0.22801724358585296  1.0000
  H   H22       1.0  0.11784568374488336  0.8905850837015424  0.05291770624670455  1.0000
  H   H23       1.0  0.2887151693601527  0.7083995801513625  0.16836359707516246  1.0000
  H   H24       1.0  0.2518800304276889  0.8575820328568025  0.24342592201217572  1.0000
  H   H25       1.0  0.25206776094067884  0.8576513064247593  0.06593019102860787  1.0000
  Zn  Zn1       1.0  0.846197649407678  0.6193779006931259  0.6357738290462533  1.0000
  Zn  Zn2       1.0  0.01437184666056957  0.6275315379780149  0.6494966571146455  1.0000
  C   C31       1.0  0.9302973989866561  0.6177550894984118  0.8798027694832466  1.0000
  C   C32       1.0  0.930273943996422  0.6291562587436903  0.4054679936715295  1.0000
  C   C33       1.0  0.9317939104877335  0.8869746616799712  0.63741613383606  1.0000
  C   C34       1.0  0.9287773651863105  0.35993495029634115  0.6478546941612409  1.0000
  O   O2        1.0  0.9941138240943141  0.6341833806096844  0.45905526030466326  1.0000
  O   O3        1.0  0.9940978370102348  0.618915301121306  0.8366304382143763  1.0000
  O   O4        1.0  0.9953054288810075  0.8363134689645983  0.6409014445444272  1.0000
  O   O5        1.0  0.992906174878326  0.4167852202858928  0.654784151927439  1.0000
  O   O6        1.0  0.8676632638003298  0.8301242156043811  0.6304863295437011  1.0000
  O   O7        1.0  0.8664556818489995  0.612727781246011  0.8262152536813681  1.0000
  O   O8        1.0  0.8664716684087145  0.627995810142203  0.4486385145748728  1.0000
  O   O9        1.0  0.8652640191483497  0.4105976395180435  0.6443675035550642  1.0000
