data_image0
_chemical_formula_structural       NC9NC5H8C6SCH8C7OH5Zn2C4O8
_chemical_formula_sum              "N2 C32 H21 S1 O9 Zn2"
_cell_length_a       17.807436237873137
_cell_length_b       10.302809429070853
_cell_length_c       9.274081674992354
_cell_angle_alpha    86.07103033797786
_cell_angle_beta     89.07685020002327
_cell_angle_gamma    88.39000425637651

_space_group_name_H-M_alt    "P 1"
_space_group_IT_number       1

loop_
  _space_group_symop_operation_xyz
  'x, y, z'

loop_
  _atom_site_type_symbol
  _atom_site_label
  _atom_site_symmetry_multiplicity
  _atom_site_fract_x
  _atom_site_fract_y
  _atom_site_fract_z
  _atom_site_occupancy
  N   N1        1.0  0.7122089371388084  0.3742378741090764  0.3985224657580926  1.0000
  C   C1        1.0  0.65165807391332  0.33895881335070827  0.38628672659983954  1.0000
  C   C2        1.0  0.5763394552122026  0.2950755467459354  0.37106679562942113  1.0000
  C   C3        1.0  0.5585972274390288  0.22272926349883293  0.25452146601622405  1.0000
  C   C4        1.0  0.48546700929494563  0.18000977947942803  0.23965218258607557  1.0000
  C   C5        1.0  0.42903040842471235  0.20925886948512318  0.34129220969871765  1.0000
  C   C6        1.0  0.3513115651843348  0.16397468688958683  0.32558110858444733  1.0000
  C   C7        1.0  0.2890489375676405  0.245941372734281  0.35437139639524684  1.0000
  C   C8        1.0  0.2157763691172338  0.2030190366112965  0.33951729789342977  1.0000
  C   C9        1.0  0.1524624410345229  0.28767955765827363  0.36871149189320107  1.0000
  N   N2        1.0  0.10157103356611778  0.3557407693491211  0.39218281751967554  1.0000
  C   C10       1.0  0.204182967788843  0.07787188317598104  0.2958447751377191  1.0000
  C   C11       1.0  0.265588253485217  0.9958912731103514  0.2670451753838361  1.0000
  C   C12       1.0  0.33874206354479125  0.038417350162308635  0.28167447125432926  1.0000
  C   C13       1.0  0.447463311548715  0.2821013582336487  0.4580808680288804  1.0000
  C   C14       1.0  0.5206469186689859  0.3246290932029099  0.4727773906698253  1.0000
  H   H1        1.0  0.6012306231521353  0.19960004521143593  0.1749256609173062  1.0000
  H   H2        1.0  0.47283020922419133  0.12559129619932  0.14761665531446866  1.0000
  H   H3        1.0  0.2974503525031631  0.343638641994946  0.38642277676819714  1.0000
  H   H4        1.0  0.1477531830140555  0.04375004868245801  0.2840852381260681  1.0000
  H   H5        1.0  0.2564924854536261  0.8990029588800036  0.23366142851090974  1.0000
  H   H6        1.0  0.3854462558916228  0.9725194715795771  0.26053215343445646  1.0000
  H   H7        1.0  0.40554249164462675  0.3047034399388389  0.5391134693554103  1.0000
  H   H8        1.0  0.533815531733962  0.3802583367446155  0.5636567904910814  1.0000
  C   C15       1.0  0.9068935715772963  0.9837357983007597  0.3953588691953931  1.0000
  C   C16       1.0  0.9506145059363051  0.9883030706541853  0.26781962835332784  1.0000
  C   C17       1.0  0.9721629204848744  0.8736050278267717  0.20420023361500061  1.0000
  C   C18       1.0  0.9506144114359284  0.7531519166000842  0.2678195524294826  1.0000
  C   C19       1.0  0.9068935416542981  0.7462326610305248  0.39535886211585747  1.0000
  C   C20       1.0  0.885227363729337  0.8621433297017485  0.4584782162843481  1.0000
  S   S1        1.0  0.02816097369166481  0.880925798832691  0.04141616692355375  1.0000
  C   C21       1.0  0.9471013375231316  0.8921181353245629  0.9237844263840257  1.0000
  H   H9        1.0  0.8903926507533279  0.3093308526151839  0.44339164714412677  1.0000
  H   H10       1.0  0.9679800009212927  0.08068401791431024  0.2171590879319911  1.0000
  H   H11       1.0  0.9679798354643647  0.6653336313833855  0.2171589783055203  1.0000
  H   H12       1.0  0.8514912476267184  0.8577148220568627  0.5568402999811826  1.0000
  H   H13       1.0  0.8903914282892493  0.41631512996701053  0.4433900820652327  1.0000
  H   H14       1.0  0.9125662955507496  0.8044581366891288  0.94356682720348  1.0000
  H   H15       1.0  0.9125670007176747  0.9806930606421544  0.9435662917652823  1.0000
  H   H16       1.0  0.9668419490535708  0.8982057201740591  0.8095350068597583  1.0000
  C   C22       1.0  0.9081614942349394  0.3615206254512823  0.9720684666496754  1.0000
  C   C23       1.0  0.9691786680562429  0.41512491137366503  0.03960105556150961  1.0000
  C   C24       1.0  0.025941219605173815  0.47850918497720707  0.9581938884786764  1.0000
  C   C25       1.0  0.021671357863359608  0.4886419835968801  0.8071407079943889  1.0000
  C   C26       1.0  0.962228539429619  0.43422264345531403  0.7383796581656408  1.0000
  C   C27       1.0  0.905625618765446  0.3684478093237513  0.8186491695299771  1.0000
  C   C28       1.0  0.08871020925580764  0.534614724788089  0.032616804226418335  1.0000
  O   O1        1.0  0.14041483802074217  0.5926461396636402  0.9624352170059383  1.0000
  H   H17       1.0  0.7301515468254304  0.28564028138896824  0.08633562645199896  1.0000
  H   H18       1.0  0.06468859095835455  0.5375887827839883  0.7418324331048831  1.0000
  H   H19       1.0  0.9615316727956855  0.4409636971852702  0.621317244815772  1.0000
  H   H20       1.0  0.7869638297897213  0.3119691288139486  0.5454968764655765  1.0000
  H   H21       1.0  0.09090048648332316  0.5262569777961896  0.1494883319033915  1.0000
  Zn  Zn1       1.0  0.8245704013195548  0.36889661321131606  0.3967013166266553  1.0000
  Zn  Zn2       1.0  0.9892095156920585  0.3610715442440718  0.39401581687590176  1.0000
  C   C29       1.0  0.90610327301445  0.36196639989110113  0.6586273514082106  1.0000
  C   C30       1.0  0.9076784414273102  0.368003311395744  0.1320898942466724  1.0000
  C   C31       1.0  0.9069068823534375  0.6020576946813327  0.38961483866968494  1.0000
  C   C32       1.0  0.9068747756783728  0.12791046007445717  0.40110248475128474  1.0000
  O   O2        1.0  0.9699960103729937  0.3672037231008882  0.18477541400264696  1.0000
  O   O3        1.0  0.9687429836306791  0.35682595907852904  0.603903184539174  1.0000
  O   O4        1.0  0.9693910615892674  0.5507027682859189  0.3866736909331523  1.0000
  O   O5        1.0  0.9693478765579698  0.1733269249667142  0.40200480044660214  1.0000
  O   O6        1.0  0.8444319842704167  0.556641235160337  0.38871233396480254  1.0000
  O   O7        1.0  0.8437839065385513  0.3627659851556648  0.6059417507135854  1.0000
  O   O8        1.0  0.8450369385220363  0.37314368975272927  0.18681224714071853  1.0000
  O   O9        1.0  0.844388804380221  0.17926688321700213  0.4040417416555878  1.0000
