data_image0
_chemical_formula_structural       NC8NH4C6ClH5C7NH3Zn2C4O8
_chemical_formula_sum              "N3 C25 H12 Cl1 Zn2 O8"
_cell_length_a       13.859017124695912
_cell_length_b       9.276545438789551
_cell_length_c       9.275157849593905
_cell_angle_alpha    86.141431454383
_cell_angle_beta     89.74086887057864
_cell_angle_gamma    89.40963735980037

_space_group_name_H-M_alt    "P 1"
_space_group_IT_number       1

loop_
  _space_group_symop_operation_xyz
  'x, y, z'

loop_
  _atom_site_type_symbol
  _atom_site_label
  _atom_site_symmetry_multiplicity
  _atom_site_fract_x
  _atom_site_fract_y
  _atom_site_fract_z
  _atom_site_occupancy
  N   N1        1.0  0.9026202252061475  0.5627584520136197  0.4112884793831108  1.0000
  C   C1        1.0  0.8305970858282322  0.5393616608103997  0.35512089229967286  1.0000
  C   C2        1.0  0.7410045509616006  0.5102594667193272  0.28525563290439737  1.0000
  C   C3        1.0  0.652987532884382  0.5386311455282158  0.35336547112171024  1.0000
  C   C4        1.0  0.5657742244380315  0.5102606867964559  0.2852550544173853  1.0000
  C   C5        1.0  0.5667604593942946  0.45351084918929185  0.14901389327236325  1.0000
  C   C6        1.0  0.6545933715948634  0.4252482192411666  0.08116622795788908  1.0000
  C   C7        1.0  0.7416258308306396  0.4535085114005388  0.1490150700546644  1.0000
  C   C8        1.0  0.4753572422591409  0.5393625824411412  0.35512039490659597  1.0000
  N   N2        1.0  0.4026713492372098  0.5627587724993441  0.41128826359776127  1.0000
  H   H1        1.0  0.6523653606685954  0.5825577171489047  0.45881939439827857  1.0000
  H   H2        1.0  0.49978130506689966  0.43118124580911693  0.09540399584693815  1.0000
  H   H3        1.0  0.6552143446567426  0.3814113571488851  0.975925867127123  1.0000
  H   H4        1.0  0.80923754564888  0.4311768172024923  0.09540617046421772  1.0000
  C   C9        1.0  0.1555632316261797  0.13932119842294455  0.4110508147892195  1.0000
  C   C10       1.0  0.15633063406026818  0.22169159982003836  0.27803438776043254  1.0000
  C   C11       1.0  0.1483108325375544  0.15535901771379135  0.1479130903038628  1.0000
  C   C12       1.0  0.13933045781055853  0.005776471575934753  0.1488063356704601  1.0000
  C   C13       1.0  0.14005909063882088  0.9218441418978344  0.27938124393691033  1.0000
  C   C14       1.0  0.14973763452672917  0.9861851180272861  0.41153841756454135  1.0000
  Cl  Cl1       1.0  0.14806067020075764  0.2603958895407348  0.9833867532591505  1.0000
  H   H5        1.0  0.20422661752261195  0.40446237004697627  0.6376254229283507  1.0000
  H   H6        1.0  0.1608604667017346  0.3383846892194322  0.27518113246094056  1.0000
  H   H7        1.0  0.1327038812183825  0.9540853291597368  0.04813673037830691  1.0000
  H   H8        1.0  0.13534986073182065  0.8055581510627701  0.27673123306046477  1.0000
  H   H9        1.0  0.11668764342028792  0.6896938641276714  0.6445734869455169  1.0000
  C   C15       1.0  0.15395877968703875  0.5586772933848263  0.9880944922782818  1.0000
  C   C16       1.0  0.2368010108565628  0.6056845154200015  0.057817556865437325  1.0000
  C   C17       1.0  0.3146156276837089  0.6640302349986316  0.9779729542737079  1.0000
  C   C18       1.0  0.31049345635554015  0.6762963086551393  0.8273210710443557  1.0000
  C   C19       1.0  0.22964302018759386  0.6281214473842114  0.7562557915476548  1.0000
  C   C20       1.0  0.1513420902307936  0.566828945125343  0.8344947572265871  1.0000
  C   C21       1.0  0.39838974787105763  0.7130455531369877  0.051004766811516784  1.0000
  N   N3        1.0  0.4657226944969666  0.7524406523409481  0.1097100210204145  1.0000
  H   H10       1.0  0.9195249356240474  0.5100591863781296  0.09590420039007763  1.0000
  H   H11       1.0  0.37026336049514313  0.7219071791488298  0.7645245120167798  1.0000
  H   H12       1.0  0.22937741428243408  0.6357023899183569  0.639195716670824  1.0000
  Zn  Zn1       1.0  0.046924181651930796  0.5627547748825419  0.41129674160527374  1.0000
  Zn  Zn2       1.0  0.2583674295283498  0.5627508009302287  0.41129181463103115  1.0000
  C   C22       1.0  0.15187404063333745  0.5595437546439501  0.6745036512741125  1.0000
  C   C23       1.0  0.15341986654776507  0.5659636418623959  0.14808504740377204  1.0000
  C   C24       1.0  0.1508515654793674  0.8260544682792825  0.4057034189668067  1.0000
  C   C25       1.0  0.1544422812307942  0.29945119654981966  0.41688535554850903  1.0000
  O   O1        1.0  0.23348065627277337  0.5684012081530798  0.20177746585266476  1.0000
  O   O2        1.0  0.23229379234835879  0.5571020804248885  0.6208070778873878  1.0000
  O   O3        1.0  0.23146704440253574  0.7723128666258103  0.40374898938144693  1.0000
  O   O4        1.0  0.23430733233044318  0.35319043122785243  0.4188354463108255  1.0000
  O   O5        1.0  0.07098420669464645  0.7723151445877712  0.40375310991958097  1.0000
  O   O6        1.0  0.07181094295621993  0.5571060900669469  0.6208111225821922  1.0000
  O   O7        1.0  0.072997812647148  0.5684051508596906  0.20177977785253384  1.0000
  O   O8        1.0  0.07382448843778033  0.35319436466162246  0.41883786635257625  1.0000
