data_image0
_chemical_formula_structural       NC9NC5H8C7OClH5C6NO2H5Zn2C4O8
_chemical_formula_sum              "N3 C31 H18 O11 Cl1 Zn2"
_cell_length_a       17.807436237873137
_cell_length_b       10.298511985553573
_cell_length_c       10.29948882739461
_cell_angle_alpha    85.5591906677542
_cell_angle_beta     89.39250983606618
_cell_angle_gamma    88.39205034767998

_space_group_name_H-M_alt    "P 1"
_space_group_IT_number       1

loop_
  _space_group_symop_operation_xyz
  'x, y, z'

loop_
  _atom_site_type_symbol
  _atom_site_label
  _atom_site_symmetry_multiplicity
  _atom_site_fract_x
  _atom_site_fract_y
  _atom_site_fract_z
  _atom_site_occupancy
  N   N1        1.0  0.7074352816506462  0.38792634059352316  0.5570849291898952  1.0000
  C   C1        1.0  0.6468469947842515  0.35273272197583244  0.5460617488685005  1.0000
  C   C2        1.0  0.5714818251383934  0.30895573613960825  0.5323501094315899  1.0000
  C   C3        1.0  0.5533886185212591  0.2375335449651861  0.4273480755694665  1.0000
  C   C4        1.0  0.480212925081545  0.1949179570206063  0.4139523309243511  1.0000
  C   C5        1.0  0.4240817119009893  0.22334698804098577  0.5055261771146051  1.0000
  C   C6        1.0  0.3463148157638919  0.1781725224368933  0.49137204201234264  1.0000
  C   C7        1.0  0.2841402230349809  0.25993772932605896  0.5173092441686666  1.0000
  C   C8        1.0  0.21082222060620734  0.21711908011532424  0.5039271855391476  1.0000
  C   C9        1.0  0.14759759456694757  0.30157594116645803  0.5302282302319739  1.0000
  N   N2        1.0  0.09677798340200038  0.3694734143785902  0.5513735438090965  1.0000
  C   C10       1.0  0.1990952606755919  0.09227721501219846  0.4645825808665807  1.0000
  C   C11       1.0  0.2604124832717807  0.010498154331638697  0.43863698926880246  1.0000
  C   C12       1.0  0.3336110449755289  0.05292221959969678  0.45181651711777177  1.0000
  C   C13       1.0  0.44286633383333535  0.29526359967686155  0.6107474307972447  1.0000
  C   C14       1.0  0.5160948942197079  0.3376887730626563  0.6239875278647846  1.0000
  H   H1        1.0  0.5957828559755942  0.2150464333819908  0.35563525065750023  1.0000
  H   H2        1.0  0.4672990143769659  0.14123036118866628  0.33103244764466844  1.0000
  H   H3        1.0  0.2926397786131301  0.35741339335548306  0.5461842137557931  1.0000
  H   H4        1.0  0.1426295042631443  0.05823740710838222  0.45398841634357323  1.0000
  H   H5        1.0  0.2512145961533634  0.9138426937937978  0.4085615789447192  1.0000
  H   H6        1.0  0.3802504697935228  0.9871699127568742  0.4327695163031367  1.0000
  H   H7        1.0  0.40118896963514483  0.31721158892169043  0.6837547776747073  1.0000
  H   H8        1.0  0.5295371763001115  0.39259710247565227  0.7058657467575167  1.0000
  C   C15       1.0  0.9021023125666289  0.9972868880283481  0.5542439832286901  1.0000
  C   C16       1.0  0.9679620445220077  0.9990041385507891  0.4780021759091145  1.0000
  C   C17       1.0  0.0014802132100322197  0.8827668959457701  0.4392002825554195  1.0000
  C   C18       1.0  0.9679963331297098  0.7637453120027047  0.47796246012230975  1.0000
  C   C19       1.0  0.9021181404138297  0.760102546408948  0.5542256436662325  1.0000
  C   C20       1.0  0.8695592457209663  0.8773553970841663  0.5919171413841975  1.0000
  C   C21       1.0  0.07113931276005524  0.886790428458577  0.3585604243062519  1.0000
  O   O1        1.0  0.10048645967157042  0.9941928946173898  0.32458553700205517  1.0000
  Cl  Cl1       1.0  0.1153743707434509  0.7444794356928516  0.30735524039755835  1.0000
  H   H9        1.0  0.876910820246864  0.3241229865876325  0.5834062861827041  1.0000
  H   H10       1.0  0.9932631879718594  0.09123559260349536  0.4487124479197037  1.0000
  H   H11       1.0  0.9930200130398045  0.6734248948951966  0.4489940873319063  1.0000
  H   H12       1.0  0.818753779649711  0.8752625212089732  0.650732064039707  1.0000
  H   H13       1.0  0.8768528906727433  0.43119455130538853  0.5834707402341996  1.0000
  C   C22       1.0  0.9021088013702937  0.37869583352618874  0.17286326028471688  1.0000
  C   C23       1.0  0.8291146897161872  0.4340734040818963  0.16892957946403797  1.0000
  C   C24       1.0  0.7921002032761021  0.4621546260047671  0.049862088098197484  1.0000
  C   C25       1.0  0.8291217118446872  0.434067977756413  0.9336602276995886  1.0000
  C   C26       1.0  0.9021116098372368  0.3786935845131429  0.9356064159777047  1.0000
  C   C27       1.0  0.9381905625747965  0.35132210177643675  0.055692124710086326  1.0000
  N   N3        1.0  0.7172392018278784  0.5189483881862  0.04724392718248738  1.0000
  O   O2        1.0  0.6810287723802919  0.5464199309135884  0.1610179728311545  1.0000
  O   O3        1.0  0.6839385415007607  0.5442121664849939  0.9418396818720122  1.0000
  H   H14       1.0  0.929988109996476  0.3575449468501959  0.5018298692084342  1.0000
  H   H15       1.0  0.8009518958399274  0.45543934874941505  0.2587651323563527  1.0000
  H   H16       1.0  0.800934325351714  0.45545260517989133  0.8415492836217418  1.0000
  H   H17       1.0  0.994491978932345  0.30860858427567117  0.0579674900889704  1.0000
  H   H18       1.0  0.9299784377239203  0.3575521046387717  0.6088904233276504  1.0000
  Zn  Zn1       1.0  0.8197911738739747  0.3825977589861  0.5554442576694212  1.0000
  Zn  Zn2       1.0  0.9844220728017019  0.37479140856195836  0.5530248922699268  1.0000
  C   C28       1.0  0.9021093178796303  0.3735198416782161  0.7914317476762284  1.0000
  C   C29       1.0  0.9021057265947937  0.3838708794326383  0.3170375032716912  1.0000
  C   C30       1.0  0.9021112518223314  0.6159143613139291  0.5490539711897506  1.0000
  C   C31       1.0  0.9021037364429794  0.14147480197823725  0.5594153498603271  1.0000
  O   O4        1.0  0.9645812627165027  0.3826395364168167  0.3645055598417375  1.0000
  O   O5        1.0  0.9645848247226632  0.3688253655145359  0.7421270749231805  1.0000
  O   O6        1.0  0.9645855441968526  0.564562045549049  0.5464053178920252  1.0000
  O   O7        1.0  0.96458048706477  0.18690286833765726  0.5602272203228917  1.0000
  O   O8        1.0  0.8396327034304609  0.5704863018757389  0.548241930435236  1.0000
  O   O9        1.0  0.839631983984939  0.37475118232525256  0.7439636181830136  1.0000
  O   O10       1.0  0.8396284220219977  0.3885653079685234  0.36634054169040486  1.0000
  O   O11       1.0  0.8396276463673624  0.19282863059934874  0.5620622995403399  1.0000
