data_image0
_chemical_formula_structural       NC8NH4C6ClH5C6NH7Zn2C4O8
_chemical_formula_sum              "N3 C24 H16 Cl1 Zn2 O8"
_cell_length_a       13.859017981522156
_cell_length_b       9.276545438789551
_cell_length_c       9.274774538082516
_cell_angle_alpha    85.10039089897613
_cell_angle_beta     90.34966334456435
_cell_angle_gamma    89.4096370293992

_space_group_name_H-M_alt    "P 1"
_space_group_IT_number       1

loop_
  _space_group_symop_operation_xyz
  'x, y, z'

loop_
  _atom_site_type_symbol
  _atom_site_label
  _atom_site_symmetry_multiplicity
  _atom_site_fract_x
  _atom_site_fract_y
  _atom_site_fract_z
  _atom_site_occupancy
  N   N1        1.0  0.89111271320846  0.5919040747521471  0.408983401143169  1.0000
  C   C1        1.0  0.8185521946038683  0.5854085707048298  0.34759045230724706  1.0000
  C   C2        1.0  0.7282912084420988  0.5773293863505815  0.2712256126983268  1.0000
  C   C3        1.0  0.7276092224967723  0.5615741435914257  0.12231042887958199  1.0000
  C   C4        1.0  0.6399278124458312  0.5537290656119651  0.04815035587627747  1.0000
  C   C5        1.0  0.5527439336408437  0.561575867915237  0.1223101812893461  1.0000
  C   C6        1.0  0.5530609640799503  0.5773303611109646  0.2712254292557488  1.0000
  C   C7        1.0  0.6409258749545125  0.585206134820029  0.34567185948559387  1.0000
  C   C8        1.0  0.4633123706084676  0.5854094764542592  0.347590212119389  1.0000
  N   N2        1.0  0.3911637949932407  0.5919043890160618  0.40898330760906987  1.0000
  H   H1        1.0  0.7947081462736432  0.5553743001798079  0.06371387471985379  1.0000
  H   H2        1.0  0.6395419136297474  0.5415590773696728  0.9331197841297563  1.0000
  H   H3        1.0  0.4852518534475811  0.5553774012309709  0.06371345607306522  1.0000
  H   H4        1.0  0.6413125519567439  0.5974006401522811  0.46093629587597573  1.0000
  C   C9        1.0  0.14405398275990344  0.1684711749915906  0.4087454391645138  1.0000
  C   C10       1.0  0.1438579120436534  0.25328182402334565  0.27553600316500804  1.0000
  C   C11       1.0  0.1348956080935788  0.18933637728220698  0.14522589597121094  1.0000
  C   C12       1.0  0.125921703925429  0.039737444367867525  0.1461204357667638  1.0000
  C   C13       1.0  0.12759612524786682  0.9534096578050738  0.2768848105991417  1.0000
  C   C14       1.0  0.13823191785081335  0.015326149441941881  0.40923374836650833  1.0000
  Cl  Cl1       1.0  0.13345373807004535  0.2973915605892752  0.9804608283454828  1.0000
  H   H5        1.0  0.1943585054065127  0.42945572981409347  0.6356488200750293  1.0000
  H   H6        1.0  0.14836707752777833  0.3700272575944281  0.27267860859331683  1.0000
  H   H7        1.0  0.1185659512040516  0.9898931324170547  0.04530475590881556  1.0000
  H   H8        1.0  0.12286770089909549  0.8371722827568853  0.2742309536277123  1.0000
  H   H9        1.0  0.10686986329655168  0.7145597606167234  0.6426069494234103  1.0000
  C   C15       1.0  0.13938594659398484  0.5955865986461111  0.9851753994815106  1.0000
  C   C16       1.0  0.2071712276173756  0.680677845530276  0.05196095604762042  1.0000
  C   C17       1.0  0.27936695810918644  0.7538912962811328  0.9712382366524746  1.0000
  C   C18       1.0  0.2843639223875555  0.7423455497411531  0.8222541630925929  1.0000
  C   C19       1.0  0.2168663693529689  0.660430736915744  0.7537678754155501  1.0000
  C   C20       1.0  0.1428999223679438  0.5882106468578451  0.8328037721155876  1.0000
  N   N3        1.0  0.34826131928143483  0.8387819396109972  0.0410289224418281  1.0000
  H   H10       1.0  0.9970962892727806  0.3137139253318302  0.1109332204497544  1.0000
  H   H11       1.0  0.20538736208686648  0.687516538700345  0.1679850289649194  1.0000
  H   H12       1.0  0.34011005805088923  0.798056103158376  0.7587555017644014  1.0000
  H   H13       1.0  0.22119657858774633  0.6564198337446168  0.6375925122114365  1.0000
  H   H14       1.0  0.044069297598585015  0.40274914885730556  0.5666150774824312  1.0000
  H   H15       1.0  0.3453972162893968  0.8478242484280767  0.1524040597348535  1.0000
  H   H16       1.0  0.40262256319776113  0.8933585822766801  0.9818182922717801  1.0000
  Zn  Zn1       1.0  0.03541672071332781  0.5919002424889406  0.4089917024359486  1.0000
  Zn  Zn2       1.0  0.24685992002802637  0.591896353711046  0.4089868079948227  1.0000
  C   C21       1.0  0.14227305045038807  0.5838605676077452  0.6725805495368193  1.0000
  C   C22       1.0  0.14000588732339003  0.5999378466726037  0.14539810354264748  1.0000
  C   C23       1.0  0.1393035843000665  0.8553025454047695  0.40339028329488547  1.0000
  C   C24       1.0  0.14297529355208502  0.3284941358070641  0.41458844573204234  1.0000
  O   O1        1.0  0.22045558053783076  0.6013903988291256  0.19916844563595104  1.0000
  O   O2        1.0  0.2223038588093343  0.582403979790401  0.6188060765947023  1.0000
  O   O3        1.0  0.2199049018651753  0.8015967966751292  0.4014330329280793  1.0000
  O   O4        1.0  0.22285446481122295  0.38219759320227986  0.41654138109800143  1.0000
  O   O5        1.0  0.05942210377490212  0.8015990030006697  0.4014371293268497  1.0000
  O   O6        1.0  0.06182104848545955  0.5824079191874199  0.6188100970400909  1.0000
  O   O7        1.0  0.05997276343010216  0.6013943030777846  0.19917073087223525  1.0000
  O   O8        1.0  0.062371648219032405  0.38220148619601946  0.41654377453293834  1.0000
