data_image0
_chemical_formula_structural       NC6NCNCH5C7NH5C7ONH5Zn2C4O8
_chemical_formula_sum              "N5 C26 H15 O9 Zn2"
_cell_length_a       14.933214217465613
_cell_length_b       9.275154477615127
_cell_length_c       9.273042158839658
_cell_angle_alpha    86.38948304707893
_cell_angle_beta     90.05893816914777
_cell_angle_gamma    89.46799387830556

_space_group_name_H-M_alt    "P 1"
_space_group_IT_number       1

loop_
  _space_group_symop_operation_xyz
  'x, y, z'

loop_
  _atom_site_type_symbol
  _atom_site_label
  _atom_site_symmetry_multiplicity
  _atom_site_fract_x
  _atom_site_fract_y
  _atom_site_fract_z
  _atom_site_occupancy
  N   N1        1.0  0.8320422388063156  0.5620710594249687  0.41545417608842494  1.0000
  C   C1        1.0  0.7545449262718574  0.5630571587324953  0.4144676614596088  1.0000
  C   C2        1.0  0.6581376927235006  0.5642865712996862  0.4132375991184094  1.0000
  C   C3        1.0  0.6109909378952877  0.46954059441632956  0.508042966594118  1.0000
  C   C4        1.0  0.5174498505004718  0.4706119675436411  0.5069709517227579  1.0000
  C   C5        1.0  0.47015355223188554  0.5663750329234152  0.4111478952256171  1.0000
  C   C6        1.0  0.373592946544926  0.5642887058368125  0.4132355369148246  1.0000
  N   N2        1.0  0.2961197525671501  0.5625482441884623  0.4149767181211923  1.0000
  C   C7        1.0  0.5173905163863768  0.6623173944851015  0.31514552249806993  1.0000
  N   N3        1.0  0.4713669517309852  0.7618520099166346  0.21554878904463415  1.0000
  C   C8        1.0  0.6114187984995663  0.660290150761272  0.31717415448624076  1.0000
  H   H1        1.0  0.6465227967023184  0.39483976308155544  0.5827905800416298  1.0000
  H   H2        1.0  0.4818962089710748  0.3965395298935255  0.58108964849626  1.0000
  H   H3        1.0  0.5072197252694838  0.8321529178008096  0.14520377255666883  1.0000
  H   H4        1.0  0.40158759746074885  0.7671481009440473  0.21024945036222653  1.0000
  H   H5        1.0  0.6481022067226387  0.7336172961042009  0.2438010512226485  1.0000
  C   C9        1.0  0.06667498869466718  0.13890544495558002  0.41354482130420567  1.0000
  C   C10       1.0  0.041974940066058286  0.2207212060359496  0.28648144762238426  1.0000
  C   C11       1.0  0.009997553026051214  0.1533828471031673  0.16615764287476753  1.0000
  C   C12       1.0  0.00219422690848847  0.0033102488461722586  0.17148029178342772  1.0000
  C   C13       1.0  0.02772148285205069  0.9202571662449002  0.29564592685308955  1.0000
  C   C14       1.0  0.061495646787321556  0.9857028882335483  0.4168985635301987  1.0000
  C   C15       1.0  0.9841047051052856  0.23876306857681073  0.03756374503480676  1.0000
  N   N4        1.0  0.9632940350159477  0.30739321482089954  0.9342071896392135  1.0000
  H   H6        1.0  0.08437306500859432  0.21931946980732842  0.7673398378289453  1.0000
  H   H7        1.0  0.045627938577376376  0.33763933784035427  0.28220085324927324  1.0000
  H   H8        1.0  0.9771404509228635  0.9501841016279345  0.07900438176422853  1.0000
  H   H9        1.0  0.023019151855503864  0.8037833999599346  0.2955239126586531  1.0000
  H   H10       1.0  0.07721114662756422  0.6894445033724348  0.6539473199949088  1.0000
  C   C16       1.0  0.06368436876879602  0.557847642032808  0.9919395578830588  1.0000
  C   C17       1.0  0.981380875860517  0.5669444783398466  0.06474134159570699  1.0000
  C   C18       1.0  0.9006091519011142  0.589989323339376  0.9886597264148046  1.0000
  C   C19       1.0  0.9026480268868877  0.602196318233974  0.8372071882416647  1.0000
  C   C20       1.0  0.9834985099607666  0.5909810769584767  0.7633890981543172  1.0000
  C   C21       1.0  0.06448628922456238  0.5667606295303698  0.8385038114356278  1.0000
  C   C22       1.0  0.8149780810344459  0.5998549049846045  0.06864719965381405  1.0000
  O   O1        1.0  0.8093369160553575  0.5440529081549774  0.1958029995620858  1.0000
  N   N5        1.0  0.7383606945314753  0.6729242701092069  0.005478796549001739  1.0000
  H   H11       1.0  0.2806076618149491  0.6131445631849937  0.09189421832806377  1.0000
  H   H12       1.0  0.8416660007290432  0.6163895071424759  0.7747031616926567  1.0000
  H   H13       1.0  0.2107406838032455  0.5973162005496647  0.5555517912881172  1.0000
  H   H14       1.0  0.7422923674591486  0.7351906619172229  0.9080551168713629  1.0000
  H   H15       1.0  0.6778369578974868  0.6726997542504475  0.06178288141317534  1.0000
  Zn  Zn1       1.0  0.9659650168137008  0.5622049835852947  0.4153247092610455  1.0000
  Zn  Zn2       1.0  0.1621970434571609  0.5624026162278233  0.41511797508702153  1.0000
  C   C23       1.0  0.06436782002728153  0.5593319792807865  0.6784622705927114  1.0000
  C   C24       1.0  0.06379637209808059  0.565277443411897  0.15198056017806705  1.0000
  C   C25       1.0  0.06246459867218079  0.8255796470020265  0.4105206707257106  1.0000
  C   C26       1.0  0.06569953716102184  0.2990280441496854  0.41992223010308627  1.0000
  O   O2        1.0  0.13830303135148103  0.5678396629525302  0.2056133030870979  1.0000
  O   O3        1.0  0.13879673475607057  0.5569186662646088  0.6246722019888271  1.0000
  O   O4        1.0  0.13725885698384652  0.7719170398797579  0.4083074713600565  1.0000
  O   O5        1.0  0.13984084199754776  0.3528412984462759  0.4219779257509253  1.0000
  O   O6        1.0  0.9883211513089376  0.7717663013008895  0.40846475866011445  1.0000
  O   O7        1.0  0.9898590184089436  0.5567696591607598  0.6248294192938388  1.0000
  O   O8        1.0  0.989365313729669  0.567690587358707  0.20576878719134872  1.0000
  O   O9        1.0  0.9909031245375163  0.3526922136776057  0.42213351788309184  1.0000
