data_image0
_chemical_formula_structural       NC10NC3NH7C12ClH9C12BrH9Zn2C4O8
_chemical_formula_sum              "N3 C41 H25 Cl1 Br1 Zn2 O8"
_cell_length_a       19.210446455230148
_cell_length_b       10.299768534541528
_cell_length_c       10.299148005577397
_cell_angle_alpha    85.55407396339785
_cell_angle_beta     89.9640022898858
_cell_angle_gamma    89.96529235611058

_space_group_name_H-M_alt    "P 1"
_space_group_IT_number       1

loop_
  _space_group_symop_operation_xyz
  'x, y, z'

loop_
  _atom_site_type_symbol
  _atom_site_label
  _atom_site_symmetry_multiplicity
  _atom_site_fract_x
  _atom_site_fract_y
  _atom_site_fract_z
  _atom_site_occupancy
  N   N1        1.0  0.656065830070719  0.42037930780684096  0.5673487629961966  1.0000
  C   C1        1.0  0.5958374240155813  0.42258672932030006  0.5675800713540795  1.0000
  C   C2        1.0  0.5210331621485869  0.4253235278101837  0.5678666336880867  1.0000
  C   C3        1.0  0.485429083919683  0.5415486124721098  0.5829869846535372  1.0000
  C   C4        1.0  0.4127636295698735  0.541700154230516  0.5829343951327304  1.0000
  C   C5        1.0  0.3758664501734707  0.4260324624934879  0.5679531688335431  1.0000
  C   C6        1.0  0.29854423765320026  0.424676045818966  0.5678024780510249  1.0000
  C   C7        1.0  0.2608134820183454  0.528254169652995  0.5044448157778423  1.0000
  C   C8        1.0  0.1880350299400919  0.5268519923140658  0.5043356415444975  1.0000
  C   C9        1.0  0.15198595643047313  0.42212920252679037  0.5675331478792882  1.0000
  C   C10       1.0  0.07705635474219  0.4208271762702134  0.567396224698987  1.0000
  N   N2        1.0  0.0168184367790572  0.41978030294666524  0.5672861733365162  1.0000
  C   C11       1.0  0.1889930711725528  0.31867677201537226  0.6308658090592028  1.0000
  C   C12       1.0  0.2617733369536059  0.3198046802664998  0.6310252128663731  1.0000
  C   C13       1.0  0.4140804824384177  0.3116275403938715  0.5531211188727558  1.0000
  N   N3        1.0  0.4848506033947024  0.3140724254641196  0.5532868547473104  1.0000
  H   H1        1.0  0.5135350302435718  0.6309779627617693  0.595042015578392  1.0000
  H   H2        1.0  0.3854994924471128  0.6317111276108363  0.5963842523135106  1.0000
  H   H3        1.0  0.2875591565559837  0.6095137320596524  0.45345736660697944  1.0000
  H   H4        1.0  0.15990664165797663  0.6072836543793312  0.45467859033031455  1.0000
  H   H5        1.0  0.16160806746464723  0.237281754115386  0.6804233058818434  1.0000
  H   H6        1.0  0.2892565394406748  0.23949196675179366  0.6821200638355409  1.0000
  H   H7        1.0  0.3878103620653109  0.22075367597195683  0.5396249541524527  1.0000
  C   C14       1.0  0.836379805867363  0.03871453166104043  0.5673153584405244  1.0000
  C   C15       1.0  0.840998428843813  0.04829238193774521  0.43083905388398214  1.0000
  C   C16       1.0  0.8434056402863591  0.9360060754506434  0.36169280257693326  1.0000
  C   C17       1.0  0.8411313732266039  0.8130044415032381  0.43085452151979525  1.0000
  C   C18       1.0  0.8365111127112793  0.8014350649168956  0.5673307643077621  1.0000
  C   C19       1.0  0.8341617153757223  0.9148472914078902  0.6347969147940067  1.0000
  C   C20       1.0  0.8482926839054612  0.9471923088666078  0.21731224941633087  1.0000
  C   C21       1.0  0.8087103339440511  0.04080892249750279  0.14285172521065514  1.0000
  C   C22       1.0  0.8133721781190391  0.05114182513252663  0.006964619847698027  1.0000
  C   C23       1.0  0.8575495721532691  0.9683806055532799  0.9438461109207048  1.0000
  C   C24       1.0  0.8971208913360815  0.8750764741545528  0.01679534369126712  1.0000
  C   C25       1.0  0.8925826596005771  0.8643511129128703  0.1526970715759952  1.0000
  Cl  Cl1       1.0  0.8633209885413127  0.9815909405005818  0.7733518956569778  1.0000
  H   H8        1.0  0.834584167557333  0.362518709297634  0.6193163016197869  1.0000
  H   H9        1.0  0.8436953004599466  0.14330793149042909  0.37810345505733056  1.0000
  H   H10       1.0  0.8420117040390888  0.726176882660354  0.3779056722996159  1.0000
  H   H11       1.0  0.8305979553828338  0.9066902332689836  0.740082101491838  1.0000
  H   H12       1.0  0.8347782916724688  0.4695727982765534  0.6193394979458351  1.0000
  H   H13       1.0  0.7735032589054337  0.10483650952211776  0.18960355316759414  1.0000
  H   H14       1.0  0.7824799652165202  0.12331518492344438  0.9508555162050096  1.0000
  H   H15       1.0  0.9315520802168744  0.8110038056557762  0.9683540909640209  1.0000
  H   H16       1.0  0.9243585555193611  0.7924698120002576  0.20731164472489794  1.0000
  C   C26       1.0  0.8365403446516819  0.4201267024188573  0.18593487439328227  1.0000
  C   C27       1.0  0.7710750216973629  0.48101470202105173  0.18051042933779216  1.0000
  C   C28       1.0  0.7377846807738417  0.5118331172686197  0.06062186979630103  1.0000
  C   C29       1.0  0.77084268685323  0.48094228338299566  0.9452334332549635  1.0000
  C   C30       1.0  0.8363505547284744  0.4200229465964205  0.9487112586290475  1.0000
  C   C31       1.0  0.8687958761199762  0.38998830192494943  0.06948580736519916  1.0000
  C   C32       1.0  0.6685307678537261  0.576247203603417  0.055928377773903915  1.0000
  C   C33       1.0  0.6539264912497764  0.6775883607725148  0.13601097687996244  1.0000
  C   C34       1.0  0.5887132423894597  0.7381050878712263  0.13139864241355537  1.0000
  C   C35       1.0  0.5373630754004326  0.6982469752401994  0.04704209366384138  1.0000
  C   C36       1.0  0.5512683448316203  0.597693837581567  0.9671071664268029  1.0000
  C   C37       1.0  0.6164223748102181  0.5369552452436854  0.9713269682050565  1.0000
  Br  Br1       1.0  0.4483227759683233  0.7810647738957107  0.04100897774754708  1.0000
  H   H17       1.0  0.8617353523343961  0.3967592149848413  0.5154928365614511  1.0000
  H   H18       1.0  0.7453925570856972  0.5030033967892527  0.26985484042111385  1.0000
  H   H19       1.0  0.7458479816731693  0.5060785305875792  0.8524218031637253  1.0000
  H   H20       1.0  0.9192919219475434  0.3430278049009383  0.07295377529619285  1.0000
  H   H21       1.0  0.9601877122340916  0.3057758023953646  0.7479265558679691  1.0000
  H   H22       1.0  0.6932092902487443  0.7111399641629754  0.20091242330730855  1.0000
  H   H23       1.0  0.5782148736382986  0.8161881929511315  0.19320654921251212  1.0000
  H   H24       1.0  0.5115741352054364  0.566294885318255  0.9018988339715297  1.0000
  H   H25       1.0  0.6257558401465905  0.4581847888615324  0.9097203435598474  1.0000
  Zn  Zn1       1.0  0.7601712363797787  0.4202029829027611  0.5673382003488723  1.0000
  Zn  Zn2       1.0  0.9127130100619711  0.4199460439571696  0.5673073720847899  1.0000
  C   C38       1.0  0.8363839942730307  0.4148689248465989  0.8045301128697737  1.0000
  C   C39       1.0  0.8365019181705096  0.4252817377941911  0.33011558673334007  1.0000
  C   C40       1.0  0.8364839917653163  0.6572653939697013  0.5621524563786389  1.0000
  C   C41       1.0  0.836401868340553  0.18288370846163662  0.5724933124455187  1.0000
  O   O1        1.0  0.8943778290513266  0.4269086420797647  0.3784922516214022  1.0000
  O   O2        1.0  0.8942837599649793  0.4130460301841783  0.7561296761577943  1.0000
  O   O3        1.0  0.8943637284998278  0.6087842456535648  0.5604080038641395  1.0000
  O   O4        1.0  0.894297808490131  0.2311704360014348  0.5742138265461703  1.0000
  O   O5        1.0  0.7785863858965998  0.6089785909475913  0.5604317458911805  1.0000
  O   O6        1.0  0.7785064176444033  0.41324193577675244  0.7561533489674808  1.0000
  O   O7        1.0  0.778600487157751  0.4271045026291431  0.37851436295047836  1.0000
  O   O8        1.0  0.7785204665678838  0.23136628724885178  0.5742360352478224  1.0000
