data_image0
_chemical_formula_structural       NC8NC6H8C12NCOCH13C13NH13Zn2C4O8
_chemical_formula_sum              "N4 C45 H34 O9 Zn2"
_cell_length_a       17.457602349358154
_cell_length_b       10.299155265289647
_cell_length_c       10.299780419254978
_cell_angle_alpha    85.55647119552991
_cell_angle_beta     92.86230706440831
_cell_angle_gamma    91.66712233072684

_space_group_name_H-M_alt    "P 1"
_space_group_IT_number       1

loop_
  _space_group_symop_operation_xyz
  'x, y, z'

loop_
  _atom_site_type_symbol
  _atom_site_label
  _atom_site_symmetry_multiplicity
  _atom_site_fract_x
  _atom_site_fract_y
  _atom_site_fract_z
  _atom_site_occupancy
  N   N1        1.0  0.7222867749959037  0.45262366068335164  0.6261156028139103  1.0000
  C   C1        1.0  0.6612206138761635  0.40669345663674794  0.6155148586322835  1.0000
  C   C2        1.0  0.5852517238189867  0.34956199956644807  0.6023370725640957  1.0000
  C   C3        1.0  0.5267038108527725  0.3897422861438145  0.6772184407224636  1.0000
  C   C4        1.0  0.4521724434794163  0.3347293486029965  0.6646543956623105  1.0000
  C   C5        1.0  0.39003252442139075  0.3771538646231738  0.7439566448134078  1.0000
  C   C6        1.0  0.31548935171169773  0.3956113993161426  0.6881900482249714  1.0000
  C   C7        1.0  0.2569414624322315  0.43560777271235884  0.7631794226967532  1.0000
  C   C8        1.0  0.1809603018290938  0.45467072116556273  0.7051972827725369  1.0000
  N   N2        1.0  0.11988436662402091  0.46999095168063043  0.6585797953226692  1.0000
  C   C9        1.0  0.2724444588647089  0.4573898762887517  0.8944438099166399  1.0000
  C   C10       1.0  0.34620278707125113  0.439321434355209  0.950597863175027  1.0000
  C   C11       1.0  0.4047389682691009  0.39950522405391203  0.8760661309244016  1.0000
  C   C12       1.0  0.4374779834156461  0.23885835780255274  0.5757763461615915  1.0000
  C   C13       1.0  0.4960140608241041  0.19895685344071087  0.5012948740005408  1.0000
  C   C14       1.0  0.5697605619450993  0.25408229114198955  0.5144088065673391  1.0000
  H   H1        1.0  0.539021829055721  0.4649553477031232  0.7438222152855214  1.0000
  H   H2        1.0  0.3031616920281276  0.3806183642110441  0.5861752737323997  1.0000
  H   H3        1.0  0.2275684879692206  0.4882870851633361  0.9532670430853294  1.0000
  H   H4        1.0  0.3580164369309377  0.4558721418595426  0.05223890493688831  1.0000
  H   H5        1.0  0.4612216336367883  0.3845224139007304  0.9221750480234139  1.0000
  H   H6        1.0  0.3810049727960272  0.19351784898478197  0.5651393011873451  1.0000
  H   H7        1.0  0.4842097657761195  0.1248600624642724  0.43349248530025525  1.0000
  H   H8        1.0  0.6146367021048436  0.2223154425349978  0.4560969471901734  1.0000
  C   C15       1.0  0.9211749086053929  0.07991373139274471  0.6424736945265508  1.0000
  C   C16       1.0  0.908088173703666  0.08902486116682587  0.5064858706439188  1.0000
  C   C17       1.0  0.9013786376389179  0.9765034527370454  0.4374133950058424  1.0000
  C   C18       1.0  0.9079047773805005  0.853757041228143  0.5061631248311445  1.0000
  C   C19       1.0  0.9210035913904554  0.8426912157404848  0.6422335219779416  1.0000
  C   C20       1.0  0.9275614289846169  0.9562833180612205  0.7095513793200512  1.0000
  C   C21       1.0  0.8875353993785111  0.9871156385717655  0.29355477510762745  1.0000
  C   C22       1.0  0.9264541671096984  0.08291607980968352  0.21531849368714995  1.0000
  C   C23       1.0  0.9134330805311119  0.09277224430316444  0.07993846262699211  1.0000
  C   C24       1.0  0.8617099239973076  0.006163464956325801  0.019967100816222324  1.0000
  C   C25       1.0  0.8218540470725205  0.9121383671378617  0.09805870997926425  1.0000
  C   C26       1.0  0.8349030810423977  0.9020273991832247  0.23340368913715334  1.0000
  N   N3        1.0  0.8462203887219721  0.01571019697801381  0.8811473323519798  1.0000
  C   C27       1.0  0.9022517390699304  0.05508156627484451  0.7875089127001864  1.0000
  O   O1        1.0  0.972629043720207  0.060693575609855215  0.8211124778189514  1.0000
  C   C28       1.0  0.8777958494381745  0.08044226039683312  0.6469782437046958  1.0000
  H   H9        1.0  0.9262324408954692  0.4038864275310801  0.6947766788099794  1.0000
  H   H10       1.0  0.9020254201933977  0.18379847091175486  0.4541834718087714  1.0000
  H   H11       1.0  0.9037850419007752  0.7667712391394472  0.4532005998858728  1.0000
  H   H12       1.0  0.9376580838478582  0.9485409609212329  0.8144413951483978  1.0000
  H   H13       1.0  0.9461863257262906  0.6145417822033424  0.8989659773058118  1.0000
  H   H14       1.0  0.9674153358122655  0.14975880514249965  0.25875357339744837  1.0000
  H   H15       1.0  0.942873069402315  0.16950617001715962  0.02276443775186342  1.0000
  H   H16       1.0  0.7808193716131941  0.8459963697857487  0.053750630403432746  1.0000
  H   H17       1.0  0.8029977857276026  0.8288022429529557  0.29120933053805764  1.0000
  H   H18       1.0  0.7921890723852453  0.9844775079724597  0.8456635451683425  1.0000
  H   H19       1.0  0.8224166830448097  0.13146836726502054  0.6380030413413929  1.0000
  H   H20       1.0  0.8707028440352692  0.9865169847855484  0.6011770050554576  1.0000
  H   H21       1.0  0.9214779220454182  0.14243446176502594  0.5951520594162951  1.0000
  C   C29       1.0  0.9211414967374286  0.46121985783058395  0.2610037530420133  1.0000
  C   C30       1.0  0.9766647745702682  0.5626817022572779  0.2568463434010646  1.0000
  C   C31       1.0  0.0047396832857817825  0.6141859296797223  0.13759097088432992  1.0000
  C   C32       1.0  0.9765593679242961  0.5628493435725797  0.021537509918471368  1.0000
  C   C33       1.0  0.9210370020708498  0.46138501944766785  0.02370344141797553  1.0000
  C   C34       1.0  0.8936368654230135  0.4111417821237764  0.14391596671023343  1.0000
  C   C35       1.0  0.06348113109912812  0.7215213865657748  0.13428457701207597  1.0000
  C   C36       1.0  0.05827144647845128  0.8258793034596816  0.03800189472270476  1.0000
  C   C37       1.0  0.11358512528749953  0.9268194122619811  0.034977574575187464  1.0000
  C   C38       1.0  0.1747410422093323  0.9257873608909601  0.12864657887648367  1.0000
  C   C39       1.0  0.1806862439994233  0.8211827135089347  0.22393262695133262  1.0000
  C   C40       1.0  0.12538843346576511  0.7202185970141457  0.22713102075208202  1.0000
  C   C41       1.0  0.2352999767362831  0.032658161573621225  0.12310492705019825  1.0000
  N   N4        1.0  0.2941196528713004  0.0025730675380795064  0.035039407873638025  1.0000
  H   H22       1.0  0.9000157176270077  0.42251264045334525  0.5900473000379763  1.0000
  H   H23       1.0  0.9974521127036088  0.6030985150591408  0.34640181336750087  1.0000
  H   H24       1.0  0.9987912825074001  0.6009782111839186  0.9295342500810237  1.0000
  H   H25       1.0  0.8508034406378671  0.3328675537842196  0.14635467607053965  1.0000
  H   H26       1.0  0.8998658732269472  0.4227448211564975  0.6970722552677528  1.0000
  H   H27       1.0  0.010955179207185138  0.8301593931852931  0.9658348939660794  1.0000
  H   H28       1.0  0.10862604998939696  0.006008820855607059  0.9597098566036739  1.0000
  H   H29       1.0  0.2282872441947273  0.8175673690047011  0.2955961586052278  1.0000
  H   H30       1.0  0.13168486239355356  0.6400703708189004  0.301042348866116  1.0000
  H   H31       1.0  0.2087698705470354  0.1265329048584971  0.08763000884870187  1.0000
  H   H32       1.0  0.26175457564395405  0.045124894757445855  0.22211829849018794  1.0000
  H   H33       1.0  0.3328165141622685  0.0819606277537881  0.0282364897757541  1.0000
  H   H34       1.0  0.32491644190854824  0.923608930414407  0.07835027440083797  1.0000
  Zn  Zn1       1.0  0.8370248511462081  0.45763200440609814  0.6354915666972847  1.0000
  Zn  Zn2       1.0  0.005146277158779127  0.46497196174835287  0.649214466788228  1.0000
  C   C42       1.0  0.9210561831151545  0.4561797384340434  0.8795383867788873  1.0000
  C   C43       1.0  0.9211167806850014  0.4664259466262682  0.40516792350440095  1.0000
  C   C44       1.0  0.9210327129940229  0.6985087123620292  0.6371036951563722  1.0000
  C   C45       1.0  0.9211401937790684  0.22409540980461304  0.6476026801707104  1.0000
  O   O2        1.0  0.9849096920244014  0.47095296703330924  0.45875850691851977  1.0000
  O   O3        1.0  0.984863544325618  0.4572225959475362  0.836362793488626  1.0000
  O   O4        1.0  0.9848437316501772  0.6529062698054675  0.6405949941083606  1.0000
  O   O5        1.0  0.9849294473426442  0.27526929994048444  0.654526204243361  1.0000
  O   O6        1.0  0.8572416235907518  0.6473346637106119  0.6301798245523684  1.0000
  O   O7        1.0  0.8572614359216669  0.45165255024299444  0.8259475541990562  1.0000
  O   O8        1.0  0.8573075838956042  0.465382875733914  0.4483417063246844  1.0000
  O   O9        1.0  0.8573273391994535  0.2696991993726277  0.6441095010151666  1.0000
