data_image0
_chemical_formula_structural       NC9NC3NH7C7OCH10C8H6Zn2C4O8
_chemical_formula_sum              "N3 C32 H23 O9 Zn2"
_cell_length_a       16.053384444249904
_cell_length_b       10.30083208314754
_cell_length_c       9.275144076552241
_cell_angle_alpha    85.93959476357365
_cell_angle_beta     90.26395466223778
_cell_angle_gamma    89.16926536021816

_space_group_name_H-M_alt    "P 1"
_space_group_IT_number       1

loop_
  _space_group_symop_operation_xyz
  'x, y, z'

loop_
  _atom_site_type_symbol
  _atom_site_label
  _atom_site_symmetry_multiplicity
  _atom_site_fract_x
  _atom_site_fract_y
  _atom_site_fract_z
  _atom_site_occupancy
  N   N1        1.0  0.7769787335939361  0.39398268012917903  0.40628510638713977  1.0000
  C   C1        1.0  0.7258437445276835  0.37265889346219105  0.3232228438415923  1.0000
  C   C2        1.0  0.6622971154551138  0.34616399430469125  0.22003926730586754  1.0000
  C   C3        1.0  0.6752491541503252  0.33319037943998664  0.07494893444200823  1.0000
  C   C4        1.0  0.5983604610008721  0.3075070088676988  0.01696452736385034  1.0000
  C   C5        1.0  0.541783108465344  0.3062402066805796  0.1298060970478392  1.0000
  C   C6        1.0  0.4510800671205926  0.28235066455713365  0.11844263182213943  1.0000
  C   C7        1.0  0.3956596854106569  0.32570388906522885  0.22264964883527158  1.0000
  C   C8        1.0  0.3100626614340122  0.3030462244010361  0.21176551180702807  1.0000
  C   C9        1.0  0.2538741768566726  0.34816042377135253  0.31860434355670053  1.0000
  N   N2        1.0  0.2087152218188338  0.3844258679250143  0.4044860326337891  1.0000
  C   C10       1.0  0.2791600666041002  0.23692345528794023  0.09668961630208406  1.0000
  C   C11       1.0  0.3335729667359369  0.19369128638919622  0.9927174759184103  1.0000
  C   C12       1.0  0.4189620156757551  0.2161805190066204  0.003161525816878003  1.0000
  N   N3        1.0  0.581538489180241  0.329975715198243  0.25360727372101866  1.0000
  H   H1        1.0  0.7337200871150766  0.34147051691430264  0.01765938616107499  1.0000
  H   H2        1.0  0.5855855907199203  0.293040668152462  0.9046797231897553  1.0000
  H   H3        1.0  0.4183804538096761  0.3787054034209669  0.3111945117622188  1.0000
  H   H4        1.0  0.2130960420242603  0.21890052402730634  0.08733750323694767  1.0000
  H   H5        1.0  0.30956056140509475  0.14232978032302168  0.9039124513402103  1.0000
  H   H6        1.0  0.4597104446895556  0.18023689052209435  0.9218804572129629  1.0000
  H   H7        1.0  0.5558469081618356  0.3329796451064233  0.3565556699554251  1.0000
  C   C13       1.0  0.9928749123127103  0.007867884102507501  0.4055366955276951  1.0000
  C   C14       1.0  0.9690068953921466  0.01689035008225881  0.2592736842388106  1.0000
  C   C15       1.0  0.9560183480316613  0.9043104754386266  0.18606371688512668  1.0000
  C   C16       1.0  0.9689449928815425  0.7816303894747917  0.25889309762093493  1.0000
  C   C17       1.0  0.992827081615553  0.7705306063030906  0.40524688432211264  1.0000
  C   C18       1.0  0.004456944764086315  0.884189422907591  0.47779336785263826  1.0000
  C   C19       1.0  0.932863690107648  0.915102008874723  0.028494712581895513  1.0000
  O   O1        1.0  0.006473429645363015  0.9188697315472046  0.9457868997214002  1.0000
  C   C20       1.0  0.9855743215822366  0.9290274287590272  0.7975773997644415  1.0000
  H   H8        1.0  0.0029608295550713776  0.3318173646214879  0.4611219165154381  1.0000
  H   H9        1.0  0.9604374769704153  0.11140264468696803  0.20168586175800063  1.0000
  H   H10       1.0  0.9603323213174163  0.6949945826206017  0.2010440056082443  1.0000
  H   H11       1.0  0.022872050531038465  0.8764678683096037  0.5905934722690886  1.0000
  H   H12       1.0  0.038790496257707474  0.5423491986261978  0.6808888531219062  1.0000
  H   H13       1.0  0.8943971241694857  0.005073054513543779  0.004558115834682357  1.0000
  H   H14       1.0  0.8944290378598937  0.8299808020056698  0.0042274686785461766  1.0000
  H   H15       1.0  0.04396810479156255  0.9318745066459182  0.7340221728520184  1.0000
  H   H16       1.0  0.9499510669315615  0.020534946181027792  0.7676669670267686  1.0000
  H   H17       1.0  0.9499638879583324  0.8430503998382507  0.7673097234815915  1.0000
  C   C21       1.0  0.9908888729468421  0.386585380209492  0.982115462935325  1.0000
  C   C22       1.0  0.9365667820580293  0.47247638098686173  0.0482833485939933  1.0000
  C   C23       1.0  0.8889289397204572  0.5646534352660288  0.9655120428955483  1.0000
  C   C24       1.0  0.8947515211281722  0.5728228128973771  0.8150541445808046  1.0000
  C   C25       1.0  0.947344124961052  0.48687486603624364  0.7471376693798533  1.0000
  C   C26       1.0  0.994813094487609  0.3918131479391054  0.8286681345626561  1.0000
  C   C27       1.0  0.8459034859303435  0.6685963455311845  0.7299166098857426  1.0000
  C   C28       1.0  0.80500802691156  0.7487812607210441  0.6586203737215346  1.0000
  H   H18       1.0  0.16408508341115274  0.21228520062121126  0.10006259697027109  1.0000
  H   H19       1.0  0.932399852354265  0.4703856731328662  0.16497166644477046  1.0000
  H   H20       1.0  0.8481093593511321  0.6304860863846757  0.019095840330854093  1.0000
  H   H21       1.0  0.9497321396501394  0.49221798347505336  0.6300410551812643  1.0000
  H   H22       1.0  0.10962045777898057  0.2703739312559954  0.5584207765384357  1.0000
  H   H23       1.0  0.7691103031357939  0.8191665153415484  0.596035603040133  1.0000
  Zn  Zn1       1.0  0.9015685945718749  0.3912213786892256  0.4057742500820758  1.0000
  Zn  Zn2       1.0  0.08412539265434821  0.3871766626165285  0.40500867357294834  1.0000
  C   C29       1.0  0.9940697969177608  0.38565176394271694  0.6686534900046814  1.0000
  C   C30       1.0  0.9916261843760091  0.39274787254818483  0.14212956614091965  1.0000
  C   C31       1.0  0.9928051867558854  0.626335744614992  0.39955780618483905  1.0000
  C   C32       1.0  0.992890732698138  0.15206233356128251  0.4112253276619573  1.0000
  O   O2        1.0  0.061152986652110324  0.3932754473440626  0.19554123078121655  1.0000
  O   O3        1.0  0.06309937844755309  0.38205336103486215  0.6146603559537189  1.0000
  O   O4        1.0  0.06207726277743131  0.5764087492393248  0.3973636907760214  1.0000
  O   O5        1.0  0.06217503952639603  0.19892006914181956  0.41283778814176775  1.0000
  O   O6        1.0  0.9235188854021161  0.5794779735455646  0.39794513576692747  1.0000
  O   O7        1.0  0.9245410006142734  0.3851241450373586  0.6152417234971013  1.0000
  O   O8        1.0  0.9225946008438037  0.3963461753915371  0.19612086536359752  1.0000
  O   O9        1.0  0.9236166542162146  0.20199078856870467  0.413417530794967  1.0000
