data_image0
_chemical_formula_structural       NC12NC2H8C6NH7C7OH5Zn2C4O8
_chemical_formula_sum              "N3 C31 H20 O9 Zn2"
_cell_length_a       19.240039667572717
_cell_length_b       9.274771166103584
_cell_length_c       9.274074313596557
_cell_angle_alpha    86.0140142098405
_cell_angle_beta     90.2336027468708
_cell_angle_gamma    90.59704977044065

_space_group_name_H-M_alt    "P 1"
_space_group_IT_number       1

loop_
  _space_group_symop_operation_xyz
  'x, y, z'

loop_
  _atom_site_type_symbol
  _atom_site_label
  _atom_site_symmetry_multiplicity
  _atom_site_fract_x
  _atom_site_fract_y
  _atom_site_fract_z
  _atom_site_occupancy
  N   N1        1.0  0.6591984959793551  0.563026649179136  0.4073501417109118  1.0000
  C   C1        1.0  0.5990501274471138  0.5630267415658738  0.40735005061139473  1.0000
  C   C2        1.0  0.5242320906528899  0.5630268703414782  0.4073498979995618  1.0000
  C   C3        1.0  0.48763015580629887  0.49255031231370916  0.5222427964944263  1.0000
  C   C4        1.0  0.4149589829855582  0.4924280976641644  0.5223390605832525  1.0000
  C   C5        1.0  0.37789985572262086  0.5630269706763087  0.4073496451391967  1.0000
  C   C6        1.0  0.4152164083243343  0.633626053492476  0.29236044521737203  1.0000
  C   C7        1.0  0.48788667102819905  0.633503578605427  0.29245684572506914  1.0000
  C   C8        1.0  0.3006947646311149  0.5630268822684854  0.40734953940676344  1.0000
  C   C9        1.0  0.2629690978124766  0.4376831179150376  0.4540428709945079  1.0000
  C   C10       1.0  0.19029880126009097  0.4378008587688311  0.45394130682635353  1.0000
  C   C11       1.0  0.1543624771239108  0.5630267394582626  0.4073496072614857  1.0000
  C   C12       1.0  0.07954443989072459  0.5630266158294501  0.40734988344599965  1.0000
  N   N2        1.0  0.019396123276974795  0.563026572754616  0.4073501148259131  1.0000
  C   C13       1.0  0.1913736641488619  0.6882527037942943  0.36075784884834206  1.0000
  C   C14       1.0  0.2640447528392195  0.6883706429400636  0.3606561038771112  1.0000
  H   H1        1.0  0.5152472645832255  0.4379931991749606  0.6119470641436495  1.0000
  H   H2        1.0  0.3877748625154706  0.4387695616392744  0.6132796941518275  1.0000
  H   H3        1.0  0.3882139980434401  0.6872846190113089  0.20141975516449118  1.0000
  H   H4        1.0  0.5156993337719418  0.6880605833833152  0.20275288434671634  1.0000
  H   H5        1.0  0.2896349817364735  0.3389968734368611  0.48880998809029785  1.0000
  H   H6        1.0  0.16216389061160766  0.34012457996398116  0.4898529870787136  1.0000
  H   H7        1.0  0.16407875124528407  0.7859289555042537  0.3248461847926931  1.0000
  H   H8        1.0  0.29156534807377477  0.787056974872963  0.32588893693686405  1.0000
  C   C15       1.0  0.8371684087462195  0.1394377855099213  0.40813568751268514  1.0000
  C   C16       1.0  0.82091510946255  0.22148139201800007  0.27925027036623207  1.0000
  C   C17       1.0  0.8111494071571651  0.1551588337610681  0.14954712990205254  1.0000
  C   C18       1.0  0.8176715479254262  0.005405974271917025  0.14778995460113586  1.0000
  C   C19       1.0  0.8326360474454597  0.922025560416693  0.2749048631419535  1.0000
  C   C20       1.0  0.8414328638864887  0.9866045240281094  0.4065770449826067  1.0000
  N   N3        1.0  0.795320275867108  0.2402880334962922  0.019245187228048573  1.0000
  H   H9        1.0  0.9160240796751343  0.2221942950970268  0.7235579478646608  1.0000
  H   H10       1.0  0.8174095590670943  0.33806866611343334  0.27869664508631065  1.0000
  H   H11       1.0  0.8104867805514333  0.9529391737123911  0.0479964737361358  1.0000
  H   H12       1.0  0.8356907343708875  0.8058210271558393  0.2707771828076986  1.0000
  H   H13       1.0  0.8917326392292201  0.691644720171979  0.6211758634565623  1.0000
  H   H14       1.0  0.7905315005074689  0.3523614758183746  0.019198376493349212  1.0000
  H   H15       1.0  0.7882057172045991  0.1918617068194701  0.9218219202883112  1.0000
  C   C21       1.0  0.8384475270675927  0.5588666565366245  0.9841228176190739  1.0000
  C   C22       1.0  0.7780613811722783  0.6014522383214731  0.053933329103015286  1.0000
  C   C23       1.0  0.7211561435457715  0.6556302870657975  0.9746514267444244  1.0000
  C   C24       1.0  0.7233068075679346  0.6686638164718437  0.8233474447455169  1.0000
  C   C25       1.0  0.7827457568004356  0.6243367551918456  0.7524002515807693  1.0000
  C   C26       1.0  0.8401537111803622  0.5671755707611064  0.8305899359915587  1.0000
  C   C27       1.0  0.6638137505694346  0.7268086082778904  0.7378497690614192  1.0000
  O   O1        1.0  0.6095514736556883  0.7669990600930946  0.7984821105286355  1.0000
  H   H16       1.0  0.008084399080343193  0.5221162880124872  0.09097897409032019  1.0000
  H   H17       1.0  0.67571925060239  0.6886513943983521  0.03199233303245585  1.0000
  H   H18       1.0  0.7835863160032784  0.6313271075344881  0.6352307271385733  1.0000
  H   H19       1.0  0.9541548934470618  0.5371951179928351  0.5531792515165335  1.0000
  H   H20       1.0  0.6663258538225557  0.7355641633350598  0.6209641422165104  1.0000
  Zn  Zn1       1.0  0.7631437570579193  0.5630228576569294  0.4073584515026536  1.0000
  Zn  Zn2       1.0  0.915450845450108  0.5630187134907243  0.4073535890722575  1.0000
  C   C28       1.0  0.8398007473650856  0.5598586058328558  0.6706000560212633  1.0000
  C   C29       1.0  0.8387955277783408  0.5661847866833687  0.14411212261097672  1.0000
  C   C30       1.0  0.8406116284568724  0.8264155701088042  0.40112836271822694  1.0000
  C   C31       1.0  0.837984586145954  0.2996260901250325  0.4135838959435023  1.0000
  O   O2        1.0  0.8967120346082599  0.5686329523478344  0.19780416119784494  1.0000
  O   O3        1.0  0.8974817901647578  0.5574062025855491  0.6169039140795136  1.0000
  O   O4        1.0  0.8981358107538768  0.7726543370429944  0.39930361244572943  1.0000
  O   O5        1.0  0.8960579618811684  0.3533848271497524  0.41540435475037074  1.0000
  O   O6        1.0  0.7825365886519176  0.7726567440008114  0.39930768581861553  1.0000
  O   O7        1.0  0.7818825766284566  0.5574103418286637  0.6169079074169861  1.0000
  O   O8        1.0  0.7811128173723778  0.5686370243155887  0.1978064218249831  1.0000
  O   O9        1.0  0.7804587448083171  0.35338888986105327  0.41540672345284335  1.0000
