data_image0
_chemical_formula_structural       NC6NC3H6C6NCH9C6NCOH5Zn2C4O8
_chemical_formula_sum              "N4 C27 H20 O9 Zn2"
_cell_length_a       14.934028789175542
_cell_length_b       9.273386996610926
_cell_length_c       9.273733555595832
_cell_angle_alpha    86.07967468279998
_cell_angle_beta     89.98656969987877
_cell_angle_gamma    89.3610420342759

_space_group_name_H-M_alt    "P 1"
_space_group_IT_number       1

loop_
  _space_group_symop_operation_xyz
  'x, y, z'

loop_
  _atom_site_type_symbol
  _atom_site_label
  _atom_site_symmetry_multiplicity
  _atom_site_fract_x
  _atom_site_fract_y
  _atom_site_fract_z
  _atom_site_occupancy
  N   N1        1.0  0.8328216062232303  0.5609294754141138  0.4071758373021974  1.0000
  C   C1        1.0  0.7553426606527833  0.5598236272892319  0.40649894040850154  1.0000
  C   C2        1.0  0.6589549797187781  0.5584428697808843  0.40565396105934703  1.0000
  C   C3        1.0  0.6105026886752197  0.6659760382226094  0.47135453356709517  1.0000
  C   C4        1.0  0.5169980744208761  0.6648673969492795  0.47067704748210487  1.0000
  C   C5        1.0  0.4710328501873023  0.5562804665371678  0.40433271820006705  1.0000
  C   C6        1.0  0.374372138957646  0.5586103226746295  0.4057574970543036  1.0000
  N   N2        1.0  0.2968801599444782  0.560459360784175  0.4068885669862241  1.0000
  C   C7        1.0  0.5194891127161905  0.44725959427408735  0.3377226378421305  1.0000
  C   C8        1.0  0.47193009260060514  0.32920304253014576  0.2655937917186681  1.0000
  C   C9        1.0  0.6136175390689975  0.449499496383134  0.3390912243812221  1.0000
  H   H1        1.0  0.6450035227203055  0.7507022065332736  0.5231210796112654  1.0000
  H   H2        1.0  0.4804231485540142  0.7489410493726587  0.5220447763947267  1.0000
  H   H3        1.0  0.4288560236362391  0.37734003426249685  0.17692404154690355  1.0000
  H   H4        1.0  0.42959920560666875  0.26719416800169915  0.345794728031837  1.0000
  H   H5        1.0  0.5198793965692647  0.2527360351007202  0.21886759589253724  1.0000
  H   H6        1.0  0.6516783511604244  0.36654427721808086  0.28840712464485424  1.0000
  C   C10       1.0  0.06760878814815996  0.13704523103030475  0.40773869357314174  1.0000
  C   C11       1.0  0.08332478367215579  0.21910540361406936  0.277418635675597  1.0000
  C   C12       1.0  0.09060971326376932  0.15319554259781087  0.14709574201082676  1.0000
  C   C13       1.0  0.08228877844784227  0.0028674371446806303  0.14376089972583794  1.0000
  C   C14       1.0  0.0681507607744005  0.9198378899649291  0.27362731185286204  1.0000
  C   C15       1.0  0.062101636147444864  0.984332589160813  0.406338197900064  1.0000
  N   N3        1.0  0.08881660431226997  0.9318930225440424  0.010747922828895142  1.0000
  C   C16       1.0  0.10372633064788433  0.008263973937468137  0.8700989548792721  1.0000
  H   H7        1.0  0.08591494874417216  0.4017125708609137  0.6443397293495914  1.0000
  H   H8        1.0  0.08789187309768137  0.335727680469184  0.27564765527835  1.0000
  H   H9        1.0  0.10189705345269456  0.22073484840225577  0.049193174708945575  1.0000
  H   H10       1.0  0.06392411734971293  0.8034166847487336  0.27135635867595265  1.0000
  H   H11       1.0  0.09508909976464164  0.8567071359432354  0.7573412956657692  1.0000
  H   H12       1.0  0.08248613033258251  0.8195644098887094  0.013740406161335317  1.0000
  H   H13       1.0  0.04821429805173327  0.08662484463866105  0.8450927683976146  1.0000
  H   H14       1.0  0.16853831730085456  0.06575255902571399  0.8702913934543276  1.0000
  H   H15       1.0  0.10597926720161706  0.9299087712014442  0.7847768321771  1.0000
  C   C17       1.0  0.0648335266784319  0.5561436384325111  0.9838189714563533  1.0000
  C   C18       1.0  0.9825873858434896  0.5479466489386369  0.057835075412587804  1.0000
  C   C19       1.0  0.901079588008458  0.5514401792494814  0.982930402504151  1.0000
  C   C20       1.0  0.9017635827564505  0.5678201722620044  0.8315551015083673  1.0000
  C   C21       1.0  0.9826772892455815  0.5738657744873414  0.7563393970313794  1.0000
  C   C22       1.0  0.06487691291305438  0.5652341795538973  0.8302579140855685  1.0000
  N   N4        1.0  0.8185471246567949  0.5464639035389081  0.06300437084390918  1.0000
  C   C23       1.0  0.7383053118705093  0.48011211970892353  0.016381707527570726  1.0000
  O   O1        1.0  0.7383306847182456  0.4037655463764421  0.9091573659080984  1.0000
  H   H16       1.0  0.2751909590751408  0.6561045193093362  0.07983619222968705  1.0000
  H   H17       1.0  0.8398596016680632  0.577488186856175  0.7709628994872673  1.0000
  H   H18       1.0  0.20730191199590908  0.6264611815735898  0.5449618038537225  1.0000
  H   H19       1.0  0.817977115595038  0.584823428758352  0.16636016149342225  1.0000
  H   H20       1.0  0.6770241270305848  0.4922731035792906  0.07682044138334997  1.0000
  Zn  Zn1       1.0  0.9667389196777187  0.5607900338903375  0.40710125989536783  1.0000
  Zn  Zn2       1.0  0.16296295397004276  0.5605871113301746  0.40697494680505786  1.0000
  C   C24       1.0  0.06490407121535702  0.557768633933966  0.6702723119425802  1.0000
  C   C25       1.0  0.06479993336866352  0.5636103308743363  0.143804031823995  1.0000
  C   C26       1.0  0.06313771668625097  0.8241155820341104  0.40085981792177106  1.0000
  C   C27       1.0  0.06656623221003266  0.2972616503837211  0.4132166055896589  1.0000
  O   O2        1.0  0.139254698439238  0.5660329191411944  0.19744855480892443  1.0000
  O   O3        1.0  0.13937881491020235  0.5551909393445731  0.6165315071727264  1.0000
  O   O4        1.0  0.13795145752888888  0.7702694854847236  0.3989790102794992  1.0000
  O   O5        1.0  0.14068198878996285  0.3509543822299235  0.41500094366785545  1.0000
  O   O6        1.0  0.9890198178961553  0.770422763061325  0.3990752630680914  1.0000
  O   O7        1.0  0.9904471640035621  0.5553459493823827  0.6166276802519861  1.0000
  O   O8        1.0  0.9903230478300923  0.5661878602964041  0.19754299522604812  1.0000
  O   O9        1.0  0.9917503382497627  0.35110931422699054  0.4150954921547967  1.0000
