data_image0
_chemical_formula_structural       NC9NC5H8C6H6C8H10Zn2C4O8
_chemical_formula_sum              "N2 C32 H24 Zn2 O8"
_cell_length_a       17.807436237873137
_cell_length_b       10.681118228259551
_cell_length_c       9.275657083861812
_cell_angle_alpha    85.85420768060796
_cell_angle_beta     88.90332225934053
_cell_angle_gamma    88.3900060031841

_space_group_name_H-M_alt    "P 1"
_space_group_IT_number       1

loop_
  _space_group_symop_operation_xyz
  'x, y, z'

loop_
  _atom_site_type_symbol
  _atom_site_label
  _atom_site_symmetry_multiplicity
  _atom_site_fract_x
  _atom_site_fract_y
  _atom_site_fract_z
  _atom_site_occupancy
  N   N1        1.0  0.7146525251679807  0.33073070485533806  0.39829314362396384  1.0000
  C   C1        1.0  0.6541203308999308  0.29674064613857465  0.38605564510664414  1.0000
  C   C2        1.0  0.5788249343548139  0.254460756187769  0.3708335256845847  1.0000
  C   C3        1.0  0.5612605325496143  0.18505283394760516  0.25427148008373024  1.0000
  C   C4        1.0  0.48815300155554725  0.14389437601708074  0.2394000586453109  1.0000
  C   C5        1.0  0.4315613168198278  0.17177962518384723  0.3410546585146983  1.0000
  C   C6        1.0  0.3538664451497215  0.12815002202564818  0.32534129832657466  1.0000
  C   C7        1.0  0.2915598900793531  0.2071206977042357  0.3541357256849811  1.0000
  C   C8        1.0  0.21830998560620993  0.16576652339681683  0.33927949131912594  1.0000
  C   C9        1.0  0.1549515138255849  0.24733431977478013  0.3684778831865576  1.0000
  N   N2        1.0  0.1040242944543054  0.312909190532959  0.3919525837821274  1.0000
  C   C10       1.0  0.2067832186357026  0.04519277533192345  0.29560068907794834  1.0000
  C   C11       1.0  0.2682324459938698  0.9662086986466563  0.2667969484395605  1.0000
  C   C12       1.0  0.34136393507799867  0.007181373970370999  0.28142834789007476  1.0000
  C   C13       1.0  0.4498160227081967  0.24166539312432464  0.457860067787768  1.0000
  C   C14       1.0  0.5229772062771285  0.2826394507761969  0.4725587036446397  1.0000
  H   H1        1.0  0.6040153767226698  0.16299958706164627  0.17466426280839853  1.0000
  H   H2        1.0  0.4756566302082017  0.09170021173340892  0.14735133123515531  1.0000
  H   H3        1.0  0.299912401977717  0.3012542835041174  0.3861917155186736  1.0000
  H   H4        1.0  0.1503713762385905  0.012317419500558875  0.2838394611453554  1.0000
  H   H5        1.0  0.259187613963416  0.8728597140329248  0.23340840126574694  1.0000
  H   H6        1.0  0.388100385717176  0.9436857011667273  0.26028298926252913  1.0000
  H   H7        1.0  0.4077715620438344  0.26320553881067643  0.5389042871435918  1.0000
  H   H8        1.0  0.5360071546802085  0.33600522161571456  0.5634511380885583  1.0000
  C   C15       1.0  0.9093419803464536  0.9540698223828049  0.3951290315777396  1.0000
  C   C16       1.0  0.9418069557727644  0.8785811811890163  0.5090829313029439  1.0000
  C   C17       1.0  0.9418069445839378  0.7476989432314166  0.5090828655783632  1.0000
  C   C18       1.0  0.9093419674503427  0.6895602272077829  0.3951290941038268  1.0000
  C   C19       1.0  0.8769038673780816  0.7650366604370538  0.2812693621604938  1.0000
  C   C20       1.0  0.8769038785627425  0.8959289182848942  0.2812694204852866  1.0000
  H   H9        1.0  0.8765108972309437  0.261552318139606  0.27989138476044517  1.0000
  H   H10       1.0  0.9672545798887908  0.9205922541875655  0.5984053305876738  1.0000
  H   H11       1.0  0.96725448763019  0.6920882297009253  0.598405306626181  1.0000
  H   H12       1.0  0.8514529253195837  0.7230712301007824  0.1919353000525721  1.0000
  H   H13       1.0  0.8514529056785922  0.9514956699813681  0.191935288650817  1.0000
  H   H14       1.0  0.8765111756124954  0.39962295276961796  0.27989099027594055  1.0000
  C   C21       1.0  0.911255773905651  0.31983958862207307  0.9717780186566056  1.0000
  C   C22       1.0  0.9501751502082731  0.41352110983596785  0.03608464378114085  1.0000
  C   C23       1.0  0.9824603684915661  0.5128661679424829  0.9518203333384044  1.0000
  C   C24       1.0  0.9769412938769969  0.5176242990665898  0.8012713195287402  1.0000
  C   C25       1.0  0.9396446755000657  0.42442919507378896  0.7354856656761677  1.0000
  C   C26       1.0  0.9074281611493552  0.3237904165582907  0.8184801341184706  1.0000
  C   C27       1.0  0.024853348383376828  0.6113497272740396  0.02232991281933772  1.0000
  C   C28       1.0  0.10737967442112906  0.5718377143833973  0.03883066843291605  1.0000
  H   H15       1.0  0.8775309036424268  0.12160207425130376  0.27015423266901184  1.0000
  H   H16       1.0  0.9540598189747411  0.4110215701701924  0.1527464117364361  1.0000
  H   H17       1.0  0.0022706003069212816  0.5930054343146296  0.7344726316947772  1.0000
  H   H18       1.0  0.9377112439671237  0.42939800259885763  0.6185428296187929  1.0000
  H   H19       1.0  0.8187185759892007  0.1835212915962945  0.5520902734271727  1.0000
  H   H20       1.0  0.020738690903464817  0.702451765971603  0.9565566130882188  1.0000
  H   H21       1.0  0.9998640234519435  0.6266765008201128  0.13061333371160133  1.0000
  H   H22       1.0  0.11272828179955408  0.48250545975229797  0.10749175130857735  1.0000
  H   H23       1.0  0.13381974303178398  0.5591019808085617  0.9312253055614989  1.0000
  H   H24       1.0  0.13759399096833858  0.6456293801779887  0.09090527286457406  1.0000
  Zn  Zn1       1.0  0.8270167680069874  0.32558449815369017  0.39647173261779267  1.0000
  Zn  Zn2       1.0  0.9916599798405117  0.31804524440213305  0.3937858467099198  1.0000
  C   C29       1.0  0.9081499877255552  0.3180547897424344  0.6584353082714984  1.0000
  C   C30       1.0  0.9105285573809913  0.3255764512487111  0.13182238322486106  1.0000
  C   C31       1.0  0.9093640655114502  0.55051023021724  0.3893842759979893  1.0000
  C   C32       1.0  0.9093144230664642  0.09311950912193899  0.4008734932753566  1.0000
  O   O1        1.0  0.9727657377177868  0.32463522383117044  0.18451545429240812  1.0000
  O   O2        1.0  0.9708731974618862  0.31327295133652794  0.6037032969469411  1.0000
  O   O3        1.0  0.9718527315745448  0.5009837048840372  0.38644269854607805  1.0000
  O   O4        1.0  0.9717861479122033  0.13692448131037738  0.40177594551584694  1.0000
  O   O5        1.0  0.8468905437506821  0.5067052638195509  0.3884816347208435  1.0000
  O   O6        1.0  0.8459110099820422  0.31899601449811366  0.6057421562536993  1.0000
  O   O7        1.0  0.8478035581234127  0.330358235262852  0.18655258031442035  1.0000
  O   O8        1.0  0.8468239678261408  0.14264748428944807  0.4038131796242619  1.0000
