data_image0
_chemical_formula_structural       NC8NC6H8C6NCOCH9C8H6Zn2C4O8
_chemical_formula_sum              "N3 C34 H23 O9 Zn2"
_cell_length_a       17.457602349358154
_cell_length_b       10.300268703208214
_cell_length_c       9.275144076552241
_cell_angle_alpha    85.95897192473107
_cell_angle_beta     93.32514331016303
_cell_angle_gamma    91.66828978603887

_space_group_name_H-M_alt    "P 1"
_space_group_IT_number       1

loop_
  _space_group_symop_operation_xyz
  'x, y, z'

loop_
  _atom_site_type_symbol
  _atom_site_label
  _atom_site_symmetry_multiplicity
  _atom_site_fract_x
  _atom_site_fract_y
  _atom_site_fract_z
  _atom_site_occupancy
  N   N1        1.0  0.7156189183655619  0.442874026716519  0.4749167903709006  1.0000
  C   C1        1.0  0.6545000690569959  0.3968758920611841  0.4631308377860457  1.0000
  C   C2        1.0  0.5784656815346799  0.339659994993061  0.44847970746453725  1.0000
  C   C3        1.0  0.5202837789995741  0.3803564284870552  0.5316407241356944  1.0000
  C   C4        1.0  0.4456899528675179  0.3252630529022618  0.5176717779267577  1.0000
  C   C5        1.0  0.3839376501582546  0.3682342046999048  0.6057424517300307  1.0000
  C   C6        1.0  0.3091229472626063  0.38630116974375217  0.5438254586877593  1.0000
  C   C7        1.0  0.25094159108735553  0.4268144654154187  0.6271063453263277  1.0000
  C   C8        1.0  0.17467810993872881  0.44547134366291635  0.5627294191332659  1.0000
  N   N2        1.0  0.11337518962295885  0.4604650956127539  0.5109705383452026  1.0000
  C   C9        1.0  0.2670851352413434  0.4495075691314139  0.7728688472435554  1.0000
  C   C10       1.0  0.3411168914030989  0.4318323443946259  0.8352161970217595  1.0000
  C   C11       1.0  0.3992887749736493  0.3915023746340947  0.7524435329395922  1.0000
  C   C12       1.0  0.4305600230469749  0.22878559056119752  0.41895080144283625  1.0000
  C   C13       1.0  0.48873204605719317  0.18837068751181102  0.33623391822430637  1.0000
  C   C14       1.0  0.5625436897548034  0.2435803768685301  0.35081349376897863  1.0000
  H   H1        1.0  0.5329282042979354  0.45602353981874433  0.6056217243395512  1.0000
  H   H2        1.0  0.2962975149479626  0.37059988530312193  0.43054381015867604  1.0000
  H   H3        1.0  0.2224966702313816  0.48081032353094316  0.8381959609169012  1.0000
  H   H4        1.0  0.3534265252843072  0.449088500624846  0.9480833606753207  1.0000
  H   H5        1.0  0.4559959528678547  0.37684245960490903  0.8036378090477316  1.0000
  H   H6        1.0  0.3740341600220992  0.1833768231275866  0.4071247323099123  1.0000
  H   H7        1.0  0.4765955234171681  0.11381136020434382  0.2609223448249751  1.0000
  H   H8        1.0  0.6071347987359403  0.21141165365743667  0.2860539246898526  1.0000
  C   C15       1.0  0.9145787311382984  0.07032556698698421  0.49295958539789564  1.0000
  C   C16       1.0  0.9268780909045488  0.07931509455967747  0.3442396747128629  1.0000
  C   C17       1.0  0.9341240262954653  0.9665928339895561  0.2697025403328317  1.0000
  C   C18       1.0  0.9267046181103372  0.8441481294665889  0.34425990984746613  1.0000
  C   C19       1.0  0.9144227533851341  0.8330039603493604  0.49294086186443425  1.0000
  C   C20       1.0  0.9087139544264932  0.9467066625058667  0.5666195509389502  1.0000
  N   N3        1.0  0.9455198516055544  0.9741510818095898  0.11696886972398457  1.0000
  C   C21       1.0  0.9902461400066236  0.07475064408227361  0.04357199459038208  1.0000
  O   O1        1.0  0.03386697435060348  0.15009303411796404  0.11408734005112021  1.0000
  C   C22       1.0  0.9895884654322615  0.08459400439819277  0.8820433264449555  1.0000
  H   H9        1.0  0.9087850497469148  0.3943048995973111  0.5490631775186305  1.0000
  H   H10       1.0  0.9293006410134925  0.17390340246536917  0.28582052441670536  1.0000
  H   H11       1.0  0.9312170364981571  0.7576151049307631  0.28566651981627045  1.0000
  H   H12       1.0  0.8992487696773938  0.9389649595008455  0.6813309386310757  1.0000
  H   H13       1.0  0.9086325990226924  0.5013448669670848  0.5488360621234494  1.0000
  H   H14       1.0  0.9241322393312349  0.8974176360814001  0.05711460835748161  1.0000
  H   H15       1.0  0.930673001805449  0.06469685777220603  0.8358374568650349  1.0000
  H   H16       1.0  0.008436872799107323  0.18382370463940603  0.8417218863589975  1.0000
  H   H17       1.0  0.02903379930115935  0.012363929492523068  0.8459402674206924  1.0000
  C   C23       1.0  0.9126934578855502  0.4489274426742669  0.06950092945993469  1.0000
  C   C24       1.0  0.8626344133278772  0.5314047136521796  0.13093665533779686  1.0000
  C   C25       1.0  0.8187325837201449  0.6205885045459958  0.04402155946201591  1.0000
  C   C26       1.0  0.8240956763524766  0.6291242121141924  0.894077156400158  1.0000
  C   C27       1.0  0.8725613686610841  0.5464812416760451  0.8307411724317673  1.0000
  C   C28       1.0  0.9163080404388526  0.4544020975004459  0.9163995789954719  1.0000
  C   C29       1.0  0.7790783795734492  0.7218284711236786  0.8046910155820597  1.0000
  C   C30       1.0  0.7413900051387041  0.7994437978135864  0.7298378577435103  1.0000
  H   H18       1.0  0.07228310986100905  0.28551376123226047  0.20257164088995627  1.0000
  H   H19       1.0  0.8587957657950377  0.529051933690401  0.2472588462116776  1.0000
  H   H20       1.0  0.7811162208974815  0.6838559874226515  0.09404990726585183  1.0000
  H   H21       1.0  0.8747606409755262  0.5519746507140805  0.7138558773353405  1.0000
  H   H22       1.0  0.022096827610764497  0.3401791192574526  0.656175125842196  1.0000
  H   H23       1.0  0.7083074359551589  0.8675734871254273  0.6641308480274937  1.0000
  Zn  Zn1       1.0  0.8304028225214392  0.44794700055633263  0.48532944917020626  1.0000
  Zn  Zn2       1.0  0.9985913237815441  0.4553815509596564  0.5005696855315376  1.0000
  C   C31       1.0  0.9156241509896087  0.44819382344896064  0.756317534974793  1.0000
  C   C32       1.0  0.9133718321955676  0.45513644868028175  0.22958190764081501  1.0000
  C   C33       1.0  0.9144237717381921  0.6888041714850496  0.4871978542283122  1.0000
  C   C34       1.0  0.9145721547031779  0.21452453840289823  0.4987016601035832  1.0000
  O   O2        1.0  0.9774261616760495  0.46003595557454613  0.2890901366890395  1.0000
  O   O3        1.0  0.9792210007772294  0.44893598594476747  0.7083758776174378  1.0000
  O   O4        1.0  0.9782508253363367  0.6432318565760953  0.4910597533484518  1.0000
  O   O5        1.0  0.9783962792622456  0.26574009099701357  0.5064061476383126  1.0000
  O   O6        1.0  0.8505978096462244  0.6375884579832929  0.4794929818551015  1.0000
  O   O7        1.0  0.8515679844364095  0.4432941470575767  0.6968090291994709  1.0000
  O   O8        1.0  0.8497731379961185  0.4543940602294863  0.27752155459059025  1.0000
  O   O9        1.0  0.8507432560424969  0.2600981870624761  0.4948376736512474  1.0000
