data_image0
_chemical_formula_structural       NC5NC4H6C6ClH5C7F3H5Zn2C4O8
_chemical_formula_sum              "N2 C26 H16 Cl1 F3 Zn2 O8"
_cell_length_a       13.854160002989762
_cell_length_b       9.276545438789551
_cell_length_c       9.272721663655245
_cell_angle_alpha    85.91497059500672
_cell_angle_beta     90.51618417104903
_cell_angle_gamma    89.40960627284836

_space_group_name_H-M_alt    "P 1"
_space_group_IT_number       1

loop_
  _space_group_symop_operation_xyz
  'x, y, z'

loop_
  _atom_site_type_symbol
  _atom_site_label
  _atom_site_symmetry_multiplicity
  _atom_site_fract_x
  _atom_site_fract_y
  _atom_site_fract_z
  _atom_site_occupancy
  N   N1        1.0  0.8884964204973879  0.5692788745192789  0.41037119915642495  1.0000
  C   C1        1.0  0.8156360218984393  0.5941600080932206  0.3513230048901369  1.0000
  C   C2        1.0  0.7249966495448344  0.6251128094716394  0.2778647901203517  1.0000
  C   C3        1.0  0.6380585794575891  0.5960311413216098  0.34959087961453966  1.0000
  C   C4        1.0  0.5498542369359051  0.6251128236704369  0.277864766949679  1.0000
  C   C5        1.0  0.4605278820988989  0.5941598613072616  0.35132309645083126  1.0000
  N   N2        1.0  0.3887228503368321  0.5692788110336902  0.41037119903217023  1.0000
  C   C6        1.0  0.5486165318660057  0.683882555806596  0.13443192373481416  1.0000
  C   C7        1.0  0.6355064249096715  0.7151133768721324  0.06260363776004585  1.0000
  C   C8        1.0  0.634165551397709  0.7740607576259038  0.9076786848405607  1.0000
  C   C9        1.0  0.7236936203697375  0.6838825539829905  0.13443183343023524  1.0000
  H   H1        1.0  0.6390426120383801  0.5504332378918101  0.46060520075324596  1.0000
  H   H2        1.0  0.4802598228430176  0.7053576631392499  0.07877947536100091  1.0000
  H   H3        1.0  0.6984073133240959  0.8420773398024465  0.8839256425381024  1.0000
  H   H4        1.0  0.5686988360425618  0.8420773420383595  0.8839257076424807  1.0000
  H   H5        1.0  0.6343608735307545  0.6831581247504039  0.8360506907870966  1.0000
  H   H6        1.0  0.7910827806374854  0.7053577751301439  0.07877938997701615  1.0000
  C   C10       1.0  0.14152594803079663  0.14584238307937158  0.41013351433331424  1.0000
  C   C11       1.0  0.14108459448131058  0.22875877634093955  0.2770402525020417  1.0000
  C   C12       1.0  0.1318792708743599  0.1629603098743384  0.14684378850935165  1.0000
  C   C13       1.0  0.12290386661301486  0.013374104808474127  0.1477375456913201  1.0000
  C   C14       1.0  0.12481958825696005  0.9289058037055623  0.27838787914196206  1.0000
  C   C15       1.0  0.13570274045215625  0.9927043061353261  0.4106213960699345  1.0000
  Cl  Cl1       1.0  0.13013359305147174  0.26867251314802526  0.982222414913739  1.0000
  H   H7        1.0  0.19226579779491446  0.41005349288283677  0.6368390227803558  1.0000
  H   H8        1.0  0.1455900812049613  0.34546357367549874  0.27418535115411186  1.0000
  H   H9        1.0  0.11535995140351725  0.962096186499299  0.04700978688332946  1.0000
  H   H10       1.0  0.1200846205828871  0.8126306943426825  0.2757363353429323  1.0000
  H   H11       1.0  0.10475928567879661  0.6952565410967699  0.6437910597431968  1.0000
  C   C16       1.0  0.1360765604138492  0.566934588160497  0.9869328760247357  1.0000
  C   C17       1.0  0.17796789856309386  0.4489921563899362  0.0695872714585295  1.0000
  C   C18       1.0  0.22826022009119248  0.3396266948511948  0.0036192653458204677  1.0000
  C   C19       1.0  0.23371718938250138  0.3462666781033164  0.8524732721586439  1.0000
  C   C20       1.0  0.19127444708892424  0.46120696481462486  0.7688488451988831  1.0000
  C   C21       1.0  0.14115212716954212  0.5716120823278589  0.8338219990802047  1.0000
  C   C22       1.0  0.2704454948645705  0.21214800100189488  0.09389318388208179  1.0000
  F   F1        1.0  0.30266329619606536  0.2540562215903752  0.22615027899534954  1.0000
  F   F2        1.0  0.3477954165658062  0.15250525245247504  0.02473891412173157  1.0000
  F   F3        1.0  0.20029556429360285  0.10835695211140407  0.11686909335237637  1.0000
  H   H12       1.0  0.0725318992753361  0.9103013895071963  0.06335007447020313  1.0000
  H   H13       1.0  0.17318354766197158  0.4438693796551183  0.18642995342838664  1.0000
  H   H14       1.0  0.26997586135405127  0.2615620898128812  0.7985166171467507  1.0000
  H   H15       1.0  0.19540738489718582  0.4616681385985016  0.652194493732539  1.0000
  H   H16       1.0  0.9662655475820274  0.8148177076796791  0.7126712469137799  1.0000
  Zn  Zn1       1.0  0.03285104472166234  0.5692750417346819  0.41037953293075724  1.0000
  Zn  Zn2       1.0  0.2443683793984588  0.5692709096256221  0.41037470096020234  1.0000
  C   C23       1.0  0.14023006315070694  0.5649835475867566  0.6737385291135944  1.0000
  C   C24       1.0  0.13699165906990204  0.5735642238805059  0.14701584730228665  1.0000
  C   C25       1.0  0.13676402594564552  0.8325976063656089  0.4047830274789008  1.0000
  C   C26       1.0  0.14045763647212994  0.30594843311317055  0.41597142481819005  1.0000
  O   O1        1.0  0.21756854397287118  0.5757813313657769  0.20073931750737573  1.0000
  O   O2        1.0  0.22018994608167067  0.5627622138412034  0.6200109758362836  1.0000
  O   O3        1.0  0.21739000411619824  0.778863959049142  0.4028275062499289  1.0000
  O   O4        1.0  0.22036841304290924  0.35967959587709664  0.4179226789835044  1.0000
  O   O5        1.0  0.05685093889666959  0.7788663554861457  0.40283155490152023  1.0000
  O   O6        1.0  0.059650868484433905  0.5627663422696277  0.6200149486007303  1.0000
  O   O7        1.0  0.05702945639520095  0.5757853999709422  0.20074155657602108  1.0000
  O   O8        1.0  0.05982932618013168  0.35968365476594144  0.41792502615644134  1.0000
