data_image0
_chemical_formula_structural       NC12NC2H8C6NCSNH8C6OCH6Zn2C4O8
_chemical_formula_sum              "N4 C32 H22 S1 O9 Zn2"
_cell_length_a       17.80743265337812
_cell_length_b       9.275078345756787
_cell_length_c       9.273891588657154
_cell_angle_alpha    85.90085258643155
_cell_angle_beta     91.22048166911064
_cell_angle_gamma    90.00966593732542

_space_group_name_H-M_alt    "P 1"
_space_group_IT_number       1

loop_
  _space_group_symop_operation_xyz
  'x, y, z'

loop_
  _atom_site_type_symbol
  _atom_site_label
  _atom_site_symmetry_multiplicity
  _atom_site_fract_x
  _atom_site_fract_y
  _atom_site_fract_z
  _atom_site_occupancy
  N   N1        1.0  0.7199575880843726  0.5481623473497039  0.44352387850418773  1.0000
  C   C1        1.0  0.6695256690300466  0.5802962578298827  0.3671983003046482  1.0000
  C   C2        1.0  0.606783307191294  0.6202685469937212  0.2722588841641403  1.0000
  C   C3        1.0  0.6192222723115073  0.6789846076572821  0.13158342387887578  1.0000
  C   C4        1.0  0.5583710121224321  0.7173111992961803  0.039307474073178465  1.0000
  C   C5        1.0  0.4849300917829508  0.6972076658722739  0.08697388529823002  1.0000
  C   C6        1.0  0.4715121862439904  0.6383643956893106  0.2281692010564063  1.0000
  C   C7        1.0  0.5332208335674247  0.6000412508586596  0.32042681816676  1.0000
  C   C8        1.0  0.3934875812224803  0.6170524163424753  0.27901308529006613  1.0000
  C   C9        1.0  0.37445624606553146  0.648532440022423  0.41990461929584133  1.0000
  C   C10       1.0  0.3009854908668695  0.6284754900491574  0.46761591126715546  1.0000
  C   C11       1.0  0.24559898526121296  0.5766645937352934  0.37536633378363804  1.0000
  C   C12       1.0  0.1699840078955706  0.5560078337084025  0.42463392495561836  1.0000
  N   N2        1.0  0.10919492016357439  0.5394011872214983  0.4642416790685622  1.0000
  C   C13       1.0  0.2639361364393303  0.5450024649976741  0.2350778456634586  1.0000
  C   C14       1.0  0.3373549312493238  0.5650732463056386  0.18708255787835973  1.0000
  H   H1        1.0  0.6758822729122362  0.695099890768003  0.09332326707624543  1.0000
  H   H2        1.0  0.5681208856664338  0.763076121253328  0.9306730451184353  1.0000
  H   H3        1.0  0.4386689335233088  0.729458118529182  0.014096851420587699  1.0000
  H   H4        1.0  0.524161761392841  0.5527364925160205  0.42892750597531976  1.0000
  H   H5        1.0  0.41613926782440275  0.6904888785424956  0.4925521348038654  1.0000
  H   H6        1.0  0.2873578526975077  0.6537300238848661  0.5763045094528005  1.0000
  H   H7        1.0  0.2215422252103529  0.5044576983059885  0.16288459090366428  1.0000
  H   H8        1.0  0.3504443752034566  0.5381163451499975  0.07873538508811209  1.0000
  C   C15       1.0  0.9123820542753407  0.1202192159162101  0.45509762494908834  1.0000
  C   C16       1.0  0.8880755627153618  0.20240073052985108  0.32961918698343884  1.0000
  C   C17       1.0  0.8712578926933254  0.13653833779514057  0.20230965539154355  1.0000
  C   C18       1.0  0.8791868301054759  0.9867334871555786  0.19689642156581955  1.0000
  C   C19       1.0  0.9007781975299262  0.9031282131995579  0.32262981646133193  1.0000
  C   C20       1.0  0.9167775405665581  0.9673332181256459  0.45268073122993613  1.0000
  N   N3        1.0  0.861140231044176  0.9165467698608886  0.06733178021189913  1.0000
  C   C21       1.0  0.8712501502282234  0.9815457120561074  0.9238900113892964  1.0000
  S   S1        1.0  0.8225598921807717  0.9215282028546937  0.7889979622414782  1.0000
  N   N4        1.0  0.9290785780887052  0.0859378195711735  0.8946640008907789  1.0000
  H   H9        1.0  0.9164792962938147  0.3844097662371754  0.6934871361579046  1.0000
  H   H10       1.0  0.8833918219913663  0.3188926324762491  0.32905259875273274  1.0000
  H   H11       1.0  0.8518375842853964  0.2028211701477498  0.10809524445469013  1.0000
  H   H12       1.0  0.9039032941056654  0.786741091450205  0.31912365001406795  1.0000
  H   H13       1.0  0.9819899105022311  0.6717274005178085  0.6584038305636464  1.0000
  H   H14       1.0  0.8399220832576269  0.8113070634825996  0.07809661170184001  1.0000
  H   H15       1.0  0.9675223803048969  0.11183237321052554  0.9752737130701267  1.0000
  H   H16       1.0  0.9359614227605532  0.1331052164761297  0.7901361122213408  1.0000
  C   C22       1.0  0.9157903884358526  0.5399284940755815  0.030690251913280127  1.0000
  C   C23       1.0  0.9776138667138193  0.599466447026798  0.10236396305133777  1.0000
  C   C24       1.0  0.035232978759637046  0.6698707738130838  0.025396740910684123  1.0000
  C   C25       1.0  0.031235197113655515  0.6810939625381228  0.8737085055928016  1.0000
  C   C26       1.0  0.9709851049501063  0.6206471390101416  0.8007790754300884  1.0000
  C   C27       1.0  0.9133691985547207  0.5476238673015865  0.8770881136838456  1.0000
  O   O1        1.0  0.09499611133902608  0.7276790076380935  0.10359925183204943  1.0000
  C   C28       1.0  0.15723845077221776  0.80219600480988  0.039598289198278916  1.0000
  H   H17       1.0  0.7366834876614721  0.45536009158057716  0.13245146331750313  1.0000
  H   H18       1.0  0.07478636981544007  0.7351982611597467  0.810932096645067  1.0000
  H   H19       1.0  0.7938960581838969  0.48494397229207986  0.5954908519547844  1.0000
  H   H20       1.0  0.13758400762558656  0.9002561959204147  0.9738511392105217  1.0000
  H   H21       1.0  0.1881833710022225  0.7299065174472668  0.9710567182918908  1.0000
  H   H22       1.0  0.19586377142755174  0.8358070088929265  0.12638984264414593  1.0000
  Zn  Zn1       1.0  0.8322830337245971  0.5456302904349124  0.44951090733302257  1.0000
  Zn  Zn2       1.0  0.9968693773550659  0.5419215855211581  0.4582664387454268  1.0000
  C   C29       1.0  0.9137953772829849  0.5404232768589079  0.717117117895893  1.0000
  C   C30       1.0  0.9153588401129525  0.5471303797962555  0.19066046004785053  1.0000
  C   C31       1.0  0.9159592693143899  0.8071584968523703  0.4473945920990266  1.0000
  C   C32       1.0  0.913194882708138  0.28039342883666385  0.46038306463420003  1.0000
  O   O2        1.0  0.9776736355614816  0.5481336716638174  0.24767061973795257  1.0000
  O   O3        1.0  0.9763978039219234  0.5366040718872473  0.6667517922121283  1.0000
  O   O4        1.0  0.9781443278308065  0.7519961679563993  0.4489488952287142  1.0000
  O   O5        1.0  0.975927055853065  0.3327415861958281  0.46547340564915873  1.0000
  O   O6        1.0  0.8532252990613863  0.7548102910273424  0.4423039374338727  1.0000
  O   O7        1.0  0.8514787843607016  0.53941992719142  0.6601067526323872  1.0000
  O   O8        1.0  0.852754620745791  0.5509494609505956  0.24102384764307638  1.0000
  O   O9        1.0  0.8510080406716964  0.3355573661485438  0.4588267416310732  1.0000
