data_image0
_chemical_formula_structural       NC6NC3H6C6ClH5C6OCH7Zn2C4O8
_chemical_formula_sum              "N2 C26 H18 Cl1 O9 Zn2"
_cell_length_a       14.934028789175542
_cell_length_b       10.30297070629231
_cell_length_c       9.273891588657152
_cell_angle_alpha    86.0762958320409
_cell_angle_beta     89.65557739525336
_cell_angle_gamma    89.96080423122717

_space_group_name_H-M_alt    "P 1"
_space_group_IT_number       1

loop_
  _space_group_symop_operation_xyz
  'x, y, z'

loop_
  _atom_site_type_symbol
  _atom_site_label
  _atom_site_symmetry_multiplicity
  _atom_site_fract_x
  _atom_site_fract_y
  _atom_site_fract_z
  _atom_site_occupancy
  N   N1        1.0  0.8486716216042909  0.4071453997483503  0.40957090655566075  1.0000
  C   C1        1.0  0.7711879229389678  0.4061512760818092  0.4088921026969181  1.0000
  C   C2        1.0  0.6747943066233661  0.4049100169872975  0.4080447423411768  1.0000
  C   C3        1.0  0.6268046433644909  0.50157923521045  0.4739307348790933  1.0000
  C   C4        1.0  0.5332952599905311  0.5005825988662391  0.4732513371428917  1.0000
  C   C5        1.0  0.4868628742392115  0.4029660789038426  0.40671977083134325  1.0000
  C   C6        1.0  0.3902121818792011  0.40506055042679373  0.4081485672187606  1.0000
  N   N2        1.0  0.3127281529475573  0.4067227803108353  0.4092828256138201  1.0000
  C   C7        1.0  0.5348501105806447  0.30495945868344193  0.33992170512324393  1.0000
  C   C8        1.0  0.4867831844595853  0.19883002026628985  0.2675892935934723  1.0000
  C   C9        1.0  0.6289881732242123  0.30697306602258245  0.3412941539438441  1.0000
  H   H1        1.0  0.6616699831179751  0.5777456169468747  0.5258433747865827  1.0000
  H   H2        1.0  0.49708203310058247  0.576162387852373  0.524764034765447  1.0000
  H   H3        1.0  0.4443397754659707  0.24228531489059327  0.1789888001091644  1.0000
  H   H4        1.0  0.4437619343035671  0.142904292755341  0.3476970546269256  1.0000
  H   H5        1.0  0.5344035360810766  0.13008839500900748  0.22073124454174775  1.0000
  H   H6        1.0  0.6666920970099649  0.2323987158462986  0.2904670140517993  1.0000
  C   C10       1.0  0.08070415332061781  0.025686678533452408  0.4094330718031214  1.0000
  C   C11       1.0  0.1730698185872519  0.022685061192054157  0.4371386290316548  1.0000
  C   C12       1.0  0.21889919676323732  0.9042388940527928  0.4508852863002895  1.0000
  C   C13       1.0  0.17306981810731814  0.7875770919718109  0.4371385612430599  1.0000
  C   C14       1.0  0.08070416259078916  0.7881716210080913  0.40943315430922556  1.0000
  C   C15       1.0  0.03497157097902834  0.907819467432031  0.39571539613143436  1.0000
  Cl  Cl1       1.0  0.33428591970082633  0.9019926749738796  0.48549602890353594  1.0000
  H   H7        1.0  0.04591162773806509  0.35412044697985756  0.39899606665827125  1.0000
  H   H8        1.0  0.20980588884218343  0.11201650853061776  0.4481576787183601  1.0000
  H   H9        1.0  0.20980585379001623  0.6968153148930356  0.4481575751813782  1.0000
  H   H10       1.0  0.9637363670525891  0.9092060783155286  0.37434799318478285  1.0000
  H   H11       1.0  0.04591162242816104  0.46109248251958357  0.3989963387990991  1.0000
  C   C16       1.0  0.08217108414165784  0.4034894078812785  0.9861568443034375  1.0000
  C   C17       1.0  0.1555014017989178  0.4582586928502593  0.05468502290241118  1.0000
  C   C18       1.0  0.22375256184054904  0.5227270842428764  0.9748329090968308  1.0000
  C   C19       1.0  0.21891746270491563  0.5327512838350152  0.8233952983414765  1.0000
  C   C20       1.0  0.14746837026523196  0.47719418199856123  0.7535237539476807  1.0000
  C   C21       1.0  0.07923723089819944  0.41036880765358497  0.8327093066098747  1.0000
  O   O1        1.0  0.29463747987265193  0.5759001255449987  0.049995513487558256  1.0000
  C   C22       1.0  0.36837446218247893  0.644158546183136  0.9828733688076641  1.0000
  H   H12       1.0  0.8691842674575994  0.323944247602682  0.09730630345227653  1.0000
  H   H13       1.0  0.2704993240984159  0.582279980353811  0.7584411421931772  1.0000
  H   H14       1.0  0.146745859136165  0.48388595861497685  0.6364430265934495  1.0000
  H   H15       1.0  0.9372032888248346  0.3516665372438281  0.557354831452264  1.0000
  H   H16       1.0  0.34433823304792543  0.7320356827503272  0.9184927158323636  1.0000
  H   H17       1.0  0.40571045024319097  0.5796914419386099  0.9124375202508159  1.0000
  H   H18       1.0  0.4142110693209218  0.675148887526438  0.06768845944613  1.0000
  Zn  Zn1       1.0  0.9825882970656682  0.4070200295145989  0.40949608994519093  1.0000
  Zn  Zn2       1.0  0.1788114667106887  0.4068376115676353  0.4093694266829777  1.0000
  C   C23       1.0  0.079789809094301  0.40389646339734875  0.6726927838067962  1.0000
  C   C24       1.0  0.08161209694273469  0.4099628149402162  0.14617287291158299  1.0000
  C   C25       1.0  0.0807194734107317  0.6439990338821915  0.4036892456584915  1.0000
  C   C26       1.0  0.08068236540267  0.1698586853365136  0.41517648795007367  1.0000
  O   O2        1.0  0.15589016598679573  0.41206045888751636  0.19982764582882506  1.0000
  O   O3        1.0  0.1544405869536708  0.4016593856668504  0.6189414614775841  1.0000
  O   O4        1.0  0.15519029361937242  0.5955452609576517  0.40171920182620946  1.0000
  O   O5        1.0  0.1551403927379648  0.21817459206796283  0.4170497974485845  1.0000
  O   O6        1.0  0.006259304077080419  0.5956830490778728  0.4018157192152263  1.0000
  O   O7        1.0  0.005509597673701181  0.4017987329695339  0.619037902012058  1.0000
  O   O8        1.0  0.006959182772228619  0.4121997468656767  0.19992235338558206  1.0000
  O   O9        1.0  0.006209409145215393  0.2183138716384774  0.41714461307259976  1.0000
