data_image0
_chemical_formula_structural       NC9NC5H8C7NH5C7F3H5Zn2C4O8
_chemical_formula_sum              "N3 C32 H18 F3 Zn2 O8"
_cell_length_a       17.807436237873137
_cell_length_b       10.302819778424748
_cell_length_c       9.272291681409873
_cell_angle_alpha    86.06048140812513
_cell_angle_beta     89.81650948764641
_cell_angle_gamma    88.39001009685678

_space_group_name_H-M_alt    "P 1"
_space_group_IT_number       1

loop_
  _space_group_symop_operation_xyz
  'x, y, z'

loop_
  _atom_site_type_symbol
  _atom_site_label
  _atom_site_symmetry_multiplicity
  _atom_site_fract_x
  _atom_site_fract_y
  _atom_site_fract_z
  _atom_site_occupancy
  N   N1        1.0  0.7014295678580189  0.3750162379666869  0.398353988453076  1.0000
  C   C1        1.0  0.6407963445206243  0.3397431706724954  0.38611695514457867  1.0000
  C   C2        1.0  0.5653752787828646  0.2958673592863392  0.370895414391782  1.0000
  C   C3        1.0  0.5468485870527845  0.22357789564140781  0.25433779795940725  1.0000
  C   C4        1.0  0.4736182821283853  0.1808656949266898  0.2394669418573332  1.0000
  C   C5        1.0  0.4178658159702705  0.21006526655665891  0.3411176792660673  1.0000
  C   C6        1.0  0.3400412195736539  0.1647887797553773  0.32540491642162417  1.0000
  C   C7        1.0  0.27797238250308187  0.2467413642391969  0.35419824916681275  1.0000
  C   C8        1.0  0.2045998294692625  0.20382630423359172  0.33934257956178104  1.0000
  C   C9        1.0  0.1414824107599222  0.2884725245183988  0.3685398614480182  1.0000
  N   N2        1.0  0.0907489913998731  0.3565222387950191  0.39201366964939166  1.0000
  C   C10       1.0  0.19271246361140465  0.0787005422386462  0.29566543776571086  1.0000
  C   C11       1.0  0.2539238960827003  0.9967340380820431  0.2668627920944908  1.0000
  C   C12       1.0  0.3271761775691803  0.03925294887615549  0.2814936353294317  1.0000
  C   C13       1.0  0.4370848209115564  0.2828508167214887  0.45791865012069244  1.0000
  C   C14       1.0  0.5103673519582318  0.32537135269843387  0.47261672720741243  1.0000
  H   H1        1.0  0.5889462267641068  0.20048745615233976  0.1747336054356592  1.0000
  H   H2        1.0  0.460361993181375  0.12649207917202743  0.14742171212939792  1.0000
  H   H3        1.0  0.2865895391317145  0.3444229283155682  0.38625302035233244  1.0000
  H   H4        1.0  0.1362035240812535  0.044584468169365225  0.2839046569380901  1.0000
  H   H5        1.0  0.2446034183258215  0.8998620769441481  0.2334755141918248  1.0000
  H   H6        1.0  0.3737380583483763  0.9733654315117244  0.26034908057958916  1.0000
  H   H7        1.0  0.39570942796832737  0.30541342058670806  0.538959790131631  1.0000
  H   H8        1.0  0.5241476721455341  0.3809562904033392  0.563505707892173  1.0000
  C   C15       1.0  0.896092885315449  0.9845160995580574  0.3951899994975616  1.0000
  C   C16       1.0  0.8527158282890238  0.9776714459910043  0.5221427496919981  1.0000
  C   C17       1.0  0.8311353148149723  0.8571635869826292  0.5853029438678816  1.0000
  C   C18       1.0  0.852715888936469  0.7423704333365749  0.5221427534289473  1.0000
  C   C19       1.0  0.8960928978580106  0.7470121264818287  0.39519004214320463  1.0000
  C   C20       1.0  0.9175548049425306  0.8686057464004975  0.33237698761206724  1.0000
  C   C21       1.0  0.7866675452379756  0.8512759192578901  0.7154481666418011  1.0000
  N   N3        1.0  0.750930008986852  0.8465441904375889  0.820042236113437  1.0000
  H   H9        1.0  0.9125230538452241  0.31443111385629446  0.34710277024936653  1.0000
  H   H10       1.0  0.8356083996906352  0.06583066131512272  0.5722112668639792  1.0000
  H   H11       1.0  0.8356084933202316  0.6496810524734503  0.5722112310897216  1.0000
  H   H12       1.0  0.9510056588520868  0.8730346578634068  0.2344755971928254  1.0000
  H   H13       1.0  0.9125231231703775  0.4214480308387249  0.34710287869339207  1.0000
  C   C22       1.0  0.894511687650504  0.3625066431429285  0.9718550685132271  1.0000
  C   C23       1.0  0.945034470408206  0.27839818503301506  0.05125164810392646  1.0000
  C   C24       1.0  0.9996393146196613  0.20572937365386723  0.9815653550399294  1.0000
  C   C25       1.0  0.005906960158571507  0.21675049354889353  0.8305709441493203  1.0000
  C   C26       1.0  0.9538873430642582  0.2966289116041063  0.7500285435147371  1.0000
  C   C27       1.0  0.8976740810806723  0.369021665303922  0.8185249484019561  1.0000
  C   C28       1.0  0.0635801786146315  0.13538278897452538  0.7550463689925451  1.0000
  F   F1        1.0  0.12648074967803002  0.1104733340020987  0.8409411422535396  1.0000
  F   F2        1.0  0.08606480461296707  0.19928613850661422  0.6266077721589665  1.0000
  F   F3        1.0  0.0326296981189531  0.01854517866385708  0.7255913480966645  1.0000
  H   H14       1.0  0.7887243347819358  0.6298823207127625  0.05366852684779788  1.0000
  H   H15       1.0  0.9433006453759508  0.27072938878501085  0.168326571277452  1.0000
  H   H16       1.0  0.037482241295659025  0.14160238344672127  0.04616240012155436  1.0000
  H   H17       1.0  0.9560291351061443  0.2999902105399772  0.6330058704099906  1.0000
  H   H18       1.0  0.7274313547076064  0.5014807891004047  0.7079551277223057  1.0000
  Zn  Zn1       1.0  0.8137787736774635  0.36967586921907014  0.3965326466885566  1.0000
  Zn  Zn2       1.0  0.9783998116496574  0.3618521157806009  0.39384686288530957  1.0000
  C   C29       1.0  0.897074653556921  0.3626181308813712  0.6584862693993823  1.0000
  C   C30       1.0  0.895105729955329  0.36891140789357024  0.13189335233885813  1.0000
  C   C31       1.0  0.8960675697819283  0.602840164037264  0.38944545763218685  1.0000
  C   C32       1.0  0.8961127578437195  0.1286878181703408  0.40093424188009563  1.0000
  O   O1        1.0  0.9577779219600958  0.36808616777632297  0.1845844214018475  1.0000
  O   O2        1.0  0.9593460187514938  0.357504340550126  0.6037563375902062  1.0000
  O   O3        1.0  0.9585319493021436  0.5514867219046813  0.3865039923199711  1.0000
  O   O4        1.0  0.9585919348317093  0.17410379754715022  0.40183665949872927  1.0000
  O   O5        1.0  0.8335865943183023  0.5574241901237391  0.38854285098408026  1.0000
  O   O6        1.0  0.8344006634771458  0.36344336800773863  0.6057951193892166  1.0000
  O   O7        1.0  0.8328325602619497  0.37402513665251824  0.18662146998196638  1.0000
  O   O8        1.0  0.8336465735341906  0.18004275796918146  0.40387381616114504  1.0000
