data_image0
_chemical_formula_structural       NC9NC5H8C12ClH9C12NH11Zn2C4O8
_chemical_formula_sum              "N3 C42 H28 Cl1 Zn2 O8"
_cell_length_a       17.807436237873137
_cell_length_b       10.299768534541528
_cell_length_c       10.299774167527174
_cell_angle_alpha    85.57901690489705
_cell_angle_beta     89.3859809594266
_cell_angle_gamma    88.408414792471

_space_group_name_H-M_alt    "P 1"
_space_group_IT_number       1

loop_
  _space_group_symop_operation_xyz
  'x, y, z'

loop_
  _atom_site_type_symbol
  _atom_site_label
  _atom_site_symmetry_multiplicity
  _atom_site_fract_x
  _atom_site_fract_y
  _atom_site_fract_z
  _atom_site_occupancy
  N   N1        1.0  0.7077663323980472  0.3872994559082803  0.5572148754943784  1.0000
  C   C1        1.0  0.6471730165323067  0.3521071469236749  0.5461907836682005  1.0000
  C   C2        1.0  0.5718015913662904  0.3083317901215598  0.5324780104205735  1.0000
  C   C3        1.0  0.5537040197615795  0.23688694153296105  0.42747826349743784  1.0000
  C   C4        1.0  0.4805222401438402  0.19427292473784916  0.4140814175181238  1.0000
  C   C5        1.0  0.4243892457534102  0.22272622466370715  0.505651861359882  1.0000
  C   C6        1.0  0.3466158947411309  0.17755343863154893  0.4914965564920521  1.0000
  C   C7        1.0  0.28445296274769305  0.2593157030621356  0.5174358599692876  1.0000
  C   C8        1.0  0.2111288396612303  0.21649865623534792  0.5040526908771015  1.0000
  C   C9        1.0  0.1479162928564581  0.3009523278489623  0.5303559305951915  1.0000
  N   N2        1.0  0.0971063924830694  0.36884723730892016  0.5515030087660333  1.0000
  C   C10       1.0  0.1993840575483512  0.09166136256930123  0.46470486496169533  1.0000
  C   C11       1.0  0.2606896177157209  0.009885243622014714  0.43875717188696156  1.0000
  C   C12       1.0  0.3338942492730413  0.05230769700490034  0.45193780393098376  1.0000
  C   C13       1.0  0.4431782987743044  0.29466549503268613  0.6108708376868635  1.0000
  C   C14       1.0  0.5164129249157244  0.33708907494187595  0.6241120359632757  1.0000
  H   H1        1.0  0.5960996151529455  0.21438085443246546  0.3557680937039871  1.0000
  H   H2        1.0  0.4676053303822272  0.1405670749240626  0.3311634530925691  1.0000
  H   H3        1.0  0.2929665641800667  0.3567872324986087  0.5463134370474093  1.0000
  H   H4        1.0  0.1429134322304545  0.05762284208034197  0.45410981543180834  1.0000
  H   H5        1.0  0.2514779049600127  0.9132334406809265  0.4086792482732968  1.0000
  H   H6        1.0  0.38052416900580327  0.9865583110874775  0.4328890226717568  1.0000
  H   H7        1.0  0.40149939616019087  0.31663292818249134  0.6838754422218245  1.0000
  H   H8        1.0  0.5298584811483669  0.39201517664518376  0.7059884389086126  1.0000
  C   C15       1.0  0.9023690948766392  0.996711154302424  0.5543578289267561  1.0000
  C   C16       1.0  0.9073262089356421  0.006002136553913354  0.4178225201952876  1.0000
  C   C17       1.0  0.909910240871527  0.8935671631988501  0.3486453223670702  1.0000
  C   C18       1.0  0.9074696914752451  0.7707076234768818  0.4178359044650319  1.0000
  C   C19       1.0  0.9025108100998536  0.7594251959291021  0.5543711770771629  1.0000
  C   C20       1.0  0.8999888350642783  0.872982510456877  0.6218675327354102  1.0000
  C   C21       1.0  0.9151554531811782  0.9044498683548844  0.20420233321469428  1.0000
  C   C22       1.0  0.8724214335100435  0.9999935554575531  0.1303689210817116  1.0000
  C   C23       1.0  0.8774253125399857  0.010037702791339196  0.99442207720453  1.0000
  C   C24       1.0  0.9250907766251278  0.9250632375558222  0.930617928904938  1.0000
  C   C25       1.0  0.9678125867932964  0.8298319330105106  0.002940369859516957  1.0000
  C   C26       1.0  0.9629421186891785  0.8193892158926382  0.13889989910942102  1.0000
  Cl  Cl1       1.0  0.9312851796777202  0.9379151228506459  0.7600499777110538  1.0000
  H   H9        1.0  0.9004416439016141  0.32062640891093275  0.6063818152102636  1.0000
  H   H10       1.0  0.9102261624421418  0.10086169441450064  0.3650498370193058  1.0000
  H   H11       1.0  0.9084091113112681  0.6838138801610807  0.3648784380189476  1.0000
  H   H12       1.0  0.8961638889179292  0.8650467926824454  0.7271982494776821  1.0000
  H   H13       1.0  0.9006511558555231  0.42767090084099685  0.6064019693655165  1.0000
  H   H14       1.0  0.8344338333012224  0.06578346705841565  0.17766751434990846  1.0000
  H   H15       1.0  0.8440737695388499  0.083715911258758  0.9388022102326484  1.0000
  H   H16       1.0  0.004962476048256061  0.7640346158957881  0.953964666797121  1.0000
  H   H17       1.0  0.9972470700242104  0.745958695531438  0.19301154334536164  1.0000
  C   C27       1.0  0.902465487899458  0.37795246696550067  0.17301205794427418  1.0000
  C   C28       1.0  0.8288799486895813  0.33213850139038903  0.17691136137389285  1.0000
  C   C29       1.0  0.7915672912598054  0.30904126465438736  0.06173973791986476  1.0000
  C   C30       1.0  0.8288283796644897  0.33237224447270525  0.941607411573157  1.0000
  C   C31       1.0  0.9024143963374863  0.37818396094122064  0.935716956731893  1.0000
  C   C32       1.0  0.9388207681146137  0.40071803950577983  0.05194451685225099  1.0000
  C   C33       1.0  0.7137180556656518  0.2605733110638284  0.06691832361527861  1.0000
  C   C34       1.0  0.692586369972629  0.16312180325602466  0.1625250794977806  1.0000
  C   C35       1.0  0.6193111904853121  0.11755945380258502  0.16726551208016027  1.0000
  C   C36       1.0  0.5660085630907143  0.16861090965796285  0.07674387361982582  1.0000
  C   C37       1.0  0.5866444290457347  0.26569575879833  0.9813037484504492  1.0000
  C   C38       1.0  0.659897068935632  0.31136043745504716  0.9762973684874158  1.0000
  N   N3        1.0  0.4910650490765793  0.12195158710699228  0.08172895787709278  1.0000
  H   H18       1.0  0.9305177139885498  0.3953554147026368  0.49898365708335324  1.0000
  H   H19       1.0  0.8000341113597698  0.3160026175780968  0.2696198738094475  1.0000
  H   H20       1.0  0.8006894281964201  0.31303047966442765  0.8526893904264159  1.0000
  H   H21       1.0  0.9955887866159009  0.43606051013446046  0.04816839425380781  1.0000
  H   H22       1.0  0.9304427382940899  0.3956959150918422  0.6060149862712372  1.0000
  H   H23       1.0  0.732990512072164  0.12093907465849574  0.23258133172136358  1.0000
  H   H24       1.0  0.6041422593758292  0.04223237682513536  0.24130485403153631  1.0000
  H   H25       1.0  0.5459263569733138  0.306228069831767  0.9109820148500808  1.0000
  H   H26       1.0  0.6741879182802973  0.3875956170601287  0.9026029438795512  1.0000
  H   H27       1.0  0.4509389120283877  0.15940941859295799  0.014653810154320539  1.0000
  H   H28       1.0  0.4751528146035843  0.049604983026977356  0.15253212927743465  1.0000
  Zn  Zn1       1.0  0.8201214611906535  0.3819710812660196  0.5555740645472789  1.0000
  Zn  Zn2       1.0  0.9847512428114841  0.37416502920806316  0.5531544956787471  1.0000
  C   C39       1.0  0.9024214259798223  0.37296667057109634  0.7915493629306921  1.0000
  C   C40       1.0  0.9024530760703153  0.3831709932898407  0.31717929836344555  1.0000
  C   C41       1.0  0.9024804962913339  0.6152546551600204  0.5491937993125668  1.0000
  C   C42       1.0  0.9023939492876402  0.14088145111115932  0.5595349320154452  1.0000
  O   O1        1.0  0.9649250536442184  0.38195435668250766  0.3646449273567122  1.0000
  O   O2        1.0  0.9648996432252964  0.36825771446791744  0.7422469633041056  1.0000
  O   O3        1.0  0.9649465009501499  0.5639083665170117  0.5465431433785009  1.0000
  O   O4        1.0  0.9648781397506195  0.18630371655759506  0.5603486507376467  1.0000
  O   O5        1.0  0.8399945080714543  0.5698323965817214  0.5483799103072287  1.0000
  O   O6        1.0  0.8399476506377004  0.374183304787619  0.7440836610178085  1.0000
  O   O7        1.0  0.8399730612027427  0.3878799012708687  0.36648006373553693  1.0000
  O   O8        1.0  0.839926147297825  0.19222925188700835  0.5621838844799911  1.0000
