data_image0
_chemical_formula_structural       NC5NC4H6C6ClH5C6ClH4Zn2C4O8
_chemical_formula_sum              "N2 C25 H15 Cl2 Zn2 O8"
_cell_length_a       13.854160002989762
_cell_length_b       9.276545438789551
_cell_length_c       9.276548810779733
_cell_angle_alpha    86.11252841497436
_cell_angle_beta     89.72476968690219
_cell_angle_gamma    89.40960627284836

_space_group_name_H-M_alt    "P 1"
_space_group_IT_number       1

loop_
  _space_group_symop_operation_xyz
  'x, y, z'

loop_
  _atom_site_type_symbol
  _atom_site_label
  _atom_site_symmetry_multiplicity
  _atom_site_fract_x
  _atom_site_fract_y
  _atom_site_fract_z
  _atom_site_occupancy
  N   N1        1.0  0.9032304926793522  0.5635564478049915  0.41147111580949236  1.0000
  C   C1        1.0  0.8309174044688871  0.588225016681992  0.3524637789384481  1.0000
  C   C2        1.0  0.7409589071964346  0.6189133794377847  0.2790563923328775  1.0000
  C   C3        1.0  0.6533560168823683  0.5900899145176004  0.3507328521775197  1.0000
  C   C4        1.0  0.5658164948022709  0.6189133935531714  0.2790563691782377  1.0000
  C   C5        1.0  0.47580926382068206  0.5882248702256379  0.35246387043578853  1.0000
  N   N2        1.0  0.403456922519948  0.5635563843189555  0.4114711156853239  1.0000
  C   C6        1.0  0.5659082509651264  0.6771667888355422  0.13572277188340442  1.0000
  C   C7        1.0  0.6534639114821152  0.7081390387791373  0.06394418627130127  1.0000
  C   C8        1.0  0.6535590181423112  0.7665287127973327  0.9091264310419959  1.0000
  C   C9        1.0  0.7409853403058805  0.6771667866868532  0.13572268164131063  1.0000
  H   H1        1.0  0.6533110714904263  0.5448916460948003  0.4616703588420012  1.0000
  H   H2        1.0  0.4980673775831431  0.6984415556502577  0.08010883127613244  1.0000
  H   H3        1.0  0.7180209440715394  0.8344597875624946  0.885389824253775  1.0000
  H   H4        1.0  0.5883124661865606  0.8344597900327732  0.8853898893131057  1.0000
  H   H5        1.0  0.6544182512677048  0.6753682298209511  0.8375479987626027  1.0000
  H   H6        1.0  0.8088903361690252  0.6984416673337825  0.08010874595122774  1.0000
  C   C10       1.0  0.1562622232839046  0.140119100735153  0.4112335954483586  1.0000
  C   C11       1.0  0.15705449466982108  0.22255637809457432  0.27823242523937  1.0000
  C   C12       1.0  0.1490559459384182  0.15628922376621412  0.14812604847889466  1.0000
  C   C13       1.0  0.14007225755261252  0.0067062360929710475  0.14901918724075847  1.0000
  C   C14       1.0  0.1407769974613013  0.9227082567142079  0.27957911941192326  1.0000
  C   C15       1.0  0.15043449358996286  0.9869827800926301  0.41172113960349677  1.0000
  Cl  Cl1       1.0  0.14883612320821848  0.2614088146353535  0.9836185818470793  1.0000
  H   H7        1.0  0.20490076781013572  0.40514631657364103  0.6377822388688286  1.0000
  H   H8        1.0  0.16158644311995202  0.33925089820986565  0.27537949929194494  1.0000
  H   H9        1.0  0.1334619754455202  0.9550657128677508  0.048361125294878564  1.0000
  H   H10       1.0  0.13606660661781111  0.8064236021889215  0.2769294103035953  1.0000
  H   H11       1.0  0.1173298181257207  0.6903743910842876  0.6447294654877553  1.0000
  C   C16       1.0  0.15473542989083056  0.5596878466056279  0.9883257836345049  1.0000
  C   C17       1.0  0.23532562627739145  0.6145008209583878  0.05746381628878572  1.0000
  C   C18       1.0  0.310428242484056  0.6800609088962235  0.9772690916145033  1.0000
  C   C19       1.0  0.3060662675931307  0.6919115311283621  0.8268363875875937  1.0000
  C   C20       1.0  0.2275861802942274  0.6360871036279117  0.756048666469392  1.0000
  C   C21       1.0  0.15196123959349772  0.5674139356774928  0.8346289685458834  1.0000
  Cl  Cl2       1.0  0.4095987483404455  0.749491318989011  0.06581353487523955  1.0000
  H   H12       1.0  0.0387337656551836  0.39829260834258584  0.28123500328980877  1.0000
  H   H13       1.0  0.36399053166201223  0.7432071609369685  0.7643766664874033  1.0000
  H   H14       1.0  0.22718051337345857  0.6436109796147286  0.6390047067190032  1.0000
  H   H15       1.0  0.9972760823953792  0.5145488727348007  0.5580024261823895  1.0000
  Zn  Zn1       1.0  0.04758503965890591  0.56355264502074  0.411479443817411  1.0000
  Zn  Zn2       1.0  0.2591024191226381  0.5635484955173065  0.41147461519025597  1.0000
  C   C22       1.0  0.15252301621863595  0.5602092039996858  0.6746562132153013  1.0000
  C   C23       1.0  0.1541667393423502  0.5668937571583873  0.14829798821866946  1.0000
  C   C24       1.0  0.15154989419774778  0.8268550630663212  0.40588681077246025  1.0000
  C   C25       1.0  0.15513980085707166  0.3002461663764302  0.41706746649021564  1.0000
  O   O1        1.0  0.23424566806369573  0.5693042611277449  0.20198428538090218  1.0000
  O   O2        1.0  0.23298089317671386  0.5577944590715946  0.620965835806059  1.0000
  O   O3        1.0  0.23219399785201464  0.773114376164943  0.40393264263319306  1.0000
  O   O4        1.0  0.2350324914950206  0.3539843533644744  0.4190173705183473  1.0000
  O   O5        1.0  0.07165489510603672  0.7731167871764887  0.40393668848338904  1.0000
  O   O6        1.0  0.07244177875641597  0.5577986018013785  0.6209698058216189  1.0000
  O   O7        1.0  0.07370655973237561  0.5693083377932235  0.20198652290026217  1.0000
  O   O8        1.0  0.07449338287658831  0.3539884207027922  0.4190197160671978  1.0000
