data_image0
_chemical_formula_structural       NC4NC6H6C12H9C6H4Zn2C4O8
_chemical_formula_sum              "N2 C32 H19 Zn2 O8"
_cell_length_a       11.002025771509814
_cell_length_b       14.994056859933256
_cell_length_c       10.681121600428288
_cell_angle_alpha    85.57546196460339
_cell_angle_beta     90.00980682368926
_cell_angle_gamma    89.93048505129264

_space_group_name_H-M_alt    "P 1"
_space_group_IT_number       1

loop_
  _space_group_symop_operation_xyz
  'x, y, z'

loop_
  _atom_site_type_symbol
  _atom_site_label
  _atom_site_symmetry_multiplicity
  _atom_site_fract_x
  _atom_site_fract_y
  _atom_site_fract_z
  _atom_site_occupancy
  N   N1        1.0  0.1440703031143833  0.9755471454085605  0.6193179989437174  1.0000
  C   C1        1.0  0.08925412733904192  0.03396163416750864  0.6563287441720913  1.0000
  C   C2        1.0  0.020701960349630785  0.10712012398761117  0.7026727238976351  1.0000
  C   C3        1.0  0.8984488817694035  0.10542741610221973  0.7030424363895187  1.0000
  C   C4        1.0  0.8293848720227351  0.0331040809590477  0.6566543546795698  1.0000
  N   N2        1.0  0.7739744716358865  0.9751393674568007  0.6194747184209373  1.0000
  C   C5        1.0  0.08819365843082626  0.18319645139729634  0.7511603975176351  1.0000
  C   C6        1.0  0.19836323620700583  0.16795663374296455  0.8166022097257075  1.0000
  C   C7        1.0  0.2625898615051574  0.23919386933156495  0.8618381818065126  1.0000
  C   C8        1.0  0.21816183579273107  0.3264010282169693  0.841921796027542  1.0000
  C   C9        1.0  0.10951272921385093  0.3426116619496169  0.776467445827298  1.0000
  C   C10       1.0  0.04481407618794564  0.2716512891001601  0.7310685169823352  1.0000
  H   H1        1.0  0.8473067716203551  0.15877593695097225  0.741150586877535  1.0000
  H   H2        1.0  0.23421021841674208  0.10084503216446182  0.8339202674759665  1.0000
  H   H3        1.0  0.3468824821221048  0.22672105636242443  0.9124944353839862  1.0000
  H   H4        1.0  0.2680892033744593  0.3814480119142427  0.8769336584038178  1.0000
  H   H5        1.0  0.07557533817792539  0.4103158603119519  0.7604003929681932  1.0000
  H   H6        1.0  0.9619989730472831  0.28623920733061436  0.6786651197351199  1.0000
  C   C11       1.0  0.4591425184982698  0.7133791748643735  0.6193067950709401  1.0000
  C   C12       1.0  0.5155507612082326  0.671054908127201  0.5217388135664607  1.0000
  C   C13       1.0  0.5155387836425684  0.5778302109819357  0.5218087131845306  1.0000
  C   C14       1.0  0.45904885691928254  0.524879077922069  0.6193591141593697  1.0000
  C   C15       1.0  0.40262066650463463  0.5673065787572436  0.7168589331758197  1.0000
  C   C16       1.0  0.402719988481288  0.6605316955462474  0.7168448453872931  1.0000
  C   C17       1.0  0.4589834937654745  0.4258023129360726  0.6194133553978591  1.0000
  C   C18       1.0  0.3546355871178182  0.37627226861924956  0.6554871488279426  1.0000
  C   C19       1.0  0.35456689479922177  0.2830516220114732  0.6554842444450946  1.0000
  C   C20       1.0  0.45891391777295065  0.2373004874884998  0.6194967688338404  1.0000
  C   C21       1.0  0.5632356913400365  0.2867239241606219  0.5834882143726237  1.0000
  C   C22       1.0  0.5632703912219026  0.379953659067282  0.583391083020667  1.0000
  H   H7        1.0  0.40211885906695866  0.9208483649439814  0.7178402810561442  1.0000
  H   H8        1.0  0.5595149384719544  0.7099629807097607  0.44503083635585106  1.0000
  H   H9        1.0  0.5583877697499611  0.5472059597752148  0.444531120826517  1.0000
  H   H10       1.0  0.3597283808863727  0.5283309052455728  0.7941715819159244  1.0000
  H   H11       1.0  0.35879388246109567  0.6911245143790067  0.7935282811243334  1.0000
  H   H12       1.0  0.27238102778777806  0.40971342001555694  0.6821456007465347  1.0000
  H   H13       1.0  0.27261155932198133  0.2468593196954597  0.6833902679607795  1.0000
  H   H14       1.0  0.6451594995941425  0.2534148038920764  0.5556154675617402  1.0000
  H   H15       1.0  0.6455673411990519  0.416112455735891  0.5566962583019959  1.0000
  C   C23       1.0  0.4590282359191691  0.9753398055180152  0.25165654143735994  1.0000
  C   C24       1.0  0.3720531046458178  0.9257823947976168  0.19019441818666394  1.0000
  C   C25       1.0  0.3720530287343786  0.9257824520471383  0.0593122782356279  1.0000
  C   C26       1.0  0.459028140349832  0.9753398493091072  0.9871469771057858  1.0000
  C   C27       1.0  0.5459314849357721  0.024856191589735177  0.04860848723615141  1.0000
  C   C28       1.0  0.5459314693911164  0.024856177766991783  0.17950078589031282  1.0000
  H   H16       1.0  0.3038778907800852  0.8869369540838777  0.24320018500737484  1.0000
  H   H17       1.0  0.3038778653772145  0.8869369960916229  0.014696155790750782  1.0000
  H   H18       1.0  0.614115601602707  0.06370675118485813  0.9956470598569704  1.0000
  H   H19       1.0  0.6141155403773122  0.06370671995240573  0.22407142731480167  1.0000
  Zn  Zn1       1.0  0.32584704788072716  0.9754270812859439  0.6193704520057817  1.0000
  Zn  Zn2       1.0  0.5921977328348731  0.9752521320920089  0.61943250777893  1.0000
  C   C29       1.0  0.4590270298385595  0.9717860028241528  0.8481222628827304  1.0000
  C   C30       1.0  0.4590206589270718  0.9788943342187336  0.39068082090065936  1.0000
  C   C31       1.0  0.4589508576854686  0.13826818858777767  0.6144705392278611  1.0000
  C   C32       1.0  0.4590967406609687  0.8124110767357514  0.6243326109109886  1.0000
  O   O1        1.0  0.560096814559385  0.9800169823903924  0.4373621875225362  1.0000
  O   O2        1.0  0.5601048814447971  0.9705298992864174  0.801487634421723  1.0000
  O   O3        1.0  0.5600420088785716  0.104966370640188  0.6128122144645294  1.0000
  O   O4        1.0  0.5601595962353869  0.8455805174778134  0.6260375135647274  1.0000
  O   O5        1.0  0.3578850935877962  0.10509869596081221  0.6127654461922212  1.0000
  O   O6        1.0  0.3579479656807991  0.9706632963870713  0.8014407997661923  1.0000
  O   O7        1.0  0.3579398988899001  0.9801503484044126  0.4373138472331688  1.0000
  O   O8        1.0  0.3580026805637085  0.8457138771113146  0.6259892671626  1.0000
