data_image0
_chemical_formula_structural       NC8NC6H8C8NH7C8NH7Zn2C4O8
_chemical_formula_sum              "N4 C34 H22 Zn2 O8"
_cell_length_a       17.457602349358154
_cell_length_b       9.274263428431858
_cell_length_c       9.274266800404106
_cell_angle_alpha    85.95096221083165
_cell_angle_beta     92.41618932719734
_cell_angle_gamma    92.30649601595262

_space_group_name_H-M_alt    "P 1"
_space_group_IT_number       1

loop_
  _space_group_symop_operation_xyz
  'x, y, z'

loop_
  _atom_site_type_symbol
  _atom_site_label
  _atom_site_symmetry_multiplicity
  _atom_site_fract_x
  _atom_site_fract_y
  _atom_site_fract_z
  _atom_site_occupancy
  N   N1        1.0  0.7379668021124973  0.6030403816978702  0.4757246210046096  1.0000
  C   C1        1.0  0.676644997808796  0.5519324277388815  0.4639555020813811  1.0000
  C   C2        1.0  0.600358082921841  0.4883605583865036  0.44932530429382767  1.0000
  C   C3        1.0  0.5417422723468244  0.5335824247388434  0.5324201486365063  1.0000
  C   C4        1.0  0.46690411712683405  0.47236887123050897  0.5184712606638567  1.0000
  C   C5        1.0  0.4046914484869005  0.5201184203833551  0.6064718791642599  1.0000
  C   C6        1.0  0.3305177455728825  0.5401882220037983  0.544595190985705  1.0000
  C   C7        1.0  0.2719002664786089  0.5852066166768657  0.6278098547232467  1.0000
  C   C8        1.0  0.196302411343435  0.6059316995706496  0.5634748583855091  1.0000
  N   N2        1.0  0.1355346110004426  0.6225875796350571  0.5117496902647605  1.0000
  C   C9        1.0  0.2869635475616701  0.6104294277103806  0.7734653850717721  1.0000
  C   C10       1.0  0.36035324895954424  0.5907949045787251  0.8357720539777473  1.0000
  C   C11       1.0  0.4189581739189508  0.5459802299988259  0.7530652205136993  1.0000
  C   C12       1.0  0.4519726654487712  0.36516931957592536  0.41983776388266913  1.0000
  C   C13       1.0  0.510576701064732  0.32026028154605624  0.3371866876950418  1.0000
  C   C14       1.0  0.5846282880734388  0.3816031063025789  0.3517457529397801  1.0000
  H   H1        1.0  0.5542600942867282  0.6176586363401131  0.606334967956392  1.0000
  H   H2        1.0  0.3185445765518795  0.5227358609834452  0.43139631851972204  1.0000
  H   H3        1.0  0.24202984624594057  0.6452131257722167  0.8387406405713402  1.0000
  H   H4        1.0  0.3718243362952841  0.609974813224305  0.9485564456446509  1.0000
  H   H5        1.0  0.4751371884375893  0.5296952311568516  0.8042261201486905  1.0000
  H   H6        1.0  0.3952480599313163  0.31471619218970015  0.4080284474742387  1.0000
  H   H7        1.0  0.4985852863957342  0.23741481360478914  0.26194202797416244  1.0000
  H   H8        1.0  0.6295541540569027  0.3458572906532531  0.28703780238110466  1.0000
  C   C15       1.0  0.9343255272789103  0.18911355853362768  0.4938237353089767  1.0000
  C   C16       1.0  0.9249548098657973  0.27103210687689216  0.36123391178948633  1.0000
  C   C17       1.0  0.9231033856345814  0.20505817946567628  0.23051798457077144  1.0000
  C   C18       1.0  0.9312004834091302  0.055659302052401875  0.22921515760211444  1.0000
  C   C19       1.0  0.9385160618080519  0.972128529803563  0.36073512468862967  1.0000
  C   C20       1.0  0.9391831066895222  0.03650376316797943  0.4936637247127238  1.0000
  C   C21       1.0  0.928059415973647  0.9844703158729148  0.0882835788893328  1.0000
  C   C22       1.0  0.8485969796374584  0.9413886199823391  0.04904581372417828  1.0000
  N   N3        1.0  0.7858789336355753  0.9073838790805141  0.018085811199241467  1.0000
  H   H9        1.0  0.9991529845588394  0.27304101999817254  0.8320382325247762  1.0000
  H   H10       1.0  0.9207238315722651  0.38742541204699865  0.35848959961272575  1.0000
  H   H11       1.0  0.9160716019869041  0.2708968675961696  0.1299831966438607  1.0000
  H   H12       1.0  0.9418363008284658  0.8557880810009134  0.3591372081772908  1.0000
  H   H13       1.0  0.9798356742566782  0.7426873743787714  0.7230554850982283  1.0000
  H   H14       1.0  0.9634791896807042  0.8871380296205718  0.09707157921077103  1.0000
  H   H15       1.0  0.951085410239747  0.059747799468812916  0.0006632938548820647  1.0000
  C   C23       1.0  0.9385006126922817  0.6097407059283957  0.07059346639062469  1.0000
  C   C24       1.0  0.8933290644582147  0.5042610771411644  0.14772294651754492  1.0000
  C   C25       1.0  0.8435797705375395  0.40977450734818643  0.07538316907242648  1.0000
  C   C26       1.0  0.8373532633702917  0.4192723312772213  0.92411415391221  1.0000
  C   C27       1.0  0.8835581737579813  0.5213542835718687  0.8457745025605268  1.0000
  C   C28       1.0  0.9350079937995994  0.6158765668921109  0.91689393349878  1.0000
  C   C29       1.0  0.7845244753182397  0.3159285562614227  0.8463167236617766  1.0000
  C   C30       1.0  0.8253096210180461  0.18606297702294428  0.8188907553119722  1.0000
  N   N4        1.0  0.8575041483561285  0.08356933179825354  0.7972430324599662  1.0000
  H   H16       1.0  0.024827695673701914  0.9314453574447475  0.15762624540841297  1.0000
  H   H17       1.0  0.8952448004684567  0.4968848362744667  0.26491585409882923  1.0000
  H   H18       1.0  0.809277099052057  0.3298902011292191  0.13757425550103466  1.0000
  H   H19       1.0  0.8805895478924074  0.5244995062324092  0.7286121769078311  1.0000
  H   H20       1.0  0.9959005322266186  0.8298047759017788  0.6259221984942516  1.0000
  H   H21       1.0  0.7629459571530727  0.36768357343598934  0.7415549590842982  1.0000
  H   H22       1.0  0.7340413098281395  0.2838093672109423  0.9119248240996625  1.0000
  Zn  Zn1       1.0  0.8526962273365651  0.6086774718211798  0.48612899851190683  1.0000
  Zn  Zn2       1.0  0.020805055027205203  0.6169387453241639  0.5013571123785556  1.0000
  C   C31       1.0  0.9356335295735276  0.608968723247048  0.7569259853437588  1.0000
  C   C32       1.0  0.9378695983855956  0.6166494056418836  0.23056043292462047  1.0000
  C   C33       1.0  0.938284665193546  0.8762871143711881  0.48795145115929667  1.0000
  C   C34       1.0  0.9352183951476614  0.3493292787605517  0.4995350390643194  1.0000
  O   O1        1.0  0.0014542121386351687  0.6220968439827104  0.29002579924888416  1.0000
  O   O2        1.0  0.9996396217364973  0.6097903088636287  0.7090179904920777  1.0000
  O   O3        1.0  0.0017795810881089471  0.8256532589992303  0.49181907291067023  1.0000
  O   O4        1.0  0.9993141959279164  0.4062339005661931  0.5072246035893506  1.0000
  O   O5        1.0  0.8741870290686024  0.8193823137614997  0.4802615020969243  1.0000
  O   O6        1.0  0.8720470799676548  0.6035210965654376  0.6974603425189081  1.0000
  O   O7        1.0  0.8738616772822874  0.6158275688469472  0.27846641882798223  1.0000
  O   O8        1.0  0.8717216605634243  0.3999646158936938  0.4956653312052027  1.0000
