data_image0
_chemical_formula_structural       NC5N2C2NH4C7NH5C6H6Zn2C4O8
_chemical_formula_sum              "N5 C24 H15 Zn2 O8"
_cell_length_a       13.87973921873968
_cell_length_b       9.275154477615127
_cell_length_c       10.681121600428286
_cell_angle_alpha    85.78691594316618
_cell_angle_beta     89.99986795653135
_cell_angle_gamma    89.4337086285363

_space_group_name_H-M_alt    "P 1"
_space_group_IT_number       1

loop_
  _space_group_symop_operation_xyz
  'x, y, z'

loop_
  _atom_site_type_symbol
  _atom_site_label
  _atom_site_symmetry_multiplicity
  _atom_site_fract_x
  _atom_site_fract_y
  _atom_site_fract_z
  _atom_site_occupancy
  N   N1        1.0  0.8968147227908047  0.577887702358016  0.6241000986750775  1.0000
  C   C1        1.0  0.8235436508648322  0.6024175267027159  0.5749801795305098  1.0000
  C   C2        1.0  0.7325436367728625  0.6328859668237523  0.5139679310243577  1.0000
  C   C3        1.0  0.6463065090894288  0.6021971458654629  0.5774529074272097  1.0000
  C   C4        1.0  0.5596642360466925  0.632885902211302  0.5139679654673297  1.0000
  C   C5        1.0  0.4690665300837217  0.602417382037977  0.5749800893543493  1.0000
  N   N2        1.0  0.3961192918062064  0.5778876777409039  0.6241000890398167  1.0000
  N   N3        1.0  0.5609155105889527  0.6915125188402549  0.3936259952486337  1.0000
  C   C6        1.0  0.6455148347346084  0.7221271505714457  0.3336533526174772  1.0000
  C   C7        1.0  0.6451155881646304  0.7826288059174786  0.20029263518681817  1.0000
  N   N4        1.0  0.7305184095585505  0.6915124721881594  0.39362600442776574  1.0000
  H   H1        1.0  0.6466161952619243  0.5552880465400796  0.6734875552494335  1.0000
  H   H2        1.0  0.7096693786677092  0.8504838730255065  0.18106996693999178  1.0000
  H   H3        1.0  0.6457104607938751  0.6927083731018961  0.13724148233718036  1.0000
  H   H4        1.0  0.5796645719719629  0.8504818098119218  0.18106929435908214  1.0000
  C   C8        1.0  0.14925960494853174  0.15449838400764881  0.6226509739902342  1.0000
  C   C9        1.0  0.12281415932790195  0.23767746257474778  0.5122370278875925  1.0000
  C   C10       1.0  0.08853210804594869  0.17163903253582746  0.4076718730365678  1.0000
  C   C11       1.0  0.08013103281564882  0.021518508773591183  0.412289182854211  1.0000
  C   C12       1.0  0.10746942961766659  0.9371317549094427  0.5201863309986325  1.0000
  C   C13       1.0  0.14368369846097995  0.0012659027701871193  0.6255600551887432  1.0000
  C   C14       1.0  0.06080488161947195  0.2583999234215222  0.29592715095016264  1.0000
  N   N5        1.0  0.038519882623525785  0.3281397736548999  0.20611301754585698  1.0000
  H   H5        1.0  0.16794050067897537  0.2311694635066679  0.9300417044560734  1.0000
  H   H6        1.0  0.1267488074368428  0.3546368622818947  0.5085213390816332  1.0000
  H   H7        1.0  0.05326975858276329  0.9693919291819956  0.33192429413291746  1.0000
  H   H8        1.0  0.10241028477769087  0.8206641592656411  0.52007612295856  1.0000
  H   H9        1.0  0.160350512919627  0.7024956717649683  0.8315205882685732  1.0000
  C   C15       1.0  0.1464716704985376  0.5778821123088511  0.25636026761046504  1.0000
  C   C16       1.0  0.07804017278948838  0.49769584799973865  0.19466229766435372  1.0000
  C   C17       1.0  0.0780401120279801  0.4976959404476671  0.06378015802906112  1.0000
  C   C18       1.0  0.14647159429356216  0.5778821829845413  0.9918507035296118  1.0000
  C   C19       1.0  0.21484661238030345  0.6580019968943385  0.053547864837053316  1.0000
  C   C20       1.0  0.21484660020099294  0.6580019745375949  0.1844401634232926  1.0000
  H   H10       1.0  0.21567404957682101  0.6589724582339367  0.5498965983280617  1.0000
  H   H11       1.0  0.024400334357670198  0.43484206426175787  0.24748319669742627  1.0000
  H   H12       1.0  0.02440031378926565  0.4348421321285918  0.018979167705047484  1.0000
  H   H13       1.0  0.26849345500588884  0.7208640631428145  0.0007713296264610914  1.0000
  H   H14       1.0  0.2684934067965101  0.7208640126005028  0.22919569693722885  1.0000
  H   H15       1.0  0.2156743535795782  0.6589719559132803  0.6879675708889268  1.0000
  Zn  Zn1       1.0  0.04090326233485597  0.577883831679924  0.6241073166738791  1.0000
  Zn  Zn2       1.0  0.2520308156618938  0.5778797380066423  0.6241030962625382  1.0000
  C   C21       1.0  0.14650730715789706  0.5721384133954768  0.8528075458818899  1.0000
  C   C22       1.0  0.1464290643660573  0.5836269754140102  0.39540299617108615  1.0000
  C   C23       1.0  0.1447327004860237  0.8412087975882225  0.6200198475795036  1.0000
  C   C24       1.0  0.14820361040141994  0.31455485900125457  0.6281907552891306  1.0000
  O   O1        1.0  0.2265366129652304  0.5855471604145506  0.442065382813802  1.0000
  O   O2        1.0  0.22664069353716787  0.5702140337203438  0.8061415918168708  1.0000
  O   O3        1.0  0.22520659612631921  0.7874917718364431  0.618163883597953  1.0000
  O   O4        1.0  0.22797063826463604  0.3682694326136904  0.6300429971734516  1.0000
  O   O5        1.0  0.06496336768463129  0.7874941370758421  0.6181674157578243  1.0000
  O   O6        1.0  0.06639745368450778  0.5702181311827201  0.8061450631559426  1.0000
  O   O7        1.0  0.06629337350757832  0.5855512076344429  0.4420673483576818  1.0000
  O   O8        1.0  0.06772739887094459  0.36827346952131057  0.6300450565714582  1.0000
