data_image0
_chemical_formula_structural       NC12NC2H8C6SCNH5C7F3H5Zn2C4O8
_chemical_formula_sum              "N3 C32 H18 S1 F3 Zn2 O8"
_cell_length_a       17.80743265337812
_cell_length_b       9.27526961838325
_cell_length_c       10.299327507215196
_cell_angle_alpha    85.81036424159898
_cell_angle_beta     91.5153373633688
_cell_angle_gamma    88.87871087483882

_space_group_name_H-M_alt    "P 1"
_space_group_IT_number       1

loop_
  _space_group_symop_operation_xyz
  'x, y, z'

loop_
  _atom_site_type_symbol
  _atom_site_label
  _atom_site_symmetry_multiplicity
  _atom_site_fract_x
  _atom_site_fract_y
  _atom_site_fract_z
  _atom_site_occupancy
  N   N1        1.0  0.6998658422523997  0.5619350122461126  0.6073203894797721  1.0000
  C   C1        1.0  0.6488943559782904  0.5947607799012485  0.5387471764877192  1.0000
  C   C2        1.0  0.5854808226169756  0.6355936516847585  0.4534507384448443  1.0000
  C   C3        1.0  0.5969305028012801  0.6955850642993736  0.3270603826811034  1.0000
  C   C4        1.0  0.5354322372740464  0.7347482928042919  0.2441535327706852  1.0000
  C   C5        1.0  0.4623286451841161  0.7142126980591652  0.28697825492574314  1.0000
  C   C6        1.0  0.44990276662080897  0.6540893291672236  0.4138362503109693  1.0000
  C   C7        1.0  0.5122583331628424  0.6149297152560877  0.4967266022762162  1.0000
  C   C8        1.0  0.37223663610183244  0.6323164374566264  0.45951653683264304  1.0000
  C   C9        1.0  0.353277075109887  0.6624851646963252  0.586677982856777  1.0000
  C   C10       1.0  0.2801432989228458  0.641995721930454  0.6295434456647162  1.0000
  C   C11       1.0  0.22502737721046917  0.591055148828022  0.546084353092757  1.0000
  C   C12       1.0  0.1497598167652076  0.5699517679963426  0.5903483963579303  1.0000
  N   N2        1.0  0.0892500286680285  0.5529860691182927  0.625933641947884  1.0000
  C   C13       1.0  0.24329628663296704  0.5606988231689238  0.41946516049353594  1.0000
  C   C14       1.0  0.3163771710583366  0.5812047113647595  0.37634387156394683  1.0000
  H   H1        1.0  0.65331995680872  0.7120471558311419  0.2926863449624215  1.0000
  H   H2        1.0  0.5444138517282212  0.7814979264186737  0.14655325188019172  1.0000
  H   H3        1.0  0.4155363334146711  0.7471231579974851  0.221513341370289  1.0000
  H   H4        1.0  0.5039828218743312  0.5666420583803382  0.5941965262048056  1.0000
  H   H5        1.0  0.3947352542952425  0.7037557798111221  0.652410278367845  1.0000
  H   H6        1.0  0.26656115861337026  0.6662383113413716  0.7276463765526802  1.0000
  H   H7        1.0  0.20111411303448073  0.5208351588405049  0.35415122978212654  1.0000
  H   H8        1.0  0.32943939612342316  0.555257246463122  0.27853772749908856  1.0000
  C   C15       1.0  0.896678590420503  0.13404622228383434  0.6150150389015772  1.0000
  C   C16       1.0  0.8699019236700887  0.21768472704712405  0.503353308541393  1.0000
  C   C17       1.0  0.8373980019528009  0.15248711842566443  0.39837787424100846  1.0000
  C   C18       1.0  0.8311758705461992  0.00252975684137869  0.40290231614052735  1.0000
  C   C19       1.0  0.8583324944035312  0.9173515263403338  0.5122605938189446  1.0000
  C   C20       1.0  0.8924445340825385  0.980863643407729  0.6182504406820204  1.0000
  S   S1        1.0  0.7885025298947373  0.9192904189952884  0.26851943757661534  1.0000
  C   C21       1.0  0.8749399747752303  0.9010704314236788  0.1906950646821859  1.0000
  N   N3        1.0  0.9316208678523582  0.8891377739766496  0.13970138177370026  1.0000
  H   H9        1.0  0.9777426895787498  0.39864889592696784  0.7813239591243817  1.0000
  H   H10       1.0  0.8724579713064023  0.3345441029100489  0.4984353704027302  1.0000
  H   H11       1.0  0.816494234577265  0.21895832071718124  0.3138370404908013  1.0000
  H   H12       1.0  0.8544800152317061  0.8008492395610538  0.5129396312896202  1.0000
  H   H13       1.0  0.01669018052385973  0.8535295785993388  0.8606806888753608  1.0000
  C   C22       1.0  0.8946332161130086  0.5575118349215018  0.23525484337020816  1.0000
  C   C23       1.0  0.9673585532237837  0.6136473324903975  0.23369547016612932  1.0000
  C   C24       1.0  0.0034847412385725592  0.6444254028356058  0.11559570416482923  1.0000
  C   C25       1.0  0.9671703866415599  0.6134987761498852  0.998448397108304  1.0000
  C   C26       1.0  0.8944899234606575  0.5573980351095107  0.9980106946206284  1.0000
  C   C27       1.0  0.8585285771533402  0.5302670088556454  0.11690573008727445  1.0000
  C   C28       1.0  0.08261127270279589  0.6997769773749882  0.11534787035780635  1.0000
  F   F1        1.0  0.09531454174464504  0.7836749707624653  0.21918809757309948  1.0000
  F   F2        1.0  0.1328154208422765  0.5836766136162909  0.12514996543204715  1.0000
  F   F3        1.0  0.09510823042801975  0.7836601517863102  0.001534752463079106  1.0000
  H   H14       1.0  0.7579137282402423  0.4491552084786725  0.4456188111256716  1.0000
  H   H15       1.0  0.9960709021398333  0.6332647802980875  0.3245468282871682  1.0000
  H   H16       1.0  0.9957536889215582  0.6330104462957313  0.907516582156436  1.0000
  H   H17       1.0  0.802475070464463  0.48700381798848547  0.11730265991468469  1.0000
  H   H18       1.0  0.8670500164279755  0.5334520992964513  0.6705677067439373  1.0000
  Zn  Zn1       1.0  0.8122337284700905  0.5593486899076479  0.6126992444748305  1.0000
  Zn  Zn2       1.0  0.9768821967725639  0.5555606285044341  0.6205653353171365  1.0000
  C   C29       1.0  0.8945440323537343  0.5516754964841415  0.8538114674577995  1.0000
  C   C30       1.0  0.8945736817247966  0.5632355998182417  0.3794533326520208  1.0000
  C   C31       1.0  0.8932419587266046  0.8207979706424533  0.6124634376782565  1.0000
  C   C32       1.0  0.895875707817475  0.2941113946186933  0.6208014223689713  1.0000
  O   O1        1.0  0.9570369685400845  0.5637127076633854  0.43083277937090814  1.0000
  O   O2        1.0  0.9570451287826911  0.5483222500041425  0.8084018236684845  1.0000
  O   O3        1.0  0.9559928453041793  0.7656420705825318  0.6135115475305748  1.0000
  O   O4        1.0  0.9580891958019522  0.34639289870659096  0.6257229554870958  1.0000
  O   O5        1.0  0.8310266732542543  0.768516420999741  0.6075416216137348  1.0000
  O   O6        1.0  0.8320789480807693  0.5511983327568384  0.8024318351231008  1.0000
  O   O7        1.0  0.8320707884327427  0.5665887404025742  0.42486122919839  1.0000
  O   O8        1.0  0.8331230157248067  0.3492689211184358  0.6197515026451641  1.0000
