data_image0
_chemical_formula_structural       NC8NH4C6ClH5C6BrH3Zn2C4O8
_chemical_formula_sum              "N2 C24 H12 Cl1 Br1 Zn2 O8"
_cell_length_a       14.927258825633057
_cell_length_b       9.276545438789551
_cell_length_c       9.275428193871798
_cell_angle_alpha    86.19890630967393
_cell_angle_beta     89.94092440913882
_cell_angle_gamma    89.40960858786079

_space_group_name_H-M_alt    "P 1"
_space_group_IT_number       1

loop_
  _space_group_symop_operation_xyz
  'x, y, z'

loop_
  _atom_site_type_symbol
  _atom_site_label
  _atom_site_symmetry_multiplicity
  _atom_site_fract_x
  _atom_site_fract_y
  _atom_site_fract_z
  _atom_site_occupancy
  N   N1        1.0  0.834589081931883  0.561217019466536  0.41145336106260766  1.0000
  C   C1        1.0  0.7570626577468672  0.5612169931204594  0.4114533706963241  1.0000
  C   C2        1.0  0.6606300159639372  0.561216993414539  0.41145342576082  1.0000
  C   C3        1.0  0.6142067555289507  0.47196197818437935  0.32169025795463146  1.0000
  C   C4        1.0  0.5204954445683778  0.4719618880620558  0.3216902294462173  1.0000
  C   C5        1.0  0.47281401827774383  0.5612170455203858  0.4114533380008165  1.0000
  C   C6        1.0  0.5192372787269353  0.6504720699186075  0.5012163977763155  1.0000
  C   C7        1.0  0.6129486566790591  0.6504721600380284  0.5012164262906507  1.0000
  C   C8        1.0  0.3763813771981666  0.5612169473301216  0.411453283022422  1.0000
  N   N2        1.0  0.29885495232400283  0.5612170286364506  0.4114532946683393  1.0000
  H   H1        1.0  0.6503923277791075  0.4025163435681318  0.25184949440210325  1.0000
  H   H2        1.0  0.4852886719789858  0.4025163209274452  0.2518495915892669  1.0000
  H   H3        1.0  0.4830517064767784  0.719917704534855  0.5710571613288442  1.0000
  H   H4        1.0  0.6481553622626954  0.7199177180074796  0.5710571721723698  1.0000
  C   C9        1.0  0.06943017645611625  0.13777934014055604  0.411215803661566  1.0000
  C   C10       1.0  0.06985491182568593  0.22002074133149854  0.2782131570931341  1.0000
  C   C11       1.0  0.06212754613704097  0.15356197350479217  0.14810533729933434  1.0000
  C   C12       1.0  0.05379176761776127  0.003980300570177282  0.1489984871960981  1.0000
  C   C13       1.0  0.05475072487406041  0.9201746021533457  0.27955986842654745  1.0000
  C   C14       1.0  0.06402253223555321  0.9846437371199067  0.411703354020589  1.0000
  Cl  Cl1       1.0  0.06153937269505749  0.2584392875333079  0.9835960447403083  1.0000
  H   H5        1.0  0.11510119742552026  0.4031402067379153  0.6377669550544638  1.0000
  H   H6        1.0  0.07405440304644673  0.33671106014124047  0.27536019886335694  1.0000
  H   H7        1.0  0.04742163501310403  0.9521915336717743  0.04833930889086811  1.0000
  H   H8        1.0  0.05037276961632986  0.8038860449671706  0.2769101305481184  1.0000
  H   H9        1.0  0.03384181834937028  0.6883785066375391  0.644714270691018  1.0000
  C   C15       1.0  0.06702557897126926  0.5567252523999375  0.9883032979734048  1.0000
  C   C16       1.0  0.14953104163691802  0.5594097167763741  0.06135015941172383  1.0000
  C   C17       1.0  0.22981193105553263  0.5752529931592649  0.9848225359302217  1.0000
  C   C18       1.0  0.22885140313243602  0.5888319850074295  0.8342731103166372  1.0000
  C   C19       1.0  0.147924767817734  0.5840672521833821  0.759717904460047  1.0000
  C   C20       1.0  0.06642713197771344  0.5656977967569767  0.8346158525710539  1.0000
  Br  Br1       1.0  0.340850125710332  0.5807655333834936  0.08638962994571031  1.0000
  H   H10       1.0  0.8510543884940868  0.6281754086484601  0.08690980545819849  1.0000
  H   H11       1.0  0.2909677082003048  0.6017177779105805  0.7747006539512222  1.0000
  H   H12       1.0  0.9207594608000227  0.6077039840527614  0.5509039449300497  1.0000
  Zn  Zn1       1.0  0.9685662108810889  0.5612132389594016  0.4114616695357507  1.0000
  Zn  Zn2       1.0  0.16487790369030741  0.561209097015045  0.4114568120959716  1.0000
  C   C21       1.0  0.0665749129920894  0.5582573963303148  0.6746413458066236  1.0000
  C   C22       1.0  0.06687133357922082  0.564166760474075  0.1482772782526709  1.0000
  C   C23       1.0  0.06504412415425054  0.8245074277180074  0.40586896027953423  1.0000
  C   C24       1.0  0.06840206643766611  0.2979149974827324  0.4170497396093155  1.0000
  O   O1        1.0  0.14131887192026513  0.5666563359871162  0.20196416042011522  1.0000
  O   O2        1.0  0.14112341438934162  0.5557635849838829  0.6209503615194429  1.0000
  O   O3        1.0  0.13988627769804585  0.7707638684271699  0.4039147594850995  1.0000
  O   O4        1.0  0.14255594163421503  0.35165606171479413  0.4189996544178485  1.0000
  O   O5        1.0  0.9908881059456303  0.7707662742625558  0.4039188272079532  1.0000
  O   O6        1.0  0.9921252316247694  0.5557677224258215  0.6209543534068207  1.0000
  O   O7        1.0  0.992320690761264  0.5666604048132325  0.20196641979206162  1.0000
  O   O8        1.0  0.9935577604610091  0.3516601213728486  0.41900202182048474  1.0000
