data_image0
_chemical_formula_structural       NC9NC5H8C6NH7C7OH4Zn2C4O8
_chemical_formula_sum              "N3 C31 H19 O9 Zn2"
_cell_length_a       17.807436237873137
_cell_length_b       9.274771166103582
_cell_length_c       9.274081674992354
_cell_angle_alpha    85.96953540669611
_cell_angle_beta     89.07685020002327
_cell_angle_gamma    88.98784114054227

_space_group_name_H-M_alt    "P 1"
_space_group_IT_number       1

loop_
  _space_group_symop_operation_xyz
  'x, y, z'

loop_
  _atom_site_type_symbol
  _atom_site_label
  _atom_site_symmetry_multiplicity
  _atom_site_fract_x
  _atom_site_fract_y
  _atom_site_fract_z
  _atom_site_occupancy
  N   N1        1.0  0.7205290559328583  0.5264005489432579  0.3955785449559737  1.0000
  C   C1        1.0  0.6597646008816881  0.4872152094017417  0.38341838133147776  1.0000
  C   C2        1.0  0.5841802974704478  0.43847296215551834  0.36829245800257215  1.0000
  C   C3        1.0  0.5660000598866988  0.3581161268922108  0.2519021100939405  1.0000
  C   C4        1.0  0.4926112029810457  0.3106665222158247  0.23712434122617612  1.0000
  C   C5        1.0  0.43635168637551663  0.3431542216759549  0.33870171033314606  1.0000
  C   C6        1.0  0.358358676787533  0.29285594182605257  0.323087617931604  1.0000
  C   C7        1.0  0.2965923042779283  0.3838984000682346  0.35170231501238103  1.0000
  C   C8        1.0  0.2230598689280643  0.3362234824616124  0.3369401656269204  1.0000
  C   C9        1.0  0.1602585053769734  0.43025805117389254  0.3659529981071734  1.0000
  N   N2        1.0  0.10977916439080068  0.5058553497522074  0.3892785215980137  1.0000
  C   C10       1.0  0.21070878277455246  0.19721939350343695  0.29353573569215863  1.0000
  C   C11       1.0  0.2716177290617125  0.10616146927906911  0.26491175649705156  1.0000
  C   C12       1.0  0.34502900692914107  0.15339625197532755  0.27944995212556756  1.0000
  C   C13       1.0  0.45522560351249347  0.42406220486207213  0.45533432397705353  1.0000
  C   C14       1.0  0.5286666884782323  0.4712988290487527  0.4699397428243968  1.0000
  H   H1        1.0  0.6084934231881027  0.33242592277569316  0.17235585288490118  1.0000
  H   H2        1.0  0.47964493429789706  0.25022254500025953  0.14520539035518065  1.0000
  H   H3        1.0  0.3055852127979439  0.49241321270677796  0.3835444062741047  1.0000
  H   H4        1.0  0.1540724124283689  0.15931941426175644  0.2818492951802216  1.0000
  H   H5        1.0  0.2619353651435294  0.9985451833261968  0.2317355657751521  1.0000
  H   H6        1.0  0.39133423037225235  0.08020182185667868  0.25844880210439275  1.0000
  H   H7        1.0  0.4134416245500812  0.4491669051268854  0.5363185066565959  1.0000
  H   H8        1.0  0.5421721005235091  0.5330876281199523  0.5606999725293618  1.0000
  C   C15       1.0  0.9128494536396564  0.09266007787399254  0.39325149001820053  1.0000
  C   C16       1.0  0.895945692996735  0.17570953258277064  0.26463075210642173  1.0000
  C   C17       1.0  0.8860569895896828  0.11002327993753203  0.13507869753225177  1.0000
  C   C18       1.0  0.8931141910841548  0.9598994818049056  0.13320718189357983  1.0000
  C   C19       1.0  0.9086342743701117  0.8755878131635166  0.2600796833429453  1.0000
  C   C20       1.0  0.9174658540755621  0.9395845312684561  0.3916180245880061  1.0000
  N   N3        1.0  0.8696188680981051  0.19613499988622807  0.005033799989216274  1.0000
  H   H9        1.0  0.9964489843282462  0.17072597076087392  0.7073425040211134  1.0000
  H   H10       1.0  0.8921602326775518  0.29249709624507303  0.26413835525958573  1.0000
  H   H11       1.0  0.88586131930268  0.9079034911183632  0.0335241929011203  1.0000
  H   H12       1.0  0.9119564955471134  0.7592115684828953  0.2558979485845285  1.0000
  H   H13       1.0  0.9707229328223337  0.6416245261178628  0.6053697162098683  1.0000
  H   H14       1.0  0.86444408460364  0.3084816151262968  0.0050707385292791994  1.0000
  H   H15       1.0  0.8624297215608786  0.14817402961867687  0.9077201572851843  1.0000
  C   C21       1.0  0.9164046183386527  0.5122751812045105  0.9691517890007071  1.0000
  C   C22       1.0  0.9777463313355577  0.5718148089495847  0.036569545702351616  1.0000
  C   C23       1.0  0.03489263354075578  0.6422173148371042  0.9550265955174044  1.0000
  C   C24       1.0  0.030684119320953274  0.6534720689570394  0.8039517083423018  1.0000
  C   C25       1.0  0.9709118270870786  0.5930271400039147  0.7353072367497515  1.0000
  C   C26       1.0  0.9139106824735124  0.5199693784499642  0.8157176523244178  1.0000
  C   C27       1.0  0.09800130583660357  0.7045351481464273  0.029329320817135247  1.0000
  O   O1        1.0  0.1500572771708617  0.7689920992979311  0.9590234174992407  1.0000
  H   H16       1.0  0.7379352646730459  0.4279929757633252  0.08358150124578057  1.0000
  H   H17       1.0  0.07399769353090235  0.7078385091169377  0.7385385786070375  1.0000
  H   H18       1.0  0.7949069517277156  0.45723708838726757  0.5426863490577523  1.0000
  H   H19       1.0  0.1001409823281525  0.6952519884862882  0.1462187526326073  1.0000
  Zn  Zn1       1.0  0.8328581822439999  0.5204678762087972  0.3937688379841233  1.0000
  Zn  Zn2       1.0  0.9974499209004022  0.5117763754197764  0.3911001012579851  1.0000
  C   C28       1.0  0.9143490959932009  0.5127703140795858  0.6557097188120153  1.0000
  C   C29       1.0  0.915960813988789  0.5194756634286439  0.12915932925376872  1.0000
  C   C30       1.0  0.9166063023634646  0.7794457500203211  0.38618287753513597  1.0000
  C   C31       1.0  0.91370354178479  0.2527984986097418  0.398686251631168  1.0000
  O   O2        1.0  0.9782735419460784  0.5185875406114882  0.1818465619043295  1.0000
  O   O3        1.0  0.9769576845751591  0.5070606972614583  0.600996563901625  1.0000
  O   O4        1.0  0.9787795608363611  0.7224045424406511  0.38335174338428235  1.0000
  O   O5        1.0  0.9764516098954823  0.30324370773159504  0.3994912752358842  1.0000
  O   O6        1.0  0.8538564370818683  0.7290005468644621  0.3853776649093479  1.0000
  O   O7        1.0  0.8520345704873501  0.5136584335309198  0.6030224052292954  1.0000
  O   O8        1.0  0.853350432739658  0.5251852108757809  0.183870670322962  1.0000
  O   O9        1.0  0.8515285003114045  0.3098413686640713  0.40151549174342943  1.0000
