data_image0
_chemical_formula_structural       NC9NC5H8C7F3H5C7NC2NH7Zn2C4O8
_chemical_formula_sum              "N4 C34 H20 F3 Zn2 O8"
_cell_length_a       17.807436237873137
_cell_length_b       9.272718291674593
_cell_length_c       9.27399911348925
_cell_angle_alpha    85.49165257692455
_cell_angle_beta     89.04204372891122
_cell_angle_gamma    87.96869977406762

_space_group_name_H-M_alt    "P 1"
_space_group_IT_number       1

loop_
  _space_group_symop_operation_xyz
  'x, y, z'

loop_
  _atom_site_type_symbol
  _atom_site_label
  _atom_site_symmetry_multiplicity
  _atom_site_fract_x
  _atom_site_fract_y
  _atom_site_fract_z
  _atom_site_occupancy
  N   N1        1.0  0.706277541568334  0.5545645141623703  0.40814813792663257  1.0000
  C   C1        1.0  0.6458790209072692  0.5155975223605083  0.39559908119524256  1.0000
  C   C2        1.0  0.5707498995801483  0.467126875990705  0.3799894176433798  1.0000
  C   C3        1.0  0.5533202044150137  0.3888315587044182  0.26268807023873464  1.0000
  C   C4        1.0  0.4803744582545626  0.3416472870022029  0.24743932416238135  1.0000
  C   C5        1.0  0.42381142765883284  0.37233946316894295  0.34945266981853584  1.0000
  C   C6        1.0  0.3462881312559847  0.32232154810970615  0.3333393878490525  1.0000
  C   C7        1.0  0.28367155338041283  0.4128503135848689  0.3628580809187616  1.0000
  C   C8        1.0  0.21058433275492985  0.3654404750391578  0.34762282437871916  1.0000
  C   C9        1.0  0.1469048225837954  0.4589540374469762  0.37756868965310875  1.0000
  N   N2        1.0  0.09571951236421637  0.5341324615895566  0.40164430857056255  1.0000
  C   C10       1.0  0.1995313440930249  0.22721567225185946  0.30283852202024786  1.0000
  C   C11       1.0  0.2612906401822209  0.1366716060727018  0.273310387781436  1.0000
  C   C12       1.0  0.3342608136688742  0.18364530390094688  0.28831721403319666  1.0000
  C   C13       1.0  0.4419296553548342  0.4511816003665303  0.4670018412046489  1.0000
  C   C14       1.0  0.5149296186512481  0.4981559533134785  0.48207599167151627  1.0000
  H   H1        1.0  0.5960535755263977  0.36454747085978423  0.18279802241250032  1.0000
  H   H2        1.0  0.467972749535413  0.2828310971744785  0.1548296999093226  1.0000
  H   H3        1.0  0.29165109303723774  0.5207928012119354  0.39577484793830525  1.0000
  H   H4        1.0  0.1432489046280441  0.18952555781421632  0.29077603778927186  1.0000
  H   H5        1.0  0.2526132564066048  0.02965109957773194  0.23906643690044158  1.0000
  H   H6        1.0  0.3812495648578829  0.11082850180026327  0.26659177505022646  1.0000
  H   H7        1.0  0.3999111341133811  0.47485486769020024  0.5483260137830832  1.0000
  H   H8        1.0  0.5278579142098375  0.5583372818004304  0.5735382853669946  1.0000
  C   C15       1.0  0.9026482659056193  0.12090688290027127  0.40168060777703163  1.0000
  C   C16       1.0  0.857144537294393  0.2054707421597275  0.30270215353642405  1.0000
  C   C17       1.0  0.8062892454907231  0.1413724252894153  0.2152005523183289  1.0000
  C   C18       1.0  0.802938145874394  0.9901864849272772  0.22369410135319745  1.0000
  C   C19       1.0  0.8485075055883627  0.9046871666764261  0.3195484795136829  1.0000
  C   C20       1.0  0.8993559567766268  0.9677785411642913  0.40812421032458035  1.0000
  C   C21       1.0  0.7594464814233657  0.23368339193123266  0.10706288577822076  1.0000
  F   F1        1.0  0.7399786373436132  0.3656696948906979  0.15983923124229182  1.0000
  F   F2        1.0  0.6939423992764814  0.16598079107467556  0.07800418473932469  1.0000
  F   F3        1.0  0.8003666014364406  0.2574136683216399  0.9799595463734031  1.0000
  H   H9        1.0  0.9909295210808913  0.19227061121187528  0.7116718991227833  1.0000
  H   H10       1.0  0.8601643634094729  0.3223393183126242  0.2959345601403036  1.0000
  H   H11       1.0  0.7655877942857963  0.937654580113778  0.15491657353758126  1.0000
  H   H12       1.0  0.8454346343900041  0.7880624762571424  0.32154157101482417  1.0000
  H   H13       1.0  0.06014684449100338  0.8419243982191793  0.5791431202539383  1.0000
  C   C22       1.0  0.9022855950807702  0.5479650649526195  0.9810574038276078  1.0000
  C   C23       1.0  0.9615424215350152  0.4758234832793417  0.05803145695000179  1.0000
  C   C24       1.0  0.015864914467045733  0.39367725005796217  0.9878737798022331  1.0000
  C   C25       1.0  0.012392959158070042  0.38085804124533323  0.8385372689204287  1.0000
  C   C26       1.0  0.9542576185763362  0.4553753967907732  0.760004212508921  1.0000
  C   C27       1.0  0.8997186402141654  0.540720369650791  0.8287473245162125  1.0000
  C   C28       1.0  0.07039845853101753  0.2915927217718395  0.766222442217074  1.0000
  N   N3        1.0  0.1335217222605194  0.23790884047755642  0.8328270146174632  1.0000
  C   C29       1.0  0.17017972381204793  0.16385068623549737  0.7323475410262819  1.0000
  C   C30       1.0  0.1291047321845089  0.17319054660930508  0.6075456379964765  1.0000
  N   N4        1.0  0.0663497324036233  0.2534633490077185  0.6290075622156048  1.0000
  H   H14       1.0  0.8215872332702211  0.7341668573684778  0.2503552652133758  1.0000
  H   H15       1.0  0.9649297624212082  0.4799359169136814  0.1741584098057254  1.0000
  H   H16       1.0  0.06013987213659244  0.33824492456981714  0.05146137738050416  1.0000
  H   H17       1.0  0.9524139760178149  0.451571320600191  0.6439005730874734  1.0000
  H   H18       1.0  0.7821556419017105  0.6282553947336054  0.5455624501121039  1.0000
  H   H19       1.0  0.2235511923032418  0.10618054014354361  0.7494106584317364  1.0000
  H   H20       1.0  0.14371586967867356  0.12428515105292348  0.5082457313370283  1.0000
  Zn  Zn1       1.0  0.8186620704181398  0.5486643462318501  0.4062795913186348  1.0000
  Zn  Zn2       1.0  0.9833349750806054  0.5400207740742591  0.4035246314966512  1.0000
  C   C31       1.0  0.9002245046254285  0.536345420277367  0.6684721335448265  1.0000
  C   C32       1.0  0.9017743315942726  0.5523414238219033  0.14133221469290524  1.0000
  C   C33       1.0  0.8999918328020772  0.8077511343731287  0.40115468765895534  1.0000
  C   C34       1.0  0.9020069537282599  0.28093397958343047  0.40864972528763466  1.0000
  O   O1        1.0  0.9640952804731378  0.5505236884658677  0.19407636458851352  1.0000
  O   O2        1.0  0.962886485600837  0.5316018001102512  0.6136366091288084  1.0000
  O   O3        1.0  0.9626977531873938  0.7507653780285435  0.39777590576249566  1.0000
  O   O4        1.0  0.964283956982482  0.331360124737049  0.4099369607533381  1.0000
  O   O5        1.0  0.8377130323214995  0.7573249985203219  0.3998672629945006  1.0000
  O   O6        1.0  0.8379017582295429  0.5381631536960019  0.6157279025845075  1.0000
  O   O7        1.0  0.8391105586019811  0.5570850066310347  0.19616592235484354  1.0000
  O   O8        1.0  0.8392992348206608  0.3379214316640044  0.4120266266537089  1.0000
