data_image0
_chemical_formula_structural       NC9NC5H8C10OC3H12C10IC2H9Zn2C4O8
_chemical_formula_sum              "N2 C43 H29 O9 I1 Zn2"
_cell_length_a       17.807436237873137
_cell_length_b       10.299147686265055
_cell_length_c       10.299773630820606
_cell_angle_alpha    85.51846359062819
_cell_angle_beta     89.39680483827473
_cell_angle_gamma    88.4026209823192

_space_group_name_H-M_alt    "P 1"
_space_group_IT_number       1

loop_
  _space_group_symop_operation_xyz
  'x, y, z'

loop_
  _atom_site_type_symbol
  _atom_site_label
  _atom_site_symmetry_multiplicity
  _atom_site_fract_x
  _atom_site_fract_y
  _atom_site_fract_z
  _atom_site_occupancy
  N   N1        1.0  0.7075166130376347  0.38832382183671643  0.5565257478796346  1.0000
  C   C1        1.0  0.6469239689911153  0.35313485282467677  0.5455169566029119  1.0000
  C   C2        1.0  0.5715533794921982  0.30936365059111526  0.531823215553044  1.0000
  C   C3        1.0  0.5534473475345921  0.23797645745449314  0.4268507472102434  1.0000
  C   C4        1.0  0.48026637572233827  0.19536651448394562  0.41347242632127984  1.0000
  C   C5        1.0  0.42414266690047425  0.22376621577556757  0.505034284741862  1.0000
  C   C6        1.0  0.3463701776634081  0.17859771988201548  0.49089861941264323  1.0000
  C   C7        1.0  0.28420572372096004  0.2603520231746261  0.5168023901115251  1.0000
  C   C8        1.0  0.2108824215047345  0.2175390218563169  0.5034378379198005  1.0000
  C   C9        1.0  0.1476682443961148  0.3019847719513409  0.5297043527748415  1.0000
  N   N2        1.0  0.0968570335011972  0.36987331238526266  0.5508219067464802  1.0000
  C   C10       1.0  0.1991399937307352  0.09271372516983757  0.46414427638589617  1.0000
  C   C11       1.0  0.2604470756300579  0.010945571169064685  0.43823212192759153  1.0000
  C   C12       1.0  0.33365088446444385  0.053364065095609765  0.451394305013925  1.0000
  C   C13       1.0  0.442940178487644  0.2956477441435541  0.610225770475762  1.0000
  C   C14       1.0  0.5161739890445589  0.33806732741169143  0.6234485220621162  1.0000
  H   H1        1.0  0.595835683873275  0.21551232229981143  0.35514740133806444  1.0000
  H   H2        1.0  0.46734263194853753  0.1417064609238361  0.3305747848423577  1.0000
  H   H3        1.0  0.2927172675537434  0.35781532145843253  0.5456375137032261  1.0000
  H   H4        1.0  0.1426700262463315  0.05867839351624226  0.45356402886954084  1.0000
  H   H5        1.0  0.2512372315591178  0.9143028188447229  0.4081962286803804  1.0000
  H   H6        1.0  0.38028224335009647  0.9876199663605671  0.43237418045693754  1.0000
  H   H7        1.0  0.4012687191937593  0.31757237548775463  0.6832238522842549  1.0000
  H   H8        1.0  0.5296261866905412  0.3929483937958438  0.7053040063303746  1.0000
  C   C15       1.0  0.9021410410101156  0.9976990071154619  0.5538439894622527  1.0000
  C   C16       1.0  0.8815744101023856  0.008202436130019478  0.4221251975658895  1.0000
  C   C17       1.0  0.8711987004674929  0.8963958260975294  0.35516975840570647  1.0000
  C   C18       1.0  0.8816645174962415  0.7729468200345093  0.4217120565493668  1.0000
  C   C19       1.0  0.9022397805168544  0.7604878671010443  0.5535148188387895  1.0000
  C   C20       1.0  0.9123530058034851  0.8733854894311116  0.618769005992071  1.0000
  C   C21       1.0  0.8494431210718189  0.9085523525632291  0.21582114334056254  1.0000
  C   C22       1.0  0.7952174523893618  0.002469260770988857  0.1700120098812139  1.0000
  C   C23       1.0  0.7747920554364808  0.013741264321216697  0.038886303879850356  1.0000
  C   C24       1.0  0.8079424886343617  0.9319507429397649  0.9510582897704681  1.0000
  O   O1        1.0  0.7854986505774897  0.9472379397836221  0.8204868364900078  1.0000
  C   C25       1.0  0.8144506103072175  0.8709336853245978  0.7209137921612716  1.0000
  C   C26       1.0  0.8622732322584885  0.8378105502987107  0.9963382555522824  1.0000
  C   C27       1.0  0.8827317504485803  0.8263340136161008  0.1274888554614004  1.0000
  H   H9        1.0  0.9100113393050995  0.3211351012037616  0.6045281704422718  1.0000
  H   H10       1.0  0.8745769241164916  0.10356788647670515  0.3708057930403089  1.0000
  H   H11       1.0  0.8727444157456618  0.6864429638948791  0.3710640563735892  1.0000
  H   H12       1.0  0.9282144112576449  0.8645682023991279  0.7203681047694679  1.0000
  H   H13       1.0  0.9406123289428334  0.529684570226442  0.8025076774668719  1.0000
  H   H14       1.0  0.7678690305132019  0.06611316346789797  0.23592694510408863  1.0000
  H   H15       1.0  0.7327681449339143  0.08633486390114432  0.005337059185123393  1.0000
  H   H16       1.0  0.7869002740333808  0.903714267333347  0.6274987768111381  1.0000
  H   H17       1.0  0.8023562929342438  0.766567276048058  0.7449481777462492  1.0000
  H   H18       1.0  0.8759428081098286  0.8837430111319748  0.7094888678245921  1.0000
  H   H19       1.0  0.8891618837183167  0.7732659699111738  0.9309975407991318  1.0000
  H   H20       1.0  0.9253588958746825  0.754185109445183  0.15950646292321857  1.0000
  C   C28       1.0  0.9021706097969203  0.37921249902436993  0.17230953401699087  1.0000
  C   C29       1.0  0.9779187188704371  0.41381804784257015  0.16723104583645032  1.0000
  C   C30       1.0  0.016320836522791374  0.4312318527773309  0.04752826025832513  1.0000
  C   C31       1.0  0.9779586880264677  0.4135773430243686  0.9319627205443227  1.0000
  C   C32       1.0  0.9022102022289975  0.37897436489538294  0.9350492589277541  1.0000
  C   C33       1.0  0.8647404156642703  0.36198503935617365  0.055697757836730366  1.0000
  C   C34       1.0  0.09645516588782299  0.4678402990444821  0.04320926526822921  1.0000
  C   C35       1.0  0.14770945124109255  0.40939251871370913  0.9590347440025109  1.0000
  C   C36       1.0  0.22311173496893377  0.44397615839166904  0.9551712417118727  1.0000
  C   C37       1.0  0.24822543155459686  0.5371765126892969  0.03502752960847276  1.0000
  I   I1        1.0  0.36199982662948615  0.5891547990606243  0.028893657789152982  1.0000
  C   C38       1.0  0.1978408477058033  0.5958851468240125  0.11895401846136755  1.0000
  C   C39       1.0  0.12239641242965303  0.5615546894764074  0.12322238496506821  1.0000
  H   H21       1.0  0.8732974568828012  0.36608358746851466  0.5016936742806988  1.0000
  H   H22       1.0  0.007522077070446055  0.4255682775919356  0.25670483548287026  1.0000
  H   H23       1.0  0.007013688322018431  0.42862415923755237  0.8393276340034062  1.0000
  H   H24       1.0  0.8063040387335211  0.3352894826626893  0.05884717509542624  1.0000
  H   H25       1.0  0.8733559035256903  0.36573298882221233  0.6087760422221566  1.0000
  H   H26       1.0  0.12969328130515523  0.3357796159638986  0.8974924752435246  1.0000
  H   H27       1.0  0.26201709991134314  0.3980428417418815  0.8903117514596878  1.0000
  H   H28       1.0  0.2170472307635221  0.6683668874946898  0.18068066755820378  1.0000
  H   H29       1.0  0.08416326581251599  0.609470291582203  0.18779708752077484  1.0000
  Zn  Zn1       1.0  0.819871846915859  0.3829959354535881  0.5548872548451359  1.0000
  Zn  Zn2       1.0  0.9845017806096846  0.3751906084143275  0.5524710809883551  1.0000
  C   C40       1.0  0.9022003786903304  0.37384533505282996  0.7908774034952952  1.0000
  C   C41       1.0  0.9021750468077151  0.384342762291916  0.316481032713287  1.0000
  C   C42       1.0  0.9022169804575835  0.6163062968057127  0.5484019263276031  1.0000
  C   C43       1.0  0.9021583886653791  0.141880242753528  0.5589565806175969  1.0000
  O   O2        1.0  0.9646527370363094  0.38309677838215106  0.36394938175704067  1.0000
  O   O3        1.0  0.9646729987117458  0.3691662766586927  0.7415748609765165  1.0000
  O   O4        1.0  0.9646855627097871  0.5649566091201164  0.5457742093874078  1.0000
  O   O5        1.0  0.9646401168573705  0.18730645790552772  0.5597499367917026  1.0000
  O   O6        1.0  0.8397334544880566  0.5708800886273786  0.5476083998594778  1.0000
  O   O7        1.0  0.8397208906849817  0.37509131661645184  0.743408981529659  1.0000
  O   O8        1.0  0.8397006289725845  0.38902177356551754  0.36578194092434413  1.0000
  O   O9        1.0  0.8396880087944262  0.19323144376908497  0.5615825933311429  1.0000
