data_image0
_chemical_formula_structural       NC8NC6H8C9H10C6SCNH5Zn2C4O8
_chemical_formula_sum              "N3 C34 H23 S1 Zn2 O8"
_cell_length_a       17.457602349358154
_cell_length_b       9.272676604525723
_cell_length_c       10.302218930750287
_cell_angle_alpha    85.8010258303436
_cell_angle_beta     92.89432631333469
_cell_angle_gamma    92.2282679722568

_space_group_name_H-M_alt    "P 1"
_space_group_IT_number       1

loop_
  _space_group_symop_operation_xyz
  'x, y, z'

loop_
  _atom_site_type_symbol
  _atom_site_label
  _atom_site_symmetry_multiplicity
  _atom_site_fract_x
  _atom_site_fract_y
  _atom_site_fract_z
  _atom_site_occupancy
  N   N1        1.0  0.7304530862446303  0.6139131349541598  0.633839782519692  1.0000
  C   C1        1.0  0.6691112893797871  0.5629052358472704  0.6230046661663629  1.0000
  C   C2        1.0  0.5927995454138808  0.4994577547649359  0.609535348788657  1.0000
  C   C3        1.0  0.5345139185698418  0.5440532595709598  0.6846097817519501  1.0000
  C   C4        1.0  0.45965245115922837  0.4829584544809538  0.6717649929814351  1.0000
  C   C5        1.0  0.3977895448466963  0.5300446988556202  0.7512710468834061  1.0000
  C   C6        1.0  0.3233377822993027  0.5505672875492211  0.6956095839767029  1.0000
  C   C7        1.0  0.26505112396184644  0.5949584856469097  0.7707910573406002  1.0000
  C   C8        1.0  0.18916424721039532  0.6161543805005623  0.7129175699955348  1.0000
  N   N2        1.0  0.1281640784584594  0.6331887939283412  0.6663874063667945  1.0000
  C   C9        1.0  0.28072554689695484  0.619097068630624  0.90214356860693  1.0000
  C   C10       1.0  0.3543948959448366  0.5990064662098877  0.9581944193505376  1.0000
  C   C11       1.0  0.4126710615612895  0.5548151786561502  0.8834714316533996  1.0000
  C   C12       1.0  0.4443611259892774  0.37651597065982245  0.5824099092428048  1.0000
  C   C13       1.0  0.5026366985064341  0.3322299309986547  0.5077367336395329  1.0000
  C   C14       1.0  0.5767141437499329  0.39344945932112646  0.521131888418711  1.0000
  H   H1        1.0  0.5472991844423849  0.627561183863141  0.7515883706255733  1.0000
  H   H2        1.0  0.3108883654986956  0.5339570088690697  0.5935362793459645  1.0000
  H   H3        1.0  0.23605166523780968  0.6533889154456153  0.961115035169864  1.0000
  H   H4        1.0  0.36633941435324446  0.6173469213667164  0.05990207346806154  1.0000
  H   H5        1.0  0.4690797962851762  0.53815572786922  0.9294948536835381  1.0000
  H   H6        1.0  0.3876159629005849  0.3261630294643014  0.5715415326336601  1.0000
  H   H7        1.0  0.49037138513606576  0.24996227877398303  0.43956549234062164  1.0000
  H   H8        1.0  0.6213832054315951  0.3581915410161738  0.46266722817493183  1.0000
  C   C15       1.0  0.9271375326225514  0.19995738625897896  0.6482773398953308  1.0000
  C   C16       1.0  0.8964347210656254  0.26256386474798576  0.7532919983954809  1.0000
  C   C17       1.0  0.872753791322603  0.17727452193176285  0.8620544500855063  1.0000
  C   C18       1.0  0.8790115140175672  0.0268282396524948  0.8694647079383891  1.0000
  C   C19       1.0  0.9084568223230508  0.9627111902358859  0.7633468254964793  1.0000
  C   C20       1.0  0.9314869367492792  0.04713375035791745  0.6519616462796565  1.0000
  C   C21       1.0  0.8525888418419085  0.9419265341993683  0.9920226973438919  1.0000
  C   C22       1.0  0.8138010208041376  0.793952707284884  0.9759213264301192  1.0000
  C   C23       1.0  0.8948433607377488  0.80532179163971  0.0374896226149063  1.0000
  H   H9        1.0  0.9441469892721464  0.49961588455493283  0.4369137861922492  1.0000
  H   H10       1.0  0.8923853964185822  0.3788901402990898  0.752835800605307  1.0000
  H   H11       1.0  0.8500317795995793  0.22961661462012417  0.9417725261897996  1.0000
  H   H12       1.0  0.9121180805682085  0.8464882525425169  0.7648520938248958  1.0000
  H   H13       1.0  0.95135187024599  0.9712931885787555  0.3356811690413559  1.0000
  H   H14       1.0  0.8308771696684246  0.000994050477351792  0.07199251306928012  1.0000
  H   H15       1.0  0.8102245654153121  0.7545328963562272  0.8766502667817921  1.0000
  H   H16       1.0  0.7693364086223047  0.7630125462990819  0.04718492586028989  1.0000
  H   H17       1.0  0.940472431465158  0.7726784782557556  0.9756927636730572  1.0000
  H   H18       1.0  0.8977421254974179  0.7810201615069521  0.14475391932578396  1.0000
  C   C24       1.0  0.9292410169157134  0.6236096704197038  0.268838755063044  1.0000
  C   C25       1.0  0.0011736246300977323  0.5599017292984902  0.2782401664393541  1.0000
  C   C26       1.0  0.03693076438400799  0.5277455510572153  0.16593628923926396  1.0000
  C   C27       1.0  0.001359825265769161  0.559732146990026  0.04310045589417654  1.0000
  C   C28       1.0  0.9293834125998234  0.6234814655743492  0.031400208259096285  1.0000
  C   C29       1.0  0.8937059427939338  0.6550168081032068  0.1448676237783757  1.0000
  S   S1        1.0  0.1288878866016021  0.4469891536325304  0.17938898432985442  1.0000
  C   C30       1.0  0.0878503618982136  0.26977368549093145  0.1876047964066028  1.0000
  N   N3        1.0  0.060923620227854254  0.15359952668085386  0.1929890779533621  1.0000
  H   H19       1.0  0.90187622950213  0.6479233152586223  0.5925920870955566  1.0000
  H   H20       1.0  0.02967733966896646  0.5347451884112955  0.3725403903868518  1.0000
  H   H21       1.0  0.02999116699416482  0.5344593000006634  0.957143422586448  1.0000
  H   H22       1.0  0.8382267880225005  0.7041309825588516  0.13676991791031345  1.0000
  H   H23       1.0  0.7937528309009062  0.7437830755117858  0.8021226925660813  1.0000
  Zn  Zn1       1.0  0.8452238691398111  0.6194718041925902  0.6432398036063334  1.0000
  Zn  Zn2       1.0  0.013393222580424965  0.6276182961661405  0.6569979639156647  1.0000
  C   C31       1.0  0.9293252923562362  0.6177591238460634  0.8872346381726878  1.0000
  C   C32       1.0  0.9292936451359706  0.6293328854967306  0.4130034149401756  1.0000
  C   C33       1.0  0.9306598692747918  0.8870000734546188  0.6460909215726648  1.0000
  C   C34       1.0  0.9279590019484291  0.3600902000388533  0.6541471885312171  1.0000
  O   O1        1.0  0.9931306685479014  0.6343389069598249  0.466607514523649  1.0000
  O   O2        1.0  0.9931249113752022  0.6189350131602485  0.844072285429786  1.0000
  O   O3        1.0  0.9942017390511445  0.8363504430831545  0.6493469642816168  1.0000
  O   O4        1.0  0.9920537835219453  0.4169234845922656  0.6613327336698138  1.0000
  O   O5        1.0  0.8665632508103503  0.8301666129880383  0.6389050291503762  1.0000
  O   O6        1.0  0.8654864320154526  0.6127529161360277  0.8336302886057194  1.0000
  O   O7        1.0  0.8654921886895989  0.6281567599338311  0.45616395644551666  1.0000
  O   O8        1.0  0.8644153036257155  0.4107413272324988  0.6508892728918783  1.0000
