data_image0
_chemical_formula_structural       NC8NH4C6ClH5C6ClH4Zn2C4O8
_chemical_formula_sum              "N2 C24 H13 Cl2 Zn2 O8"
_cell_length_a       11.048855714531884
_cell_length_b       9.276545438789551
_cell_length_c       9.276548810779733
_cell_angle_alpha    86.11252841497436
_cell_angle_beta     89.72476913812324
_cell_angle_gamma    89.40961225544244

_space_group_name_H-M_alt    "P 1"
_space_group_IT_number       1

loop_
  _space_group_symop_operation_xyz
  'x, y, z'

loop_
  _atom_site_type_symbol
  _atom_site_label
  _atom_site_symmetry_multiplicity
  _atom_site_fract_x
  _atom_site_fract_y
  _atom_site_fract_z
  _atom_site_occupancy
  N   N1        1.0  0.13256069912254587  0.5635565901923192  0.4114710932425818  1.0000
  C   C1        1.0  0.07890015911749959  0.5048385414732153  0.32647495808900123  1.0000
  C   C2        1.0  0.011948362455146418  0.43157515443030237  0.22042377211924905  1.0000
  C   C3        1.0  0.8842316082992598  0.43157496480250956  0.2204238736994382  1.0000
  C   C4        1.0  0.8225105986715374  0.359150839676476  0.11558783665113803  1.0000
  C   C5        1.0  0.8869773179015678  0.2872995891075172  0.011580972294889191  1.0000
  C   C6        1.0  0.013383531180856561  0.28729947920049126  0.011580994887344874  1.0000
  C   C7        1.0  0.07576813675032734  0.3591509378499569  0.11558780900119636  1.0000
  C   C8        1.0  0.8151567374448884  0.5048386162793579  0.3264749450045108  1.0000
  N   N2        1.0  0.7597945847740415  0.5635566331223827  0.4114711220503278  1.0000
  H   H1        1.0  0.7244615011406683  0.3582439155886439  0.11427439576180531  1.0000
  H   H2        1.0  0.8388869517695845  0.23157008700612772  0.9309114424920445  1.0000
  H   H3        1.0  0.06308899205232701  0.23157019641281826  0.9309114419477957  1.0000
  H   H4        1.0  0.17384351219641483  0.3582438690577332  0.1142746707691973  1.0000
  C   C9        1.0  0.4498371817439243  0.14011928301098364  0.4112335665595348  1.0000
  C   C10       1.0  0.4508306108209985  0.22255656049530015  0.2782323963307518  1.0000
  C   C11       1.0  0.4408012307052639  0.15628940490603083  0.14812601977011708  1.0000
  C   C12       1.0  0.42953658399394073  0.006706415816577938  0.149019158756436  1.0000
  C   C13       1.0  0.4304202573532365  0.9227084365489115  0.2795790909099927  1.0000
  C   C14       1.0  0.442529791581653  0.9869829614497636  0.41172111086027696  1.0000
  Cl  Cl1       1.0  0.44052559498767546  0.26140899574051657  0.9836185531437942  1.0000
  H   H5        1.0  0.5108250518827222  0.4051465065169624  0.6377822087647873  1.0000
  H   H6        1.0  0.45651322090410373  0.33925108132501863  0.27537947027009735  1.0000
  H   H7        1.0  0.42124795137437865  0.9550658915492977  0.048361096975711775  1.0000
  H   H8        1.0  0.42451389835618986  0.8064237812810685  0.27692938191935235  1.0000
  H   H9        1.0  0.4010198395905647  0.6903745672227242  0.644729437571645  1.0000
  C   C15       1.0  0.447922735534799  0.559688028640771  0.988325754783828  1.0000
  C   C16       1.0  0.5489747813877159  0.6145010156979545  0.05746378542458963  1.0000
  C   C17       1.0  0.6431459505481316  0.680061115475139  0.977269058873894  1.0000
  C   C18       1.0  0.637676470307969  0.6919117370196459  0.8268363549559661  1.0000
  C   C19       1.0  0.5392702902035091  0.6360872971474145  0.756048635798563  1.0000
  C   C20       1.0  0.44444417836903516  0.5674141172753063  0.8346289397645188  1.0000
  Cl  Cl2       1.0  0.7674958461233699  0.7494915412013925  0.06581349965688799  1.0000
  H   H10       1.0  0.30246825075940215  0.39829277209096037  0.28123497733739433  1.0000
  H   H11       1.0  0.710307704020426  0.7432073759595658  0.7643766324085575  1.0000
  H   H12       1.0  0.5387616244585859  0.6436111730702805  0.6390046760583092  1.0000
  H   H13       1.0  0.25048446243817085  0.5145490299476909  0.5580024012657803  1.0000
  Zn  Zn1       1.0  0.31356686307932474  0.5635528101644496  0.4114794176438503  1.0000
  Zn  Zn2       1.0  0.5787885015244478  0.5635486940051015  0.41147458373200463  1.0000
  C   C21       1.0  0.4451485900695633  0.5602093856860588  0.6746561844199008  1.0000
  C   C22       1.0  0.44720965446591215  0.5668939391038808  0.14829795938220114  1.0000
  C   C23       1.0  0.44392839238443055  0.8268552445992892  0.4058867820013725  1.0000
  C   C24       1.0  0.44842977628236336  0.30024634847531906  0.41706743762943543  1.0000
  O   O1        1.0  0.5476206218022726  0.5693044556970643  0.20198425454368873  1.0000
  O   O2        1.0  0.5460347205933977  0.5577946534415323  0.620965805000445  1.0000
  O   O3        1.0  0.5450480325593903  0.7731145704108326  0.4039326118472395  1.0000
  O   O4        1.0  0.5486072196891798  0.35398454805783097  0.41901733966147514  1.0000
  O   O5        1.0  0.3437480544074816  0.7731169561146256  0.4039366617084508  1.0000
  O   O6        1.0  0.34473472780306036  0.5577987708635621  0.620969779027021  1.0000
  O   O7        1.0  0.34632063664690427  0.5693085070547896  0.2019864960740645  1.0000
  O   O8        1.0  0.3473072341738011  0.353988590088395  0.41901968922134114  1.0000
