data_image0
_chemical_formula_structural       NC6NC3H6C9H10C7OH5Zn2C4O8
_chemical_formula_sum              "N2 C29 H21 O9 Zn2"
_cell_length_a       14.934028789175542
_cell_length_b       10.297183801781406
_cell_length_c       9.274074313596556
_cell_angle_alpha    86.09469829957582
_cell_angle_beta     90.20908406498742
_cell_angle_gamma    89.9601079490019

_space_group_name_H-M_alt    "P 1"
_space_group_IT_number       1

loop_
  _space_group_symop_operation_xyz
  'x, y, z'

loop_
  _atom_site_type_symbol
  _atom_site_label
  _atom_site_symmetry_multiplicity
  _atom_site_fract_x
  _atom_site_fract_y
  _atom_site_fract_z
  _atom_site_occupancy
  N   N1        1.0  0.8391178390952546  0.40685862337149065  0.40897495178896126  1.0000
  C   C1        1.0  0.7616300780941876  0.4058634304587107  0.40829672177306614  1.0000
  C   C2        1.0  0.6652313907107162  0.4046208364425442  0.4074500778991152  1.0000
  C   C3        1.0  0.6176360237778039  0.5013939432381294  0.4732802798794625  1.0000
  C   C4        1.0  0.5241225745297423  0.5003962357367239  0.47260145734140374  1.0000
  C   C5        1.0  0.47729202900148776  0.40267480920437054  0.4061262282962567  1.0000
  C   C6        1.0  0.38064988732629895  0.4047715325233676  0.40755381579552874  1.0000
  N   N2        1.0  0.30317264641055225  0.4064355497247308  0.4086871147562112  1.0000
  C   C7        1.0  0.5248795106851193  0.30456286274164523  0.3393847250452715  1.0000
  C   C8        1.0  0.47637970950501046  0.19831936995076993  0.2671135637251798  1.0000
  C   C9        1.0  0.6190257867827902  0.3065786341031045  0.3407560117513411  1.0000
  H   H1        1.0  0.6528120359965662  0.5776421799516671  0.5251489619502514  1.0000
  H   H2        1.0  0.48821762663871926  0.5760572491986966  0.5240705356787903  1.0000
  H   H3        1.0  0.4334044077105574  0.24173794629820214  0.17849801363579232  1.0000
  H   H4        1.0  0.4338395272789432  0.1424169636586432  0.34724357784329674  1.0000
  H   H5        1.0  0.523719637901236  0.12950386484344725  0.22029518796657555  1.0000
  H   H6        1.0  0.6564255343106106  0.23192414018132662  0.2899719108525539  1.0000
  C   C10       1.0  0.07115319688758204  0.02517331503147258  0.409035237305822  1.0000
  C   C11       1.0  0.06815865478136793  0.03369531580260542  0.25737238591642947  1.0000
  C   C12       1.0  0.06662425617270973  0.9214448988038265  0.17967107218704403  1.0000
  C   C13       1.0  0.06814667573986899  0.7985190374890986  0.2567845633929342  1.0000
  C   C14       1.0  0.07114593942824743  0.788110947630837  0.40863924554749087  1.0000
  C   C15       1.0  0.0726287714012115  0.9019054704436403  0.4837733103723834  1.0000
  C   C16       1.0  0.06338519968842737  0.9400942394238675  0.015636989420029453  1.0000
  C   C17       1.0  0.010750267830377466  0.8407160687788683  0.9354381224682818  1.0000
  C   C18       1.0  0.11275189057191559  0.840890809511825  0.9307963149338675  1.0000
  H   H7        1.0  0.07231559244507713  0.34942796102647794  0.4674757932835123  1.0000
  H   H8        1.0  0.06700278434897267  0.12840764344310698  0.19882215768522055  1.0000
  H   H9        1.0  0.06702073124680474  0.7104171430030107  0.19986026501862897  1.0000
  H   H10       1.0  0.0749386747139757  0.8946031254364942  0.6007843853088852  1.0000
  H   H11       1.0  0.076798809290201  0.5612365574800667  0.6954499886990946  1.0000
  H   H12       1.0  0.06234493207111044  0.04034467251209706  0.9629135510811451  1.0000
  H   H13       1.0  0.9810365109898469  0.7576854668374287  0.0010467739370973975  1.0000
  H   H14       1.0  0.9789016331967567  0.8807166461292579  0.8334858263404561  1.0000
  H   H15       1.0  0.14499864394532092  0.757967159545189  0.993586069984068  1.0000
  H   H16       1.0  0.14051871216830863  0.8809911360505135  0.826129756771338  1.0000
  C   C19       1.0  0.07007745580990532  0.4029016844817529  0.9855986858943406  1.0000
  C   C20       1.0  0.9920033963973856  0.4413243936365508  0.055516063147558636  1.0000
  C   C21       1.0  0.9183386303413492  0.4901829754973546  0.976354202334893  1.0000
  C   C22       1.0  0.9210247670229684  0.5019182047099562  0.8250664425562242  1.0000
  C   C23       1.0  0.9978898296267406  0.4619282638559381  0.7540107432767305  1.0000
  C   C24       1.0  0.07222163449908159  0.41038253481855524  0.8320758782208917  1.0000
  C   C25       1.0  0.84400026645379  0.5543522012658465  0.7396963362125599  1.0000
  O   O1        1.0  0.773831348440536  0.5906107083013716  0.8004273537498812  1.0000
  H   H17       1.0  0.28886503641307737  0.3696057461808515  0.09226872005339762  1.0000
  H   H18       1.0  0.8595863096874758  0.5199745383524548  0.03377686488136944  1.0000
  H   H19       1.0  0.9989273568337843  0.4682226584565783  0.6368501694119808  1.0000
  H   H20       1.0  0.2192879078940292  0.3832488009212361  0.554532841728153  1.0000
  H   H21       1.0  0.8471798377088146  0.5622343415173279  0.6228207542094821  1.0000
  Zn  Zn1       1.0  0.9730340669641719  0.4067331259062659  0.4089002066319209  1.0000
  Zn  Zn2       1.0  0.16925647855702008  0.40655051027106187  0.4087736488461988  1.0000
  C   C26       1.0  0.07181441390312115  0.4037934262965308  0.6720762085167247  1.0000
  C   C27       1.0  0.07047827470341311  0.4094918482070957  0.14559778618942826  1.0000
  C   C28       1.0  0.07112814118529776  0.6438487382605027  0.40297078085622706  1.0000
  C   C29       1.0  0.07116448067376435  0.1694349762527985  0.4147032915433132  1.0000
  O   O2        1.0  0.14507817581741933  0.4116285983736256  0.19924692077948047  1.0000
  O   O3        1.0  0.14614278186892976  0.4015170914296913  0.6183306051144999  1.0000
  O   O4        1.0  0.14558760793740033  0.5953648059330531  0.40102606825952725  1.0000
  O   O5        1.0  0.14563328251770308  0.2177808922703109  0.416551349607597  1.0000
  O   O6        1.0  0.996657196042391  0.5955027439706817  0.4011225059061285  1.0000
  O   O7        1.0  0.9972123697602944  0.4016565895213107  0.6184269651033202  1.0000
  O   O8        1.0  0.9961477593793586  0.4117680358826463  0.1993415479683185  1.0000
  O   O9        1.0  0.9967028663497902  0.21792032144294993  0.41664608485889754  1.0000
