data_image0
_chemical_formula_structural       NC6NC2H4C9H4C9H6Zn2C4O8
_chemical_formula_sum              "N2 C30 H14 Zn2 O8"
_cell_length_a       14.927258858638513
_cell_length_b       9.275152443626249
_cell_length_c       9.275155815604961
_cell_angle_alpha    85.85171904572837
_cell_angle_beta     90.35750032956715
_cell_angle_gamma    90.5735452640029

_space_group_name_H-M_alt    "P 1"
_space_group_IT_number       1

loop_
  _space_group_symop_operation_xyz
  'x, y, z'

loop_
  _atom_site_type_symbol
  _atom_site_label
  _atom_site_symmetry_multiplicity
  _atom_site_fract_x
  _atom_site_fract_y
  _atom_site_fract_z
  _atom_site_occupancy
  N   N1        1.0  0.8471185403234697  0.5650500745361806  0.40485034779383783  1.0000
  C   C1        1.0  0.7695920490204092  0.5650500461085548  0.40485035847825346  1.0000
  C   C2        1.0  0.673159541994777  0.5650501608142653  0.40485030823354196  1.0000
  C   C3        1.0  0.6254622590657589  0.5402605446389876  0.27827719981110577  1.0000
  C   C4        1.0  0.531750947356942  0.5402605691335354  0.27827706629735016  1.0000
  C   C5        1.0  0.4853434769739698  0.5650499833676681  0.40485032747041094  1.0000
  C   C6        1.0  0.38891090295679637  0.5650500980762923  0.4048502772197659  1.0000
  N   N2        1.0  0.3113844116537358  0.5650500696486664  0.40485028790418176  1.0000
  C   C7        1.0  0.5330406929114467  0.5898395995458596  0.5314234358869141  1.0000
  C   C8        1.0  0.6267520046202635  0.5898395750513121  0.5314235694006694  1.0000
  H   H1        1.0  0.6606566803413768  0.5209728244903967  0.17979605699593781  1.0000
  H   H2        1.0  0.4955530260372919  0.5209730220489315  0.17979605138083699  1.0000
  H   H3        1.0  0.49784633898434  0.6091273103045975  0.6299046867962452  1.0000
  H   H4        1.0  0.6629499269743365  0.6091272204437588  0.6299046939835187  1.0000
  C   C9        1.0  0.07661887302437377  0.14143044604022115  0.40632170942385204  1.0000
  C   C10       1.0  0.04382074649352832  0.22311494444895907  0.2838825062365864  1.0000
  C   C11       1.0  0.01934083135268128  0.15659894619962467  0.1591509349815643  1.0000
  C   C12       1.0  0.02727265241624633  0.007215978369986778  0.15438891860747406  1.0000
  C   C13       1.0  0.05831491055354521  0.9238344179248085  0.27579335202406474  1.0000
  C   C14       1.0  0.08189265418424932  0.9886587177921656  0.4033914134696836  1.0000
  C   C15       1.0  0.002493885062537998  0.9389535992260305  0.02522153196097742  1.0000
  C   C16       1.0  0.9817474185732172  0.8817663906426499  0.917064097654535  1.0000
  C   C17       1.0  0.9565756728573221  0.8123678270747593  0.7858340197990517  1.0000
  H   H5        1.0  0.20647499154558058  0.22556174943181873  0.694151300271022  1.0000
  H   H6        1.0  0.9950222623101223  0.2220345102698566  0.0658098476525959  1.0000
  H   H7        1.0  0.1664612165886437  0.6950554564132152  0.6002571903239216  1.0000
  H   H8        1.0  0.9940408090204581  0.8639126103097321  0.6925455536537135  1.0000
  C   C18       1.0  0.07759167521398608  0.5613982371981912  0.9816379563335662  1.0000
  C   C19       1.0  0.007948377201867807  0.6316890309690921  0.0492097215791436  1.0000
  C   C20       1.0  0.9443651274337413  0.7115671285305675  0.9676486869823142  1.0000
  C   C21       1.0  0.9492472150857895  0.7228270922674771  0.8170279448807514  1.0000
  C   C22       1.0  0.017082947544116323  0.6517612370526515  0.7477504956558443  1.0000
  C   C23       1.0  0.08091982631414735  0.5686908482949941  0.8280751590412496  1.0000
  C   C24       1.0  0.8838741030370273  0.8060754212562395  0.7331426355951138  1.0000
  C   C25       1.0  0.8291359210968897  0.8757845281219895  0.662873495039034  1.0000
  C   C26       1.0  0.7627209848928347  0.960364742838386  0.5776022975566226  1.0000
  H   H9        1.0  0.28480042883444645  0.4450100977461553  0.09499833358766607  1.0000
  H   H10       1.0  0.8918375389864361  0.7657872990556349  0.022274192836405186  1.0000
  H   H11       1.0  0.21914099989663904  0.4851509971787693  0.5547816957366186  1.0000
  H   H12       1.0  0.7809509785461625  0.9645094897774192  0.46158897300145796  1.0000
  H   H13       1.0  0.6956807475685283  0.9089953051528298  0.5928062525391131  1.0000
  H   H14       1.0  0.7611471725869772  0.07175395300175985  0.6137217687281065  1.0000
  Zn  Zn1       1.0  0.981095658756777  0.565046279420087  0.40485867146546806  1.0000
  Zn  Zn2       1.0  0.17740727703598716  0.565042150556152  0.40485382741705367  1.0000
  C   C27       1.0  0.0802529770988019  0.5615655689159484  0.6681003147816642  1.0000
  C   C28       1.0  0.07825211429692658  0.5685246823913912  0.14161231920673134  1.0000
  C   C29       1.0  0.08086859888290635  0.828465031466333  0.3982022593738044  1.0000
  C   C30       1.0  0.0776364150390157  0.30162348734047145  0.41151045744720527  1.0000
  O   O1        1.0  0.15297296056174003  0.5709085221844025  0.19529936024642325  1.0000
  O   O2        1.0  0.15452809836085227  0.5591775035732487  0.6144091861150067  1.0000
  O   O3        1.0  0.15502422234410052  0.7747022079194017  0.39646459163660314  1.0000
  O   O4        1.0  0.15247676922998027  0.3553838272281026  0.41324384663066227  1.0000
  O   O5        1.0  0.0060260995712424475  0.7747046027510507  0.39646865224592565  1.0000
  O   O6        1.0  0.005529986070259787  0.5591816309083466  0.6144131638857825  1.0000
  O   O7        1.0  0.0039748412047164745  0.5709125843209626  0.19530160544929265  1.0000
  O   O8        1.0  0.0034786502299268855  0.3553878799777234  0.41324619992176315  1.0000
