data_image0
_chemical_formula_structural       NC6NC3H6C7NH5C7F3H5Zn2C4O8
_chemical_formula_sum              "N3 C27 H16 F3 Zn2 O8"
_cell_length_a       14.934028789175542
_cell_length_b       9.275154477615127
_cell_length_c       9.272721663655245
_cell_angle_alpha    86.10781498077147
_cell_angle_beta     90.49150437083568
_cell_angle_gamma    89.3962875590186

_space_group_name_H-M_alt    "P 1"
_space_group_IT_number       1

loop_
  _space_group_symop_operation_xyz
  'x, y, z'

loop_
  _atom_site_type_symbol
  _atom_site_label
  _atom_site_symmetry_multiplicity
  _atom_site_fract_x
  _atom_site_fract_y
  _atom_site_fract_z
  _atom_site_occupancy
  N   N1        1.0  0.8246943300993267  0.5683060387334036  0.4151587964359975  1.0000
  C   C1        1.0  0.7472111974019262  0.5672043766831583  0.4144753650634334  1.0000
  C   C2        1.0  0.6508182894923454  0.5658288448929591  0.41362222688349215  1.0000
  C   C3        1.0  0.6027724889898967  0.6729555893499353  0.47995815605391995  1.0000
  C   C4        1.0  0.5092636832052447  0.6718511388826904  0.4792741195308014  1.0000
  C   C5        1.0  0.46288798544894244  0.5636746148054832  0.41228820749772077  1.0000
  C   C6        1.0  0.3662360884786391  0.5659956585047199  0.4137267528658177  1.0000
  N   N2        1.0  0.28875110650136915  0.5678377011199305  0.41486874844171595  1.0000
  C   C7        1.0  0.5109321306703452  0.45506579221004073  0.3450339801531255  1.0000
  C   C8        1.0  0.46292684729606975  0.3374554310385247  0.2722076008888705  1.0000
  C   C9        1.0  0.6050690244556594  0.4572972282883018  0.3464158011153602  1.0000
  H   H1        1.0  0.6375936031241397  0.7573615301844853  0.532225304535149  1.0000
  H   H2        1.0  0.47300657003644536  0.7556070307749034  0.5311385954392169  1.0000
  H   H3        1.0  0.4193842826303466  0.38602609340820315  0.18376478045160116  1.0000
  H   H4        1.0  0.42101205481706555  0.27506528042848144  0.3520996490678039  1.0000
  H   H5        1.0  0.5105870598608023  0.2612774657914078  0.22502959880488407  1.0000
  H   H6        1.0  0.6428162532779331  0.37465554100313225  0.29524156275507485  1.0000
  C   C10       1.0  0.05930891799481139  0.14467073894959892  0.4133435028505099  1.0000
  C   C11       1.0  0.03402328907682994  0.22717320811682493  0.2862194969696137  1.0000
  C   C12       1.0  0.001491723639801769  0.16050267378188665  0.1658348055615504  1.0000
  C   C13       1.0  0.9937132794232569  0.010419361472802528  0.17115642262672282  1.0000
  C   C14       1.0  0.019812705830753775  0.9266923913228295  0.2953818690954262  1.0000
  C   C15       1.0  0.05414526435832068  0.991461967694965  0.41669648881783283  1.0000
  C   C16       1.0  0.9750062775719591  0.2465797036285482  0.03717918337632575  1.0000
  N   N3        1.0  0.9537193103406206  0.3157699042037325  0.9337730176386247  1.0000
  H   H7        1.0  0.07863951786012668  0.2232770211733064  0.7672867018936138  1.0000
  H   H8        1.0  0.03765638148719219  0.34410531318833515  0.28193867254999705  1.0000
  H   H9        1.0  0.9682336038099119  0.9578074515308269  0.0786335247514034  1.0000
  H   H10       1.0  0.015109998920208588  0.8102288406998993  0.2952579059070213  1.0000
  H   H11       1.0  0.07095442942120939  0.6939844850723881  0.6538460890506252  1.0000
  C   C17       1.0  0.05437215522397862  0.5657301912432466  0.9915689700466959  1.0000
  C   C18       1.0  0.09320125919587324  0.4477591454178429  0.07380052265997539  1.0000
  C   C19       1.0  0.13982631646706165  0.33835643422341155  0.007433784767269413  1.0000
  C   C20       1.0  0.1448905815036382  0.3449907120362872  0.8563070645483299  1.0000
  C   C21       1.0  0.10554909795343614  0.45996039887765594  0.7730956554099029  1.0000
  C   C22       1.0  0.05908204288315952  0.5704025134395387  0.8384709556623684  1.0000
  C   C23       1.0  0.17892541768903442  0.21084970841631723  0.09725246529791964  1.0000
  F   F1        1.0  0.20882546567604143  0.2527240009924163  0.22963249134073613  1.0000
  F   F2        1.0  0.25066563881354664  0.1511399104289577  0.027851793846275674  1.0000
  F   F3        1.0  0.11381855112837863  0.1071336606363733  0.11991832913399669  1.0000
  H   H12       1.0  0.9955188940946755  0.9091256127793156  0.06918331782563247  1.0000
  H   H13       1.0  0.08876140517894558  0.4426413080615235  0.19062866849334514  1.0000
  H   H14       1.0  0.17850365898606035  0.26025979477803207  0.8020431498851885  1.0000
  H   H15       1.0  0.10938332736237522  0.46041766215904073  0.6564404654776874  1.0000
  H   H16       1.0  0.8969093983145308  0.8137499956161274  0.7182434620392071  1.0000
  Zn  Zn1       1.0  0.958611174938571  0.5681670688729279  0.41508340031241797  1.0000
  Zn  Zn2       1.0  0.15483442931140742  0.5679649254184334  0.4149558871248522  1.0000
  C   C24       1.0  0.05822478319437406  0.5637754377620023  0.6783656214434464  1.0000
  C   C25       1.0  0.05522295350110415  0.5723583743213336  0.15167381333645036  1.0000
  C   C26       1.0  0.05508473528847025  0.8313686840117609  0.4103164452335324  1.0000
  C   C27       1.0  0.05836294544050167  0.30476339629477395  0.4197230596095598  1.0000
  O   O1        1.0  0.1299742299404556  0.5744998505380687  0.2053580458236275  1.0000
  O   O2        1.0  0.13240242085119136  0.5614794493487903  0.6245841899924995  1.0000
  O   O3        1.0  0.12986579696109246  0.7775643891800998  0.40813259029908533  1.0000
  O   O4        1.0  0.1325107862086711  0.35841492049338525  0.42180953748193395  1.0000
  O   O5        1.0  0.9809347510798888  0.7777170738684851  0.4082297499912715  1.0000
  O   O6        1.0  0.983471363975076  0.5616338658844864  0.6246812796574255  1.0000
  O   O7        1.0  0.9810431637887076  0.5746542072652265  0.20545340159638692  1.0000
  O   O8        1.0  0.9835797207173882  0.35856926750442675  0.4219050013257366  1.0000
