data_image0
_chemical_formula_structural       NC8NC6H8C6NO2H5C6OCH7Zn2C4O8
_chemical_formula_sum              "N3 C31 H20 O11 Zn2"
_cell_length_a       17.457602349358154
_cell_length_b       9.273392599741051
_cell_length_c       9.273891588657152
_cell_angle_alpha    86.1963526091537
_cell_angle_beta     92.54290593679646
_cell_angle_gamma    91.0881455882028

_space_group_name_H-M_alt    "P 1"
_space_group_IT_number       1

loop_
  _space_group_symop_operation_xyz
  'x, y, z'

loop_
  _atom_site_type_symbol
  _atom_site_label
  _atom_site_symmetry_multiplicity
  _atom_site_fract_x
  _atom_site_fract_y
  _atom_site_fract_z
  _atom_site_occupancy
  N   N1        1.0  0.7181098694060126  0.5994961133033934  0.47863441641755466  1.0000
  C   C1        1.0  0.657349307108692  0.548402594890868  0.4667708515382005  1.0000
  C   C2        1.0  0.5817605175540651  0.48484869641210443  0.4520231751079829  1.0000
  C   C3        1.0  0.5227345925342753  0.5301764599441052  0.535203606238369  1.0000
  C   C4        1.0  0.44856882930159075  0.4689804369060122  0.5211416015580046  1.0000
  C   C5        1.0  0.385923433605476  0.5168422288115008  0.6092325979841564  1.0000
  C   C6        1.0  0.3114502021303066  0.5367977864822082  0.5473911517281289  1.0000
  C   C7        1.0  0.2524250413559897  0.5819224079441763  0.6306910308719287  1.0000
  C   C8        1.0  0.17651735677266361  0.6025288016212591  0.5663924149467017  1.0000
  N   N2        1.0  0.11550053351762081  0.6190892604973639  0.5146964836318251  1.0000
  C   C9        1.0  0.26737775421537213  0.6073664303223281  0.7763970553629196  1.0000
  C   C10       1.0  0.34106259655509624  0.5878465665862396  0.8386692958839292  1.0000
  C   C11       1.0  0.4000735145273533  0.5429263602396841  0.7558776362805433  1.0000
  C   C12       1.0  0.43472659296793115  0.36169042598970513  0.4223079499317964  1.0000
  C   C13       1.0  0.49373775005764103  0.31667600936364915  0.3395718753756185  1.0000
  C   C14       1.0  0.5671162161643881  0.37800221479942353  0.35424431233369186  1.0000
  H   H1        1.0  0.5343940497133233  0.6143179967413621  0.609275310658486  1.0000
  H   H2        1.0  0.2995387637339862  0.5191720913446405  0.434156996217564  1.0000
  H   H3        1.0  0.22213022052514322  0.6422338035474255  0.8417381801760148  1.0000
  H   H4        1.0  0.352452015577191  0.6071979951171507  0.9514921404960857  1.0000
  H   H5        1.0  0.45649670602261083  0.5267356170731611  0.8070099664473932  1.0000
  H   H6        1.0  0.3785558112027095  0.31125123735278093  0.41040539236372586  1.0000
  H   H7        1.0  0.48258926498816374  0.23376223455718326  0.2641725601362459  1.0000
  H   H8        1.0  0.6123674187494161  0.3421742837517696  0.2894687364015964  1.0000
  C   C15       1.0  0.9191490977766827  0.1858713878939391  0.4959717557348282  1.0000
  C   C16       1.0  0.9097816211669039  0.26755580769308707  0.36345289996558305  1.0000
  C   C17       1.0  0.8936327950173727  0.20050727099558127  0.23509633733376445  1.0000
  C   C18       1.0  0.8863148530343129  0.04974171100466963  0.23567047212194184  1.0000
  C   C19       1.0  0.8968814563948119  0.9669388836919346  0.3672930200837089  1.0000
  C   C20       1.0  0.9144686588715472  0.03270329639466118  0.4973722221143336  1.0000
  N   N3        1.0  0.868985596977407  0.9811790256583743  0.10298028759461711  1.0000
  O   O1        1.0  0.8593104308713276  0.06263374930077847  0.9741366544802159  1.0000
  O   O2        1.0  0.8622324815368136  0.8469149138920793  0.10259757366120308  1.0000
  H   H9        1.0  0.9024660779935001  0.2647538026734766  0.848224088664595  1.0000
  H   H10       1.0  0.9131465883369607  0.3845252728195927  0.3594996718482999  1.0000
  H   H11       1.0  0.8860967133815185  0.2671499338260688  0.13534666483956675  1.0000
  H   H12       1.0  0.893174655562417  0.8501633254865834  0.3679826587019679  1.0000
  H   H13       1.0  0.9058457849175048  0.7363725919811616  0.735679368222206  1.0000
  C   C21       1.0  0.9180861643715199  0.6055305478380384  0.07350435164871329  1.0000
  C   C22       1.0  0.9805453126128174  0.669528761308571  0.147877309066494  1.0000
  C   C23       1.0  0.03859546109388013  0.7440794218314877  0.07348992289899559  1.0000
  C   C24       1.0  0.03439346168297863  0.7550034756193467  0.9216919758969829  1.0000
  C   C25       1.0  0.9735501091326739  0.6902116267977729  0.8461215677002731  1.0000
  C   C26       1.0  0.9155315732546712  0.6130441164689644  0.919839631907928  1.0000
  O   O3        1.0  0.0989703255388028  0.8061990914668995  0.15430281879141466  1.0000
  C   C27       1.0  0.16169491290634097  0.8851962069715197  0.09308208383120187  1.0000
  H   H14       1.0  0.7361862989699212  0.5079779665192312  0.1678238138723176  1.0000
  H   H15       1.0  0.07826080620848155  0.81224113154617  0.8608693513832599  1.0000
  H   H16       1.0  0.9728903202366243  0.6976124198768685  0.7289965347425258  1.0000
  H   H17       1.0  0.7942632225126021  0.5417075894821748  0.6332513934330941  1.0000
  H   H18       1.0  0.1405724110506454  0.981755266736597  0.026980005893175063  1.0000
  H   H19       1.0  0.19406276798065705  0.8152118136416497  0.02545246765845311  1.0000
  H   H20       1.0  0.20075618942090923  0.9215963877123368  0.18154461352933063  1.0000
  Zn  Zn1       1.0  0.8327882272475241  0.6051464794832561  0.4890494639517673  1.0000
  Zn  Zn2       1.0  0.0008221911553587502  0.613427177128606  0.5042932144185366  1.0000
  C   C28       1.0  0.9160444955949292  0.6058796829405064  0.7598545063863638  1.0000
  C   C29       1.0  0.917567747251395  0.6126958846580437  0.23348848289101198  1.0000
  C   C30       1.0  0.9153667455923408  0.8725828924609961  0.49136479059714105  1.0000
  C   C31       1.0  0.9182454492585594  0.34599094064074176  0.5019782674409421  1.0000
  O   O4        1.0  0.9811618100842797  0.6182368282636121  0.2929655322644247  1.0000
  O   O5        1.0  0.9799843305909386  0.6066225058086969  0.7119466942816668  1.0000
  O   O6        1.0  0.9794361747464873  0.8219886913591827  0.49513927366739563  1.0000
  O   O7        1.0  0.9817099088592414  0.40287064924289284  0.5097728396469835  1.0000
  O   O8        1.0  0.8519004522019105  0.8157030045446763  0.4835698335137993  1.0000
  O   O9        1.0  0.8524485987000548  0.6003385506667092  0.700377180157843  1.0000
  O   O10       1.0  0.8536260837515751  0.6119528074967733  0.2813942855290429  1.0000
  O   O11       1.0  0.8541741822542952  0.39658661912199356  0.49820170093379385  1.0000
