data_image0
_chemical_formula_structural       NC6NC3H6C6BrH3C6ClH3Zn2C4O8
_chemical_formula_sum              "N2 C25 H12 Br1 Cl1 Zn2 O8"
_cell_length_a       14.934028789175542
_cell_length_b       9.276564384272257
_cell_length_c       10.302974078461048
_cell_angle_alpha    85.51203645114332
_cell_angle_beta     89.97499619632823
_cell_angle_gamma    90.54840447220178

_space_group_name_H-M_alt    "P 1"
_space_group_IT_number       1

loop_
  _space_group_symop_operation_xyz
  'x, y, z'

loop_
  _atom_site_type_symbol
  _atom_site_label
  _atom_site_symmetry_multiplicity
  _atom_site_fract_x
  _atom_site_fract_y
  _atom_site_fract_z
  _atom_site_occupancy
  N   N1        1.0  0.8532085206786492  0.5773712064614158  0.5662882595431573  1.0000
  C   C1        1.0  0.775715473962748  0.5762730909772038  0.5656777150467724  1.0000
  C   C2        1.0  0.679310186359143  0.5749019863582643  0.564915564049594  1.0000
  C   C3        1.0  0.6322291199956074  0.6816845303096826  0.6241760203357021  1.0000
  C   C4        1.0  0.538710368766864  0.6805836291790686  0.6235649430941832  1.0000
  C   C5        1.0  0.4913604826424622  0.5727546781822996  0.5637238324221141  1.0000
  C   C6        1.0  0.3947294806654591  0.5750682572057211  0.5650089497816237  1.0000
  N   N2        1.0  0.31726107967305994  0.576904373847447  0.5660291481490414  1.0000
  C   C7        1.0  0.5384265499262807  0.46449482109361845  0.5036430209128859  1.0000
  C   C8        1.0  0.4893621144472234  0.3472623373165944  0.4385844031658497  1.0000
  C   C9        1.0  0.6325835387034716  0.46671908723213607  0.5048774554950611  1.0000
  H   H1        1.0  0.6678103518638704  0.7658192698210005  0.670868293733454  1.0000
  H   H2        1.0  0.5032075201000324  0.7640704091624264  0.6698974924701375  1.0000
  H   H3        1.0  0.4469242443561139  0.39633094213659725  0.35874445158807816  1.0000
  H   H4        1.0  0.4462181380142899  0.2844186098801229  0.5107856651005922  1.0000
  H   H5        1.0  0.5363363395762036  0.2713291690147541  0.3964384204704447  1.0000
  H   H6        1.0  0.6695865354027855  0.38434293029060584  0.4591615241047162  1.0000
  C   C10       1.0  0.08254130432091422  0.15365952504316183  0.5664921885422323  1.0000
  C   C11       1.0  0.071066341600654  0.23717036705750338  0.4478408727496035  1.0000
  C   C12       1.0  0.0679247210580793  0.17218466777940455  0.33029322594936983  1.0000
  C   C13       1.0  0.07623816850037747  0.022769143740174247  0.3291648854089293  1.0000
  C   C14       1.0  0.08613567087268637  0.9375665597783182  0.44602277692664183  1.0000
  C   C15       1.0  0.08793683276657899  0.0006048995592060631  0.5658363906399697  1.0000
  Br  Br1       1.0  0.07259869117476046  0.9344150435206551  0.16786860110275478  1.0000
  H   H7        1.0  0.059878220819824496  0.23841300267882917  0.23986599875490278  1.0000
  H   H8        1.0  0.0902787007396304  0.8213224095790443  0.4432214271211825  1.0000
  H   H9        1.0  0.13733282649318745  0.7026225281877495  0.7680097548557581  1.0000
  C   C16       1.0  0.08523907462372479  0.5771322463037476  0.1849218180847316  1.0000
  C   C17       1.0  0.06870918328280551  0.427368886176992  0.19428015209694283  1.0000
  C   C18       1.0  0.06050754793711596  0.3530603859429231  0.08196671097196884  1.0000
  C   C19       1.0  0.0687092238493554  0.42736896757920156  0.9591722530404166  1.0000
  C   C20       1.0  0.0852390718655045  0.577132171867208  0.9474068372170619  1.0000
  C   C21       1.0  0.09342345795222012  0.6512838496462245  0.06093489142336782  1.0000
  Cl  Cl1       1.0  0.039857789629804  0.16597037054616526  0.09516103612517912  1.0000
  H   H10       1.0  0.06213487166928397  0.3678045005629673  0.288527409778512  1.0000
  H   H11       1.0  0.06213493410973103  0.36780447992266674  0.8733264436855975  1.0000
  H   H12       1.0  0.10617176612451096  0.7667858481142038  0.052789138338465325  1.0000
  Zn  Zn1       1.0  0.9871240540125447  0.5772326243022723  0.5662209799524727  1.0000
  Zn  Zn2       1.0  0.18334550115039117  0.5770311432524975  0.566107051080834  1.0000
  C   C22       1.0  0.0852004640844734  0.5713872788902822  0.8032852642039842  1.0000
  C   C23       1.0  0.08527124540212955  0.5828783060141416  0.3290428916006182  1.0000
  C   C24       1.0  0.08691235094630834  0.8405142228415641  0.5607869320161798  1.0000
  C   C25       1.0  0.08355928054607341  0.3137496295462545  0.5715412943844445  1.0000
  O   O1        1.0  0.15974701870202934  0.5847239838041018  0.3773680098928891  1.0000
  O   O2        1.0  0.15965222197643905  0.5693875937457209  0.7548733036544826  1.0000
  O   O3        1.0  0.1610335884430647  0.7867110055917834  0.559054184118774  1.0000
  O   O4        1.0  0.15836558534403644  0.3674005823428108  0.5731870321170978  1.0000
  O   O5        1.0  0.012103902858159985  0.7868631852822849  0.5591409989482569  1.0000
  O   O6        1.0  0.010722547425016108  0.5695415060231541  0.754960047919992  1.0000
  O   O7        1.0  0.010817343890053396  0.5848778458285957  0.3774531933141818  1.0000
  O   O8        1.0  0.009435910462687764  0.36755443405285915  0.5732723128819392  1.0000
