data_image0
_chemical_formula_structural       NC9NC3NH7C6NO2H5C8NH7Zn2C4O8
_chemical_formula_sum              "N5 C30 H19 O10 Zn2"
_cell_length_a       16.053384444249904
_cell_length_b       9.273392599741053
_cell_length_c       9.274266800404105
_cell_angle_alpha    86.1050913810774
_cell_angle_beta     89.35588104550887
_cell_angle_gamma    88.5803697124526

_space_group_name_H-M_alt    "P 1"
_space_group_IT_number       1

loop_
  _space_group_symop_operation_xyz
  'x, y, z'

loop_
  _atom_site_type_symbol
  _atom_site_label
  _atom_site_symmetry_multiplicity
  _atom_site_fract_x
  _atom_site_fract_y
  _atom_site_fract_z
  _atom_site_occupancy
  N   N1        1.0  0.7823705757209583  0.5473513086637274  0.4100322528788668  1.0000
  C   C1        1.0  0.732138014684288  0.5236059265241644  0.32690199174458556  1.0000
  C   C2        1.0  0.6697124579464252  0.49410219950888434  0.22363392881381627  1.0000
  C   C3        1.0  0.684080316500879  0.4795888059782576  0.07849282731138539  1.0000
  C   C4        1.0  0.6078929919788479  0.45101831239855467  0.020430699772537638  1.0000
  C   C5        1.0  0.550289605575166  0.44969042355894495  0.1332799353528282  1.0000
  C   C6        1.0  0.4598487004664689  0.42314532632689805  0.12184840903288129  1.0000
  C   C7        1.0  0.4031863899471346  0.4713764290488322  0.22618724639030938  1.0000
  C   C8        1.0  0.3178389625234255  0.4462000694994441  0.2152385472775329  1.0000
  C   C9        1.0  0.2603727791398938  0.49638915756042756  0.32221439469327845  1.0000
  N   N2        1.0  0.2141867497750966  0.5367340942669308  0.40820622485003777  1.0000
  C   C10       1.0  0.2884284929813737  0.37266833886938144  0.09996595740451353  1.0000
  C   C11       1.0  0.3440803683525169  0.32457187287192313  0.9958623591838762  1.0000
  C   C12       1.0  0.4292249687331951  0.34956082451972437  0.00637045552875248  1.0000
  N   N3        1.0  0.5887531602093521  0.47614343974366724  0.25715991653881054  1.0000
  H   H1        1.0  0.7430216667037136  0.4887463290000364  0.02122078371732328  1.0000
  H   H2        1.0  0.5962430862047974  0.43486981740147607  0.9080942052477519  1.0000
  H   H3        1.0  0.424745004631939  0.5303140897710737  0.3148894047921119  1.0000
  H   H4        1.0  0.222569374103534  0.35264143575623064  0.09056241972428358  1.0000
  H   H5        1.0  0.32122165716207657  0.2674557922073779  0.9069046081104738  1.0000
  H   H6        1.0  0.4709561705313519  0.3095766022455262  0.9249806047283031  1.0000
  H   H7        1.0  0.5620979953685399  0.4795526355828416  0.3601269607815391  1.0000
  C   C13       1.0  0.0008267761009170793  0.11844465048788733  0.4082019838285975  1.0000
  C   C14       1.0  0.9908180764937528  0.20104428832040866  0.2765649608405844  1.0000
  C   C15       1.0  0.9734343883622939  0.13541912979483928  0.14973718948289091  1.0000
  C   C16       1.0  0.9654809001496943  0.9852079818793713  0.15100913937380817  1.0000
  C   C17       1.0  0.976793905298502  0.9014003272716197  0.28163544098708576  1.0000
  C   C18       1.0  0.9957385157848535  0.9656295583960759  0.4100488501571246  1.0000
  N   N4        1.0  0.9468199884176925  0.9181649319108782  0.019959928761470458  1.0000
  O   O1        1.0  0.9364721557066956  0.000552552880776836  0.8920277815778657  1.0000
  O   O2        1.0  0.939481560685941  0.7844138480935233  0.020221091711904112  1.0000
  H   H8        1.0  0.9822410433748094  0.19804968334649728  0.7620752294799845  1.0000
  H   H9        1.0  0.9944800540492177  0.31776451162898045  0.272290544267789  1.0000
  H   H10       1.0  0.9653735740047439  0.20278749786708294  0.05069753440097701  1.0000
  H   H11       1.0  0.972764661698379  0.7849049835824082  0.28267858223150366  1.0000
  H   H12       1.0  0.9860594671676358  0.6695856048790023  0.6491986093315838  1.0000
  C   C19       1.0  0.00021796177374700087  0.538836085211712  0.9857997268581986  1.0000
  C   C20       1.0  0.9524184205713621  0.43676381155383703  0.06692884726307735  1.0000
  C   C21       1.0  0.899509539346448  0.34603408339374586  0.9990572424302648  1.0000
  C   C22       1.0  0.8926267071571721  0.3560062163021423  0.8484096105087069  1.0000
  C   C23       1.0  0.941590818913433  0.45460174513102647  0.7659618837272593  1.0000
  C   C24       1.0  0.9963473035351929  0.5452381549497844  0.8324511009595661  1.0000
  C   C25       1.0  0.8364795589164596  0.25665125233385844  0.7753481643963762  1.0000
  C   C26       1.0  0.882391474225064  0.12366578934542029  0.7436547801995038  1.0000
  N   N5        1.0  0.9186326914853331  0.018709408294704365  0.7186385448928025  1.0000
  H   H13       1.0  0.09009776595584174  0.8540521207240335  0.06553896938523085  1.0000
  H   H14       1.0  0.9545905824669296  0.42924077925866455  0.18391758801944785  1.0000
  H   H15       1.0  0.8632085683344674  0.2687373187851687  0.06428623058394621  1.0000
  H   H16       1.0  0.9383261964368027  0.4579728384869492  0.649091784766806  1.0000
  H   H17       1.0  0.05990478044429071  0.7545869835309011  0.5362968509870466  1.0000
  H   H18       1.0  0.8123960003089854  0.3100536621253873  0.6727947751235965  1.0000
  H   H19       1.0  0.7820101252004791  0.2283566171668694  0.8456762098090862  1.0000
  Zn  Zn1       1.0  0.9069833786226486  0.5442836257799977  0.4095136094196998  1.0000
  Zn  Zn2       1.0  0.08957394013321651  0.5397901142698346  0.4087366246776323  1.0000
  C   C27       1.0  0.9971116147013526  0.5382815127292591  0.6724033719494747  1.0000
  C   C28       1.0  0.9994476863594601  0.5457939993859082  0.1458469991208579  1.0000
  C   C29       1.0  0.9967222767935955  0.8054502720640155  0.4039552712441442  1.0000
  C   C30       1.0  0.9998369720194525  0.27862350909025446  0.4142951731691524  1.0000
  O   O3        1.0  0.0684813792053669  0.5464175816333752  0.19926545036253634  1.0000
  O   O4        1.0  0.06665994161696887  0.5342463678729812  0.6183947899192481  1.0000
  O   O5        1.0  0.06634460538833542  0.7499885541681697  0.40162105652957786  1.0000
  O   O6        1.0  0.06879665356037723  0.3306754063731303  0.416039075952368  1.0000
  O   O7        1.0  0.9277606028863156  0.7533983352116297  0.40221115840253224  1.0000
  O   O8        1.0  0.928075929053542  0.5376578814122661  0.6189848187068065  1.0000
  O   O9        1.0  0.9298973749228409  0.5498290317984407  0.19985374586008775  1.0000
  O   O10       1.0  0.9302126488423023  0.3340868470381797  0.41662747950732637  1.0000
