data_image0
_chemical_formula_structural       NC4NC6H6C6NH7C6H6Zn2C4O8
_chemical_formula_sum              "N3 C26 H19 Zn2 O8"
_cell_length_a       11.002025771509814
_cell_length_b       9.274771166103582
_cell_length_c       10.681121600428286
_cell_angle_alpha    85.45578074471726
_cell_angle_beta     90.00980682368926
_cell_angle_gamma    90.54760006603236

_space_group_name_H-M_alt    "P 1"
_space_group_IT_number       1

loop_
  _space_group_symop_operation_xyz
  'x, y, z'

loop_
  _atom_site_type_symbol
  _atom_site_label
  _atom_site_symmetry_multiplicity
  _atom_site_fract_x
  _atom_site_fract_y
  _atom_site_fract_z
  _atom_site_occupancy
  N   N1        1.0  0.15839212908743305  0.5774475761394362  0.6164460349773333  1.0000
  C   C1        1.0  0.1044335255434774  0.6719030764583226  0.6532848107549019  1.0000
  C   C2        1.0  0.03695538471936865  0.7901994427425078  0.6994134153982801  1.0000
  C   C3        1.0  0.914677455809896  0.7874623551876012  0.6997881111409221  1.0000
  C   C4        1.0  0.844551680648213  0.6705164236077001  0.6536129458578603  1.0000
  N   N2        1.0  0.788290311096764  0.5767882042734698  0.616603954933268  1.0000
  C   C5        1.0  0.1055639451961523  0.9132139160448096  0.7476771239623179  1.0000
  C   C6        1.0  0.21550979004734352  0.8885713208275747  0.8131638014619997  1.0000
  C   C7        1.0  0.280782235935205  0.003761042963504661  0.85819005454087  1.0000
  C   C8        1.0  0.2376344822824528  0.14477393204143316  0.8380169350723914  1.0000
  C   C9        1.0  0.12922336099861864  0.17098632475828127  0.7725148615446062  1.0000
  C   C10       1.0  0.06348295195331866  0.05624428622107924  0.7273248366309644  1.0000
  H   H1        1.0  0.8643185453607405  0.8737262485315199  0.7377392061444772  1.0000
  H   H2        1.0  0.25037151933198665  0.7800526974692862  0.8306794325457129  1.0000
  H   H3        1.0  0.3648917455076693  0.9835926598377751  0.9088830274809856  1.0000
  H   H4        1.0  0.2883699843808607  0.23378421864391805  0.872866741771112  1.0000
  H   H5        1.0  0.09627992269081465  0.2804631697306488  0.7562484907755622  1.0000
  H   H6        1.0  0.9808820113236009  0.07983276819435492  0.6748784932527501  1.0000
  C   C11       1.0  0.469615505317299  0.15352523509960392  0.6172066410248519  1.0000
  C   C12       1.0  0.4416467542100717  0.23686325641976638  0.5052118155615806  1.0000
  C   C13       1.0  0.4250261167365996  0.17183126134939064  0.39250932084524104  1.0000
  C   C14       1.0  0.4364379506360954  0.022083705196536577  0.3909853830474981  1.0000
  C   C15       1.0  0.4621591450728997  0.937428608421973  0.5014412599279683  1.0000
  C   C16       1.0  0.47707849565856475  0.0006994615246831359  0.615854216925496  1.0000
  N   N3        1.0  0.39780412566473733  0.2582679988545624  0.279283871623045  1.0000
  H   H7        1.0  0.6064030547678365  0.2330423806577948  0.891309566462886  1.0000
  H   H8        1.0  0.4355183496599946  0.353462379677554  0.504729236777578  1.0000
  H   H9        1.0  0.42422530984643636  0.9706092606602146  0.30427232816046584  1.0000
  H   H10       1.0  0.46751560053992414  0.8212589857109432  0.4978560850991221  1.0000
  H   H11       1.0  0.5642841231273874  0.7035418752598274  0.8023397885619277  1.0000
  H   H12       1.0  0.3894298858497896  0.37035066622829405  0.2792410979174802  1.0000
  H   H13       1.0  0.38570590785201925  0.21081064241377898  0.19463031093044503  1.0000
  C   C17       1.0  0.4733470179738968  0.577112310120447  0.24878518786966053  1.0000
  C   C18       1.0  0.38564434358245786  0.49697859460647303  0.18746895925719498  1.0000
  C   C19       1.0  0.38564426851148803  0.4969786871782358  0.05658681913761909  1.0000
  C   C20       1.0  0.47334692304744896  0.5771123809300966  0.9842756234091672  1.0000
  C   C21       1.0  0.5609772078333608  0.6571796892887876  0.04559135980481743  1.0000
  C   C22       1.0  0.5609771920857756  0.6571796669375832  0.17648365849967274  1.0000
  H   H14       1.0  0.5620376770945981  0.6581495156569172  0.5419354729969641  1.0000
  H   H15       1.0  0.3168988470354963  0.43416600109281656  0.24058908519064914  1.0000
  H   H16       1.0  0.31689882224933386  0.43416606901881716  0.012085055850356241  1.0000
  H   H17       1.0  0.629731682330869  0.7200005599698462  0.9925155582431519  1.0000
  H   H18       1.0  0.6297316206469559  0.7200005094673599  0.2209399257929301  1.0000
  H   H19       1.0  0.562038052009505  0.6581490126979314  0.6800064481809365  1.0000
  Zn  Zn1       1.0  0.3401671112147515  0.5772534339494924  0.6164988415024106  1.0000
  Zn  Zn2       1.0  0.6065152277723607  0.5769705432832453  0.6165614123175875  1.0000
  C   C23       1.0  0.4732936391777363  0.5713658554545751  0.8452613715395664  1.0000
  C   C24       1.0  0.4733916243557228  0.582859938730357  0.38779900297109493  1.0000
  C   C25       1.0  0.47566156099113543  0.840565475010882  0.6111195323215401  1.0000
  C   C26       1.0  0.4710235963894167  0.31365858621720616  0.621940911699671  1.0000
  O   O1        1.0  0.5744842613767815  0.5846752468326619  0.43447706457064506  1.0000
  O   O2        1.0  0.5743530501618512  0.569334751688543  0.7986304409870771  1.0000
  O   O3        1.0  0.5762638143964933  0.7867168504213832  0.6095592465116415  1.0000
  O   O4        1.0  0.5725734063464778  0.367293158515148  0.6235481651121149  1.0000
  O   O5        1.0  0.37410884174910763  0.7869308188156974  0.6095120886799417  1.0000
  O   O6        1.0  0.37219809277584626  0.5695504531378077  0.7985832136168852  1.0000
  O   O7        1.0  0.3723293036289126  0.5848908980152271  0.4344283316581346  1.0000
  O   O8        1.0  0.37041844850274397  0.3675087993804937  0.623499526105629  1.0000
