data_image0
_chemical_formula_structural       NC5NC4H6C9H10C9H8Zn2C4O8
_chemical_formula_sum              "N2 C31 H24 Zn2 O8"
_cell_length_a       13.854160002989762
_cell_length_b       10.297183801781406
_cell_length_c       9.275155815604961
_cell_angle_alpha    86.02609203372302
_cell_angle_beta     90.35750573089034
_cell_angle_gamma    89.99762469776624

_space_group_name_H-M_alt    "P 1"
_space_group_IT_number       1

loop_
  _space_group_symop_operation_xyz
  'x, y, z'

loop_
  _atom_site_type_symbol
  _atom_site_label
  _atom_site_symmetry_multiplicity
  _atom_site_fract_x
  _atom_site_fract_y
  _atom_site_fract_z
  _atom_site_occupancy
  N   N1        1.0  0.9022214745304907  0.409344183138391  0.4095319935216534  1.0000
  C   C1        1.0  0.8296414584027227  0.4315954892313536  0.35048748603349944  1.0000
  C   C2        1.0  0.7393508906463132  0.45927671242260065  0.2770338580506453  1.0000
  C   C3        1.0  0.6520800782468776  0.4332763776392809  0.34875427815392657  1.0000
  C   C4        1.0  0.564208478177866  0.4592767251498955  0.27703383487679134  1.0000
  C   C5        1.0  0.47453331742533383  0.43159535724649895  0.3504875777013736  1.0000
  N   N2        1.0  0.4024479039341851  0.4093441259439674  0.4095319934636994  1.0000
  C   C6        1.0  0.5636403862217977  0.5118237496108982  0.13361168804696755  1.0000
  C   C7        1.0  0.6508779701673201  0.5397599693090842  0.06178688043495772  1.0000
  C   C8        1.0  0.6502292436952143  0.5924351049310683  0.9068782084730728  1.0000
  C   C9        1.0  0.7387174748804902  0.5118237477170919  0.13361159778963036  1.0000
  H   H1        1.0  0.6525450789744647  0.3925057565598683  0.4597604365519203  1.0000
  H   H2        1.0  0.4955343712421437  0.5310160068831373  0.07796477523450204  1.0000
  H   H3        1.0  0.7149821551420583  0.6536451487288282  0.883066126294143  1.0000
  H   H4        1.0  0.5852736777551324  0.6536451509240592  0.8830661913635004  1.0000
  H   H5        1.0  0.6499331484015775  0.5103420219323098  0.8353810212935757  1.0000
  H   H6        1.0  0.8063573299640541  0.5310161075383291  0.07796468977654003  1.0000
  C   C10       1.0  0.15234354353881785  0.0278701749528878  0.40973622442955904  1.0000
  C   C11       1.0  0.14889598821347083  0.03655351877994904  0.2580749929216213  1.0000
  C   C12       1.0  0.14712948154095762  0.9243857623580858  0.18037450897638307  1.0000
  C   C13       1.0  0.14888222431373777  0.8013778654685417  0.25748717644536834  1.0000
  C   C14       1.0  0.15233514701316708  0.7908082293303186  0.40934023724894497  1.0000
  C   C15       1.0  0.15404235038043645  0.9045228218763661  0.4844734991659174  1.0000
  C   C16       1.0  0.1434004399611264  0.9432096066599465  0.01634217807184668  1.0000
  C   C17       1.0  0.08654661442530596  0.8438702500403721  0.936112497155294  1.0000
  C   C18       1.0  0.19649230874000323  0.8441429275378343  0.9315340743628355  1.0000
  H   H7        1.0  0.15368116235767504  0.35206265804407066  0.46817616148970637  1.0000
  H   H8        1.0  0.1475652443417037  0.1313281339129997  0.19952539017067705  1.0000
  H   H9        1.0  0.14758609325443328  0.7133365267830858  0.20056348483417485  1.0000
  H   H10       1.0  0.15670172792176462  0.8970959969043565  0.6014833240514308  1.0000
  H   H11       1.0  0.15884392385141477  0.5636287129013441  0.6961479107458372  1.0000
  H   H12       1.0  0.14220274659875587  0.04351612904858725  0.9636193033223588  1.0000
  H   H13       1.0  0.054611734408360535  0.7607416049883695  0.001701210838471746  1.0000
  H   H14       1.0  0.05206783310133421  0.8839521091872972  0.8341427809690369  1.0000
  H   H15       1.0  0.2313435370574259  0.7611807249736369  0.994342394438295  1.0000
  H   H16       1.0  0.22627194168932707  0.8843817770374391  0.8268871417625125  1.0000
  C   C19       1.0  0.1505708490657942  0.4060556436463605  0.9863087149632586  1.0000
  C   C20       1.0  0.07506107382789673  0.4693532584339146  0.05409072896885769  1.0000
  C   C21       1.0  0.0060163425980099775  0.5412843418397935  0.9727686224547765  1.0000
  C   C22       1.0  0.011200950008345643  0.5514240586620873  0.8221815628919975  1.0000
  C   C23       1.0  0.08476835739940866  0.48742849295482027  0.7526915461902213  1.0000
  C   C24       1.0  0.15410780495723997  0.4126227173042587  0.8327677324794958  1.0000
  C   C25       1.0  0.9402050822699397  0.6263900715263819  0.7385452627285956  1.0000
  C   C26       1.0  0.8807588327447397  0.689163869697633  0.6684846333073504  1.0000
  C   C27       1.0  0.8086314984557741  0.7653292599401097  0.5834664288319424  1.0000
  H   H17       1.0  0.3746110869758168  0.30124686553602364  0.09932097498542089  1.0000
  H   H18       1.0  0.0707246367724379  0.46575229010332087  0.17088413564190172  1.0000
  H   H19       1.0  0.9490559484091446  0.5901101876700183  0.0275563079674499  1.0000
  H   H20       1.0  0.08655170567750599  0.4935369955665634  0.6355420801442668  1.0000
  H   H21       1.0  0.30359626987534183  0.33739417899779767  0.5592243995918924  1.0000
  H   H22       1.0  0.82824568952785  0.7690616470350862  0.46746550529139475  1.0000
  H   H23       1.0  0.7367435781625886  0.7190705403272488  0.5985167125288338  1.0000
  H   H24       1.0  0.8061876027470075  0.8656364301810171  0.6199190966576973  1.0000
  Zn  Zn1       1.0  0.04657605697726552  0.40934075334447595  0.40954032711076066  1.0000
  Zn  Zn2       1.0  0.25809337223895595  0.40933701730693506  0.4095355018775011  1.0000
  C   C28       1.0  0.15343716293506612  0.4062063273969973  0.6727715743707596  1.0000
  C   C29       1.0  0.15123457661667492  0.41247308338227  0.14630439517184057  1.0000
  C   C30       1.0  0.15230775396003948  0.6465521359658888  0.4036718914927906  1.0000
  C   C31       1.0  0.15236391375391167  0.1721257146782018  0.4154041557000072  1.0000
  O   O1        1.0  0.2317270485185316  0.41461974967203513  0.19999857881882985  1.0000
  O   O2        1.0  0.23348143741651373  0.4040558423298914  0.6190733141110727  1.0000
  O   O3        1.0  0.23256834957364897  0.598138133982663  0.40177341558588064  1.0000
  O   O4        1.0  0.23264006373321566  0.220537466474932  0.4172983692779346  1.0000
  O   O5        1.0  0.07202929330249594  0.5981403041791091  0.4017774597043926  1.0000
  O   O6        1.0  0.07294238080264082  0.4040595726641438  0.6190772805734519  1.0000
  O   O7        1.0  0.0711879847288106  0.41462342129431073  0.2000008125182735  1.0000
  O   O8        1.0  0.07210100039116507  0.22054112964416903  0.4173007110375304  1.0000
