data_image0
_chemical_formula_structural       NC5NC3H4C6NH7C9H9Zn2C4O8
_chemical_formula_sum              "N3 C27 H20 Zn2 O8"
_cell_length_a       13.859018345313864
_cell_length_b       9.274771166103582
_cell_length_c       9.273585224739815
_cell_angle_alpha    86.03363261937257
_cell_angle_beta     90.10207003139627
_cell_angle_gamma    90.59704768766964

_space_group_name_H-M_alt    "P 1"
_space_group_IT_number       1

loop_
  _space_group_symop_operation_xyz
  'x, y, z'

loop_
  _atom_site_type_symbol
  _atom_site_label
  _atom_site_symmetry_multiplicity
  _atom_site_fract_x
  _atom_site_fract_y
  _atom_site_fract_z
  _atom_site_occupancy
  N   N1        1.0  0.9175877323148831  0.5625174763896128  0.40731220951827485  1.0000
  C   C1        1.0  0.8450221949557559  0.5234855830401028  0.45863192112192375  1.0000
  C   C2        1.0  0.7547549433367224  0.47493513619960925  0.5224668159244732  1.0000
  C   C3        1.0  0.6673956592570932  0.5222661390957581  0.4602356105392614  1.0000
  C   C4        1.0  0.5795246366826404  0.4749348444136965  0.5224666909212923  1.0000
  C   C5        1.0  0.48978231442215686  0.5234854693402868  0.45863182402832936  1.0000
  N   N2        1.0  0.4176388294338625  0.562517441783664  0.4073121405628959  1.0000
  C   C6        1.0  0.5791953023575609  0.3802585505241436  0.6469475956987633  1.0000
  C   C7        1.0  0.6663730302577661  0.33310974685739914  0.7089393203648175  1.0000
  C   C8        1.0  0.7540606482259858  0.38025884781954566  0.6469477987893584  1.0000
  H   H1        1.0  0.6677917796903436  0.5955481732805576  0.36388404192972224  1.0000
  H   H2        1.0  0.5116984286643271  0.3430042048381001  0.6959293832228279  1.0000
  H   H3        1.0  0.6659776514757879  0.25997649039928966  0.8050954694026271  1.0000
  H   H4        1.0  0.8211546945635392  0.3430047392308655  0.6959298075036491  1.0000
  C   C9        1.0  0.1646565646072562  0.13892884927736726  0.4080977904801859  1.0000
  C   C10       1.0  0.1422903342502102  0.22093125659749147  0.2792092972439275  1.0000
  C   C11       1.0  0.1289318853243655  0.1545672372221527  0.14950306178156336  1.0000
  C   C12       1.0  0.13798906396263888  0.004813815487177517  0.14774584516462014  1.0000
  C   C13       1.0  0.1585688101232532  0.9214740349507372  0.2748637874404545  1.0000
  C   C14       1.0  0.17057916467846912  0.9860950891989277  0.40653911116181396  1.0000
  N   N3        1.0  0.10715668705855182  0.239654784917134  0.019198009265359646  1.0000
  H   H5        1.0  0.2736455468967258  0.22178618275370354  0.7235275825758003  1.0000
  H   H6        1.0  0.13742453807370492  0.3375183540034814  0.2786556584337055  1.0000
  H   H7        1.0  0.1281677635377616  0.9523151147531346  0.047949983041122086  1.0000
  H   H8        1.0  0.16281586798268943  0.805268181953552  0.2707360089213185  1.0000
  H   H9        1.0  0.2400795608078689  0.6912038815601563  0.62114305357911  1.0000
  H   H10       1.0  0.10050865251901174  0.35172821266702137  0.01915119697213385  1.0000
  H   H11       1.0  0.09742921919870451  0.19119731574111645  0.9217724176155815  1.0000
  C   C15       1.0  0.16708277348591433  0.5582221769394327  0.9840748057837088  1.0000
  C   C16       1.0  0.2529676128118281  0.526095511341784  0.06009068646655358  1.0000
  C   C17       1.0  0.34024905334979083  0.506951548470009  0.9878655330777778  1.0000
  C   C18       1.0  0.34086666355817197  0.5207452481552226  0.8357809281047364  1.0000
  C   C19       1.0  0.25599403878322535  0.5501598511477159  0.7587663179358133  1.0000
  C   C20       1.0  0.16815294550508986  0.5668017169880843  0.830562060807851  1.0000
  C   C21       1.0  0.4294509475607273  0.4738722505172031  0.07944159905672254  1.0000
  C   C22       1.0  0.5042084056525897  0.37490080828182726  0.019385752959701467  1.0000
  C   C23       1.0  0.5253407723854118  0.5361843072779502  0.022992887427380152  1.0000
  H   H12       1.0  0.0076866593237396846  0.5393846437179612  0.26539369089126486  1.0000
  H   H13       1.0  0.2524593450105641  0.5191341846209299  0.17727300340308405  1.0000
  H   H14       1.0  0.40621878986470517  0.507711909529309  0.7748705791722892  1.0000
  H   H15       1.0  0.025338184267249098  0.6692932295305146  0.5417033720588824  1.0000
  H   H16       1.0  0.42304412416556025  0.46456932679661184  0.19922056483648864  1.0000
  H   H17       1.0  0.49097092198729664  0.33778236797034644  0.9098762120134231  1.0000
  H   H18       1.0  0.5437814142915107  0.3073645766787787  0.10303130699518984  1.0000
  H   H19       1.0  0.5248945452086426  0.5968592021203094  0.9156621016891126  1.0000
  H   H20       1.0  0.5772559099199281  0.5629373191025431  0.1087511532514518  1.0000
  Zn  Zn1       1.0  0.061891659133276766  0.5625136790217642  0.4073205290989768  1.0000
  Zn  Zn2       1.0  0.27333481128938475  0.562509520843514  0.4073156806055207  1.0000
  C   C24       1.0  0.1679083289781029  0.5594335707914635  0.6705684203772619  1.0000
  C   C25       1.0  0.16732046329993766  0.5655914504863815  0.14406792738801277  1.0000
  C   C26       1.0  0.16944742778849076  0.825904393578538  0.40109029884213954  1.0000
  C   C27       1.0  0.16578128032016992  0.29911889544250636  0.4135461289545279  1.0000
  O   O1        1.0  0.24764176447633135  0.5680567750293624  0.1977612521541368  1.0000
  O   O2        1.0  0.24806747969461032  0.5569639978988388  0.616871002824221  1.0000
  O   O3        1.0  0.2493092416484235  0.7721425724937421  0.3992655103474104  1.0000
  O   O4        1.0  0.2463999303068094  0.35287820965927597  0.4153666365471067  1.0000
  O   O5        1.0  0.08882646796068291  0.7721449902089146  0.3992695731514615  1.0000
  O   O6        1.0  0.08758471802108068  0.5569681478737236  0.6168749855909501  1.0000
  O   O7        1.0  0.08715900032482214  0.5680608571749949  0.19776350216919755  1.0000
  O   O8        1.0  0.08591716621584  0.35288228258300425  0.41536899464007915  1.0000
