data_image0
_chemical_formula_structural       NC9NC3NH7C7F3H5C7F3H5Zn2C4O8
_chemical_formula_sum              "N3 C30 H17 F6 Zn2 O8"
_cell_length_a       16.053384444249904
_cell_length_b       9.272718291674593
_cell_length_c       9.272721663655245
_cell_angle_alpha    86.31122681088247
_cell_angle_beta     90.31938989593549
_cell_angle_gamma    88.75080299671951

_space_group_name_H-M_alt    "P 1"
_space_group_IT_number       1

loop_
  _space_group_symop_operation_xyz
  'x, y, z'

loop_
  _atom_site_type_symbol
  _atom_site_label
  _atom_site_symmetry_multiplicity
  _atom_site_fract_x
  _atom_site_fract_y
  _atom_site_fract_z
  _atom_site_occupancy
  N   N1        1.0  0.7695736898118525  0.5502359471574723  0.41793819994773285  1.0000
  C   C1        1.0  0.7184899072959834  0.5266787885454758  0.33465908644953735  1.0000
  C   C2        1.0  0.6550069150966646  0.49740888327148175  0.23120607942431046  1.0000
  C   C3        1.0  0.6679354845801838  0.4832144877776081  0.08594984791778758  1.0000
  C   C4        1.0  0.591132764772499  0.45477974226783174  0.027719363344541177  1.0000
  C   C5        1.0  0.5346264932640161  0.4532083357809564  0.14059035594443636  1.0000
  C   C6        1.0  0.4440280137406743  0.4266974423124699  0.12901329192815014  1.0000
  C   C7        1.0  0.3884661668901119  0.4746857147523104  0.23363795859750525  1.0000
  C   C8        1.0  0.3029682513438416  0.44954202583697  0.2225511988147932  1.0000
  C   C9        1.0  0.24663163052960746  0.499481882305171  0.3298240697479706  1.0000
  N   N2        1.0  0.2013535939326223  0.5396264755630018  0.4160546644333386  1.0000
  C   C10       1.0  0.2723067593292386  0.3762858082220373  0.1068540551662509  1.0000
  C   C11       1.0  0.3268606971775472  0.3284316157732792  0.002465411181468372  1.0000
  C   C12       1.0  0.4121511669415385  0.35338891639992087  0.013110448564300542  1.0000
  N   N3        1.0  0.5743429836352726  0.47938405539212375  0.2646441685033365  1.0000
  H   H1        1.0  0.7263348049914381  0.4924925661324185  0.02871233982220134  1.0000
  H   H2        1.0  0.5783603206258431  0.4388799026061241  0.9152673528222149  1.0000
  H   H3        1.0  0.410991541423782  0.533410526718683  0.3226794630903539  1.0000
  H   H4        1.0  0.20632116893709657  0.35628639445326304  0.09734051737475945  1.0000
  H   H5        1.0  0.3030359066263991  0.2715282854269023  0.913178034851175  1.0000
  H   H6        1.0  0.4530198382975741  0.3135949586732243  0.9314849493109087  1.0000
  H   H7        1.0  0.5486969023124573  0.48256940685404076  0.36765588933367244  1.0000
  C   C13       1.0  0.9872655179930923  0.12148654310898511  0.41380320119174135  1.0000
  C   C14       1.0  0.935963578187812  0.20350499352429524  0.3143739706533184  1.0000
  C   C15       1.0  0.8788254797340929  0.1368858703295972  0.2263479347295838  1.0000
  C   C16       1.0  0.8751820853329708  0.9857336496384702  0.23479419252886233  1.0000
  C   C17       1.0  0.9265301355239229  0.9027376310750899  0.33110291444146234  1.0000
  C   C18       1.0  0.9836698167971679  0.9683646902853523  0.4202020397054998  1.0000
  C   C19       1.0  0.8259605640591136  0.2264889868207136  0.11775180513043537  1.0000
  F   F1        1.0  0.8048239761200058  0.35871930366624616  0.1702503507960469  1.0000
  F   F2        1.0  0.7530778846963817  0.15671167796003482  0.08794290931051574  1.0000
  F   F3        1.0  0.8702502483240604  0.24947974720921182  0.9912468232069922  1.0000
  H   H8        1.0  0.08780268349820397  0.19944170694409458  0.7245636960462059  1.0000
  H   H9        1.0  0.9392543693374482  0.32035560405856867  0.3076482020207707  1.0000
  H   H10       1.0  0.8331788496122111  0.9312871171935118  0.16563552660801117  1.0000
  H   H11       1.0  0.9231397728743493  0.7860626474885042  0.3330578162968118  1.0000
  H   H12       1.0  0.16342360866681882  0.8490002879879259  0.5929734072638206  1.0000
  C   C20       1.0  0.9832731973639841  0.5426410037614091  0.993551317235024  1.0000
  C   C21       1.0  0.0192332363658414  0.4238250286211267  0.07522781138805135  1.0000
  C   C22       1.0  0.062459233150305764  0.31340676028578707  0.00830991370241452  1.0000
  C   C23       1.0  0.06718073716284878  0.31993016529552354  0.857189546222515  1.0000
  C   C24       1.0  0.030739671249159436  0.4357560703151088  0.7745242202150843  1.0000
  C   C25       1.0  0.9876621710239202  0.5472102573953662  0.8404538551998875  1.0000
  C   C26       1.0  0.09865687790070998  0.18504949646868574  0.09753850989420099  1.0000
  F   F4        1.0  0.12653708340618808  0.22626909957859612  0.22996571532239374  1.0000
  F   F5        1.0  0.16532215753984758  0.1237737773916354  0.027678230731768234  1.0000
  F   F6        1.0  0.037930290533727096  0.08275940762999068  0.12005681440625748  1.0000
  H   H13       1.0  0.9290035310294315  0.8873120516304743  0.07259553152094875  1.0000
  H   H14       1.0  0.015094878874410531  0.4188043723754509  0.1920528854292789  1.0000
  H   H15       1.0  0.09833498831475063  0.23446728869584124  0.8025073323872327  1.0000
  H   H16       1.0  0.034307873620071705  0.4361295297789196  0.6578575132194597  1.0000
  H   H17       1.0  0.8371164084836954  0.7940942749989408  0.7216528632391279  1.0000
  Zn  Zn1       1.0  0.8941761003554638  0.5471704820672532  0.4174029428676158  1.0000
  Zn  Zn2       1.0  0.07675127088442935  0.5426802565223221  0.41660161823393604  1.0000
  C   C27       1.0  0.9868550753860843  0.5406021181520502  0.6803277630505575  1.0000
  C   C28       1.0  0.9840742825776062  0.5492503915733504  0.15367694457931758  1.0000
  C   C29       1.0  0.9843154249229419  0.8082558016809813  0.4132462751977277  1.0000
  C   C30       1.0  0.9866138784946684  0.28159497754361484  0.4207584964944616  1.0000
  O   O1        1.0  0.053629486520246905  0.5497582544754003  0.20711242182749262  1.0000
  O   O2        1.0  0.05587020384051278  0.5366851879051806  0.6262836756292892  1.0000
  O   O3        1.0  0.05381847773082549  0.7528189533581267  0.4106134999703532  1.0000
  O   O4        1.0  0.05568114972528515  0.3336245002865288  0.4227824897182755  1.0000
  O   O5        1.0  0.9152461592106167  0.7562262398368695  0.4112220716491557  1.0000
  O   O6        1.0  0.9172978775623928  0.5400942064185494  0.6268921835116577  1.0000
  O   O7        1.0  0.915057151526258  0.5531672133847614  0.20771919563563565  1.0000
  O   O8        1.0  0.917108815331954  0.3370334494656375  0.4233893715604512  1.0000
