data_image0
_chemical_formula_structural       NC8NC6H8C6NH7C6SCH8Zn2C4O8
_chemical_formula_sum              "N3 C31 H23 S1 Zn2 O8"
_cell_length_a       17.457602349358154
_cell_length_b       9.274771166103582
_cell_length_c       10.302812801239593
_cell_angle_alpha    85.45577702643503
_cell_angle_beta     92.87590592568559
_cell_angle_gamma    92.29117059398062

_space_group_name_H-M_alt    "P 1"
_space_group_IT_number       1

loop_
  _space_group_symop_operation_xyz
  'x, y, z'

loop_
  _atom_site_type_symbol
  _atom_site_label
  _atom_site_symmetry_multiplicity
  _atom_site_fract_x
  _atom_site_fract_y
  _atom_site_fract_z
  _atom_site_occupancy
  N   N1        1.0  0.7314004532886441  0.6141282902987243  0.6249958959700029  1.0000
  C   C1        1.0  0.670038801110921  0.563104510198525  0.6144449135703363  1.0000
  C   C2        1.0  0.5937023580709005  0.4996372765180286  0.6013290227812353  1.0000
  C   C3        1.0  0.5354218400621867  0.5442576952100948  0.6761494277095048  1.0000
  C   C4        1.0  0.4605365660791616  0.4831438909905742  0.6636449495249099  1.0000
  C   C5        1.0  0.3986790093876412  0.5302564808482083  0.7428827670513026  1.0000
  C   C6        1.0  0.3242464437338229  0.5507753680118526  0.6871121213848457  1.0000
  C   C7        1.0  0.26596478661036277  0.5951914416788162  0.7620406919086684  1.0000
  C   C8        1.0  0.19009780862432782  0.6163834486857582  0.7040544727506008  1.0000
  N   N2        1.0  0.1291136354179503  0.6334147343518646  0.6574337120771019  1.0000
  C   C9        1.0  0.2816250345069468  0.6193587618478043  0.8932479405383791  1.0000
  C   C10       1.0  0.3552752992376186  0.5992720454920022  0.9494055422409081  1.0000
  C   C11       1.0  0.41354646376961535  0.5550560145540588  0.8749343082043168  1.0000
  C   C12       1.0  0.44521627100626704  0.37665704542527484  0.5748885035070059  1.0000
  C   C13       1.0  0.5034867924953477  0.33234624463809354  0.5004676033857591  1.0000
  C   C14       1.0  0.5775879950332342  0.39358489899878585  0.5135217079931813  1.0000
  H   H1        1.0  0.5482304171680502  0.6277998977018217  0.7426586312407606  1.0000
  H   H2        1.0  0.3118089634742076  0.5341433497906776  0.5851397751624461  1.0000
  H   H3        1.0  0.23695484923000731  0.653669975210555  0.9520239651391288  1.0000
  H   H4        1.0  0.36720869150569113  0.6176346556032661  0.05100266292927324  1.0000
  H   H5        1.0  0.46993945840826196  0.5383997096830758  0.9210462887691061  1.0000
  H   H6        1.0  0.3884515397447573  0.3262883981707365  0.5643006272311393  1.0000
  H   H7        1.0  0.4911989225932163  0.25004445555371935  0.4327589632304962  1.0000
  H   H8        1.0  0.6222528513178119  0.35830743307518576  0.4552578101790165  1.0000
  C   C15       1.0  0.9279046468540468  0.2000608702055251  0.6417305888259943  1.0000
  C   C16       1.0  0.9102453811542214  0.2825132666001171  0.5241903914806478  1.0000
  C   C17       1.0  0.8997512325126642  0.2169549858721005  0.4064979835016922  1.0000
  C   C18       1.0  0.9069565821006274  0.06756878675824327  0.4055027966065221  1.0000
  C   C19       1.0  0.9231967567659003  0.9837281459075886  0.5213323786329689  1.0000
  C   C20       1.0  0.9326167251161908  0.04747141310915137  0.6407108864648313  1.0000
  N   N3        1.0  0.8825634657304149  0.30252974478059436  0.2877202368990104  1.0000
  H   H9        1.0  0.014271313717843178  0.2839093870655909  0.9329068820881176  1.0000
  H   H10       1.0  0.906375950759612  0.3989183333187608  0.5233760917109351  1.0000
  H   H11       1.0  0.8992456103125797  0.015707634265349723  0.3149799869484781  1.0000
  H   H12       1.0  0.9265787841495345  0.8677281361962964  0.5178900086313052  1.0000
  H   H13       1.0  0.9876777257655627  0.7530751880315764  0.83851217563445  1.0000
  H   H14       1.0  0.877276031150864  0.41434724097137815  0.2872468214995627  1.0000
  H   H15       1.0  0.8749247397493949  0.2546893034420843  0.1993384066664292  1.0000
  C   C21       1.0  0.9302607032386295  0.6237661320137309  0.2599722650290144  1.0000
  C   C22       1.0  0.905180019381706  0.7664004480847166  0.24649097724896915  1.0000
  C   C23       1.0  0.8925016329384049  0.8371483717903917  0.12279164839827937  1.0000
  C   C24       1.0  0.9051799493549734  0.7664002932666516  0.011339802099239012  1.0000
  C   C25       1.0  0.9302606534071699  0.6237661198762345  0.02246916461036896  1.0000
  C   C26       1.0  0.9426547221290617  0.5531322329756957  0.14731224425894182  1.0000
  S   S1        1.0  0.8606155553354258  0.019499277754110082  0.10707489062738995  1.0000
  C   C27       1.0  0.7593904124675945  0.9641921719664269  0.10241454741827405  1.0000
  H   H16       1.0  0.9396837810852958  0.5699942920489802  0.5923647710872091  1.0000
  H   H17       1.0  0.8952169261330212  0.8230551581726999  0.3317027345006606  1.0000
  H   H18       1.0  0.8952167713331061  0.8230549428747966  0.9163524092373335  1.0000
  H   H19       1.0  0.9619865959803003  0.44310182267556986  0.15680341666985176  1.0000
  H   H20       1.0  0.939682348005856  0.5699934736583967  0.6993490699311833  1.0000
  H   H21       1.0  0.7454253145513178  0.8993440096806988  0.017735572254720777  1.0000
  H   H22       1.0  0.7454256513397769  0.8993454838177865  0.19397028934090477  1.0000
  H   H23       1.0  0.7244264328145414  0.06206117459374471  0.09246134148899565  1.0000
  Zn  Zn1       1.0  0.8461718650895697  0.6196900720689752  0.6343642497594377  1.0000
  Zn  Zn2       1.0  0.014342143585147616  0.6278411225760951  0.6480760016924425  1.0000
  C   C28       1.0  0.9302269901746091  0.6180179416962477  0.8783477144424066  1.0000
  C   C29       1.0  0.9302888650375626  0.6295151625070755  0.40409281197681257  1.0000
  C   C30       1.0  0.931722082873523  0.8872925595702159  0.6357297495337211  1.0000
  C   C31       1.0  0.9287937053144683  0.3602388083149149  0.6467108435094467  1.0000
  O   O1        1.0  0.9941180256543848  0.6345315760602896  0.4576645300639548  1.0000
  O   O2        1.0  0.9940351736879457  0.6191868983782578  0.8351825263859598  1.0000
  O   O3        1.0  0.9952416196295861  0.836629516054877  0.6392667312072784  1.0000
  O   O4        1.0  0.9929115223850202  0.41708896592395006  0.6535802232074115  1.0000
  O   O5        1.0  0.8676024289014435  0.8304422259411374  0.6288600235584899  1.0000
  O   O6        1.0  0.8663959925957302  0.6130013418027278  0.8247757474272439  1.0000
  O   O7        1.0  0.8664788443337161  0.6283459692067166  0.44725619026239216  1.0000
  O   O8        1.0  0.8652723410038214  0.41090334875011475  0.6431719807550951  1.0000
