data_image0
_chemical_formula_structural       NC6NC3H6C9H8C6NH7Zn2C4O8
_chemical_formula_sum              "N3 C28 H21 Zn2 O8"
_cell_length_a       14.934028789175542
_cell_length_b       9.275152443626249
_cell_length_c       9.274774538082516
_cell_angle_alpha    84.86265069898316
_cell_angle_beta     90.32448570792074
_cell_angle_gamma    90.53595971611534

_space_group_name_H-M_alt    "P 1"
_space_group_IT_number       1

loop_
  _space_group_symop_operation_xyz
  'x, y, z'

loop_
  _atom_site_type_symbol
  _atom_site_label
  _atom_site_symmetry_multiplicity
  _atom_site_fract_x
  _atom_site_fract_y
  _atom_site_fract_z
  _atom_site_occupancy
  N   N1        1.0  0.8470264070866143  0.5918527869466228  0.40202590612987704  1.0000
  C   C1        1.0  0.7695309803890121  0.5907601655480577  0.40135002624145666  1.0000
  C   C2        1.0  0.6731227218664453  0.5893959191522729  0.4005063169999479  1.0000
  C   C3        1.0  0.6262726322382696  0.6956452732273053  0.4661078188162586  1.0000
  C   C4        1.0  0.5327514992120055  0.6945498702815474  0.4654313539385677  1.0000
  C   C5        1.0  0.48516837317893907  0.5872593334957696  0.39918706628509093  1.0000
  C   C6        1.0  0.3885423804439092  0.5895613490097815  0.40060970050654143  1.0000
  N   N2        1.0  0.31107795614524747  0.5913882856856072  0.4017390688740783  1.0000
  C   C7        1.0  0.532000266138282  0.47954004768782377  0.33267742644204623  1.0000
  C   C8        1.0  0.4826822550015155  0.3628929213432446  0.2606573481339116  1.0000
  C   C9        1.0  0.6261620663261007  0.48175320709549196  0.33404394942719207  1.0000
  H   H1        1.0  0.6620358545541939  0.7793599034348486  0.51779630719282  1.0000
  H   H2        1.0  0.49742923887976803  0.777619777630093  0.5167216261400138  1.0000
  H   H3        1.0  0.4399056529584165  0.4127532298874419  0.1717711335383456  1.0000
  H   H4        1.0  0.4398472390988118  0.2993262143944635  0.3410875387405685  1.0000
  H   H5        1.0  0.5294922081899257  0.2873389611817039  0.21400159228516213  1.0000
  H   H6        1.0  0.6629868781216548  0.3997883746520079  0.2834362764070937  1.0000
  C   C10       1.0  0.07642052766484192  0.16797803900597774  0.40335760828132194  1.0000
  C   C11       1.0  0.04366048282217913  0.2518177076825423  0.2807620410319196  1.0000
  C   C12       1.0  0.019215239252279512  0.18748829314348692  0.155865659957656  1.0000
  C   C13       1.0  0.027144291308400553  0.03817993411471332  0.1510918739093947  1.0000
  C   C14       1.0  0.058149472150596376  0.9526628968005494  0.2726522634177402  1.0000
  C   C15       1.0  0.08169242353672201  0.015251827964683612  0.40041982712412016  1.0000
  C   C16       1.0  0.002401164641319123  0.9721813279114292  0.021753463126758407  1.0000
  C   C17       1.0  0.981684540777585  0.9168896723643694  0.9134528217681104  1.0000
  C   C18       1.0  0.9565490036449994  0.8497910295104575  0.7820489869906972  1.0000
  H   H7        1.0  0.2061627726816208  0.24699019596707283  0.69152218822336  1.0000
  H   H8        1.0  0.0389419610251629  0.368343869372479  0.28031096267241784  1.0000
  H   H9        1.0  0.9949253854709975  0.25456615822916784  0.06240494588525358  1.0000
  H   H10       1.0  0.061904466113092076  0.8363841603371689  0.26862365619393214  1.0000
  H   H11       1.0  0.1661850614528002  0.7181514930765157  0.5975173500356881  1.0000
  H   H12       1.0  0.9729687299207193  0.7329353780254367  0.7955224089110926  1.0000
  H   H13       1.0  0.8835954279645005  0.8626186388037937  0.7623353508828927  1.0000
  H   H14       1.0  0.9940143261012783  0.9029153870725293  0.6886028009252763  1.0000
  C   C19       1.0  0.07747245648635354  0.5953063063791857  0.9780606211057887  1.0000
  C   C20       1.0  0.14145036048876525  0.6803760769001705  0.04446272552981223  1.0000
  C   C21       1.0  0.20937147553451196  0.7535581528408315  0.9634021245505426  1.0000
  C   C22       1.0  0.21386316278550002  0.7420021247083499  0.8144619405644828  1.0000
  C   C23       1.0  0.15019231256459742  0.6601100713998038  0.7463460769118795  1.0000
  C   C24       1.0  0.08064047943230947  0.587923487189725  0.8257168479411884  1.0000
  N   N3        1.0  0.2743760864983791  0.8384261908454744  0.03280953455610414  1.0000
  H   H15       1.0  0.9418733871711759  0.31342830846568925  0.10504149411095409  1.0000
  H   H16       1.0  0.1398811219809386  0.6872197668371194  0.16046012777887042  1.0000
  H   H17       1.0  0.26629828795721394  0.7976880509878757  0.7507057093947123  1.0000
  H   H18       1.0  0.15416022431318296  0.6560931847424534  0.6301844729194483  1.0000
  H   H19       1.0  0.9865870435097934  0.40246332865725737  0.560335862353087  1.0000
  H   H20       1.0  0.27183215579189346  0.8474755763852961  0.1441496969895928  1.0000
  H   H21       1.0  0.3255117273330532  0.8929789402706669  0.9733467205282516  1.0000
  Zn  Zn1       1.0  0.9809416806648437  0.5917148035324375  0.4019514726687139  1.0000
  Zn  Zn2       1.0  0.1771626832035481  0.5915143489943613  0.4018253431331915  1.0000
  C   C25       1.0  0.08000390314312429  0.5835718671279071  0.665511600692505  1.0000
  C   C26       1.0  0.07810261530789964  0.5996591022313937  0.13826534907847354  1.0000
  C   C27       1.0  0.08066981325969252  0.8551491147744201  0.3952238199927982  1.0000
  C   C28       1.0  0.0774366277377656  0.3280801207260411  0.40855321277814705  1.0000
  O   O1        1.0  0.15277891105310526  0.6010375750596824  0.19198367559530372  1.0000
  O   O2        1.0  0.1542547997553545  0.5820401692404316  0.6116971330824945  1.0000
  O   O3        1.0  0.1547915323831045  0.8013422192327702  0.39343783328077997  1.0000
  O   O4        1.0  0.15224211112818667  0.3817355363982793  0.41024286718852854  1.0000
  O   O5        1.0  0.005862185779589079  0.8014936161985615  0.39353394864882163  1.0000
  O   O6        1.0  0.005325463644788588  0.5821933001351041  0.611793165486014  1.0000
  O   O7        1.0  0.003849568204012051  0.6011906707951435  0.19207797293594342  1.0000
  O   O8        1.0  0.0033127686156453344  0.3818886208728471  0.4103372727731034  1.0000
