data_image0
_chemical_formula_structural       NC9NC3NH7C7OCH10C8NH7Zn2C4O8
_chemical_formula_sum              "N4 C32 H24 O9 Zn2"
_cell_length_a       16.053384444249904
_cell_length_b       10.30083208314754
_cell_length_c       9.274266800404105
_cell_angle_alpha    85.96676049995207
_cell_angle_beta     89.35588104550887
_cell_angle_gamma    89.16926536021816

_space_group_name_H-M_alt    "P 1"
_space_group_IT_number       1

loop_
  _space_group_symop_operation_xyz
  'x, y, z'

loop_
  _atom_site_type_symbol
  _atom_site_label
  _atom_site_symmetry_multiplicity
  _atom_site_fract_x
  _atom_site_fract_y
  _atom_site_fract_z
  _atom_site_occupancy
  N   N1        1.0  0.7915815353437106  0.39297433658060105  0.4061295350931457  1.0000
  C   C1        1.0  0.7412076245341155  0.37159799641304403  0.32305916438238125  1.0000
  C   C2        1.0  0.6786064401693933  0.34503781299790415  0.21986551552908895  1.0000
  C   C3        1.0  0.6928879044570435  0.331972399467271  0.07476101959822112  1.0000
  C   C4        1.0  0.6165305075918468  0.3062523421556991  0.01677095234252723  1.0000
  C   C5        1.0  0.5589192166286661  0.3050569348393053  0.12962353711402153  1.0000
  C   C6        1.0  0.468320295807947  0.2811602030504452  0.11825896263785539  1.0000
  C   C7        1.0  0.4119450918669607  0.3245793593470572  0.22247615187222022  1.0000
  C   C8        1.0  0.3264477964527319  0.30191480828844197  0.21159095238337722  1.0000
  C   C9        1.0  0.2692803749993735  0.3470966045966828  0.3184402132602233  1.0000
  N   N2        1.0  0.2233345080210399  0.38341638610231943  0.4043302857222908  1.0000
  C   C10       1.0  0.2965996126062218  0.2357192306464844  0.09650382368607047  1.0000
  C   C11       1.0  0.3519651828546567  0.19242127856568694  0.9925215340087662  1.0000
  C   C12       1.0  0.4372585356378139  0.21491711913436928  0.0029666034085034116  1.0000
  N   N3        1.0  0.5975402388415545  0.3288707723719668  0.25343679870234515  1.0000
  H   H1        1.0  0.7518837668927016  0.34021628983952296  0.01746587896874829  1.0000
  H   H2        1.0  0.6047844742386528  0.2917149588353222  0.9044751874298762  1.0000
  H   H3        1.0  0.4338545463449861  0.3776368960450919  0.3110296581512231  1.0000
  H   H4        1.0  0.2306212790452579  0.21769038230311957  0.08715079770963663  1.0000
  H   H5        1.0  0.3287664752394451  0.1410035855529177  0.9037078406826967  1.0000
  H   H6        1.0  0.4787517222839799  0.17892206411083272  0.9216776005115279  1.0000
  H   H7        1.0  0.5709053680122218  0.33193983773918956  0.35639524429707325  1.0000
  C   C13       1.0  0.007484571559676524  0.006859067034315165  0.4053810511771925  1.0000
  C   C14       1.0  0.9849567251838801  0.01578899239439857  0.25910376234969634  1.0000
  C   C15       1.0  0.9726389820203424  0.9031627977982024  0.1858866485676265  1.0000
  C   C16       1.0  0.9848983098910662  0.7805287909897459  0.2587231385806632  1.0000
  C   C17       1.0  0.007439396328435376  0.7695216058713237  0.40509121168154083  1.0000
  C   C18       1.0  0.018404534612512125  0.8832263226421165  0.47764477687413964  1.0000
  C   C19       1.0  0.9509280885619628  0.91385463731189  0.028302263085496333  1.0000
  O   O1        1.0  0.02529565862457273  0.9175700307441488  0.9455863766595711  1.0000
  C   C20       1.0  0.00575455628378618  0.9276339557927578  0.7973624091565146  1.0000
  H   H8        1.0  0.01706117564599308  0.3308437163273361  0.46097169814469535  1.0000
  H   H9        1.0  0.976914969243223  0.11026485117893171  0.20151031840415734  1.0000
  H   H10       1.0  0.9768156947538778  0.6938563830101249  0.20086839959928526  1.0000
  H   H11       1.0  0.03578608188744714  0.8755761366797764  0.5904558923304424  1.0000
  H   H12       1.0  0.05087717414531312  0.5415145968915068  0.680760087413018  1.0000
  H   H13       1.0  0.9126808475345889  0.003810538263915306  0.004363329755155964  1.0000
  H   H14       1.0  0.9127157908602782  0.8287180765555575  0.00403265032272793  1.0000
  H   H15       1.0  0.0647306797739764  0.9304408222821822  0.7338009782681283  1.0000
  H   H16       1.0  0.9704053632744174  0.019122548881424395  0.7674490566966607  1.0000
  H   H17       1.0  0.9704214576323769  0.8416377765106257  0.7670917782789721  1.0000
  C   C21       1.0  0.009378232597545774  0.38530866449146783  0.9819184861047643  1.0000
  C   C22       1.0  0.9609710830349901  0.29341999196716584  0.06330505242745277  1.0000
  C   C23       1.0  0.9075221125246069  0.2117422358013177  0.9956622854298507  1.0000
  C   C24       1.0  0.9006986417182682  0.2207194636257885  0.8449895018699762  1.0000
  C   C25       1.0  0.9502496657225374  0.30947826105675746  0.7622930981902716  1.0000
  C   C26       1.0  0.005545684131174285  0.3910720091154083  0.828553712954184  1.0000
  C   C27       1.0  0.8439600605196308  0.13127699878615928  0.7721786480974773  1.0000
  C   C28       1.0  0.8890803496970904  0.01155930052075416  0.7408206788311005  1.0000
  N   N4        1.0  0.9246967902937824  0.9170742637709038  0.7160691637160963  1.0000
  H   H18       1.0  0.10113443172582448  0.6690760581588657  0.06086269312741588  1.0000
  H   H19       1.0  0.9630984623745056  0.28664752157743134  0.18031276771906746  1.0000
  H   H20       1.0  0.8707610149894556  0.14215725610239982  0.06108623089951281  1.0000
  H   H21       1.0  0.9470051104437136  0.31251302536963577  0.6454144966836144  1.0000
  H   H22       1.0  0.07034935742523918  0.5795344119155488  0.531871444947138  1.0000
  H   H23       1.0  0.8201943918687512  0.1793515284257157  0.6694905676699956  1.0000
  H   H24       1.0  0.7893221965702544  0.10580527789779559  0.8425780580253348  1.0000
  Zn  Zn1       1.0  0.916176077167248  0.3902127119218198  0.4056186289205823  1.0000
  Zn  Zn2       1.0  0.09873989003136896  0.3861675114688002  0.4048529776793124  1.0000
  C   C29       1.0  0.006268584306666322  0.38480942089274195  0.6685235299345682  1.0000
  C   C30       1.0  0.008649375745519718  0.3915723977668522  0.14194820916883688  1.0000
  C   C31       1.0  0.007469629035944616  0.6253231447030037  0.39940157820199707  1.0000
  C   C32       1.0  0.007448268464538946  0.15105711569112468  0.4110702386101881  1.0000
  O   O2        1.0  0.0776867806061905  0.3921337661274856  0.19536508761607996  1.0000
  O   O3        1.0  0.07579289110730558  0.38117685652438665  0.6145251253162256  1.0000
  O   O4        1.0  0.07676180917552289  0.5753947611103314  0.3972072486134821  1.0000
  O   O5        1.0  0.07671780073003776  0.19791587147554424  0.41268285649115266  1.0000
  O   O6        1.0  0.9381981041685438  0.5784643532968665  0.3977887503624382  1.0000
  O   O7        1.0  0.9372291863519937  0.3842480083581772  0.6151065496100976  1.0000
  O   O8        1.0  0.9391230837545299  0.3952048609098098  0.195944778779787  1.0000
  O   O9        1.0  0.9381541033862774  0.2009869577056551  0.4132626557362271  1.0000
