data_image0
_chemical_formula_structural       NC9NC5H8C7F3H5C6NCH7Zn2C4O8
_chemical_formula_sum              "N3 C32 H20 F3 Zn2 O8"
_cell_length_a       17.807436237873137
_cell_length_b       9.27228830945605
_cell_length_c       9.273390368590327
_cell_angle_alpha    85.86907617874284
_cell_angle_beta     89.39974432744097
_cell_angle_gamma    87.81380667828488

_space_group_name_H-M_alt    "P 1"
_space_group_IT_number       1

loop_
  _space_group_symop_operation_xyz
  'x, y, z'

loop_
  _atom_site_type_symbol
  _atom_site_label
  _atom_site_symmetry_multiplicity
  _atom_site_fract_x
  _atom_site_fract_y
  _atom_site_fract_z
  _atom_site_occupancy
  N   N1        1.0  0.699586943044995  0.5255551460106871  0.3908455338253507  1.0000
  C   C1        1.0  0.6392051236757661  0.48630929831026065  0.3788128472274159  1.0000
  C   C2        1.0  0.5640967768616628  0.43749178554851037  0.363845491283719  1.0000
  C   C3        1.0  0.5464355195059578  0.3568699349212748  0.24772679715679224  1.0000
  C   C4        1.0  0.4735098429191862  0.30934697911779385  0.2331033964048299  1.0000
  C   C5        1.0  0.4171988989601103  0.3420258413619833  0.3345648340235816  1.0000
  C   C6        1.0  0.339697024883218  0.29164988508550094  0.31911437165663115  1.0000
  C   C7        1.0  0.2770426957329182  0.3828334846743897  0.34743285055765605  1.0000
  C   C8        1.0  0.20397588933423522  0.33508499984139006  0.33282579269557533  1.0000
  C   C9        1.0  0.14025581102936824  0.4292645128351947  0.3615327324952984  1.0000
  N   N2        1.0  0.08903789034906098  0.5049783384696547  0.38461233926255844  1.0000
  C   C10       1.0  0.1929813668071814  0.19586585418546484  0.28987359832097837  1.0000
  C   C11       1.0  0.2547784077340403  0.10466675782469494  0.2615458881211128  1.0000
  C   C12       1.0  0.3277281006452925  0.15197429347384595  0.2759304338461892  1.0000
  C   C13       1.0  0.4355486609746385  0.4231998007374832  0.4509239929270356  1.0000
  C   C14       1.0  0.508528336635008  0.4705092834324292  0.4653757484184533  1.0000
  H   H1        1.0  0.5889718094396623  0.33102976414700636  0.16827212768087274  1.0000
  H   H2        1.0  0.4609212506992826  0.24869692333998034  0.14138927135476775  1.0000
  H   H3        1.0  0.2849706582434688  0.49151303656332523  0.37892212859820296  1.0000
  H   H4        1.0  0.1367152983337747  0.15790746691492827  0.27831044494611046  1.0000
  H   H5        1.0  0.2461475301266923  0.9968846345170553  0.22871976812074934  1.0000
  H   H6        1.0  0.3747530266887372  0.07866947951467297  0.2551672068422288  1.0000
  H   H7        1.0  0.3937321779116018  0.4484560594250178  0.5318183113042994  1.0000
  H   H8        1.0  0.5216383616978199  0.5325038089455729  0.5559269537945875  1.0000
  C   C15       1.0  0.8965269867989303  0.09134874915183012  0.38991470720113686  1.0000
  C   C16       1.0  0.9322473562812154  0.17026067054006155  0.2755086576268102  1.0000
  C   C17       1.0  0.9605472030579234  0.10188529833380033  0.15619649692719118  1.0000
  C   C18       1.0  0.9528521672314045  0.9529892151057271  0.14710726896340298  1.0000
  C   C19       1.0  0.919872753602551  0.8722695295257052  0.2633039605033074  1.0000
  C   C20       1.0  0.8921050987444542  0.9391734335053397  0.3855556426377247  1.0000
  C   C21       1.0  0.9853510053765087  0.8783847324180233  0.019992837628603828  1.0000
  F   F1        1.0  0.9847172316415645  0.9717053560167017  0.8965410268905253  1.0000
  F   F2        1.0  0.9439740524096212  0.7599256673519728  0.9931820079768668  1.0000
  F   F3        1.0  0.058626138614625616  0.8322877734279526  0.05003041372293016  1.0000
  H   H9        1.0  0.7701515371503151  0.1833590724065448  0.6511734857714337  1.0000
  H   H10       1.0  0.9369872202382  0.2862903650786057  0.2769241035035399  1.0000
  H   H11       1.0  0.9879399974879634  0.1660058644283462  0.0702350294204781  1.0000
  H   H12       1.0  0.9174720171564025  0.755923099385868  0.2601016451464091  1.0000
  H   H13       1.0  0.8570596157489985  0.8150492241706508  0.7351537856853891  1.0000
  C   C22       1.0  0.8943743424884888  0.5107575885042313  0.9645119787607301  1.0000
  C   C23       1.0  0.9634087917203203  0.5042426214024655  0.03702456021368982  1.0000
  C   C24       1.0  0.031169394826097145  0.5112107835750345  0.9604701386202765  1.0000
  C   C25       1.0  0.03161654410905078  0.5249939560810031  0.8087628332544781  1.0000
  C   C26       1.0  0.9630528318254249  0.5290502096347931  0.7354458359887679  1.0000
  C   C27       1.0  0.894257741738297  0.5197646020938327  0.8109583372054816  1.0000
  N   N3        1.0  0.1006385945798447  0.5335571518134627  0.7268060545379527  1.0000
  C   C28       1.0  0.1748341405121705  0.5298070989212678  0.792605869191473  1.0000
  H   H14       1.0  0.7761243405752475  0.44768162183739335  0.25260687171920715  1.0000
  H   H15       1.0  0.08295275571127968  0.5071468171939331  0.02076929478550382  1.0000
  H   H16       1.0  0.7197129247874244  0.416866876432876  0.7188468153358363  1.0000
  H   H17       1.0  0.09815042824905706  0.5432531881369456  0.6139200555500794  1.0000
  H   H18       1.0  0.17922821246907383  0.6221531650427865  0.8615202240662749  1.0000
  H   H19       1.0  0.1845387815321599  0.4261335272304638  0.8585436480589581  1.0000
  H   H20       1.0  0.21881622693345484  0.5383935195538052  0.7069543509470715  1.0000
  Zn  Zn1       1.0  0.8119740915821184  0.5196133606262323  0.38905512340622783  1.0000
  Zn  Zn2       1.0  0.9766507833555952  0.51090848266826  0.3864146585260233  1.0000
  C   C29       1.0  0.8943080841395452  0.5123112500529952  0.6509914536276651  1.0000
  C   C30       1.0  0.8943185795431522  0.5182123211285299  0.12447843156143823  1.0000
  C   C31       1.0  0.8929378374636909  0.7788555982423597  0.38063650740289856  1.0000
  C   C32       1.0  0.8956887790616141  0.2516662423431022  0.39483346444193645  1.0000
  O   O1        1.0  0.9567938441446183  0.5174044438150804  0.17716262415225592  1.0000
  O   O2        1.0  0.9568186239719658  0.5065112329696426  0.5963028000135242  1.0000
  O   O3        1.0  0.9557112897973248  0.7217492255244013  0.37798927392167925  1.0000
  O   O4        1.0  0.9579011220872875  0.30216646340755626  0.39547604303072825  1.0000
  O   O5        1.0  0.8307236966543455  0.7283553828589743  0.37999373979499507  1.0000
  O   O6        1.0  0.8318310217902991  0.5131191238723174  0.5983071801245814  1.0000
  O   O7        1.0  0.8318062425140321  0.5240122659717779  0.17916527176071173  1.0000
  O   O8        1.0  0.8329135204925932  0.30877427638905786  0.39747879874602954  1.0000
