data_image0
_chemical_formula_structural       NC6NC2H4C6NH5C9H9Zn2C4O8
_chemical_formula_sum              "N3 C27 H18 Zn2 O8"
_cell_length_a       14.927258858638513
_cell_length_b       9.274771166103582
_cell_length_c       10.297187173949778
_cell_angle_alpha    85.46307945309522
_cell_angle_beta     89.97408174876965
_cell_angle_gamma    90.59705168739299

_space_group_name_H-M_alt    "P 1"
_space_group_IT_number       1

loop_
  _space_group_symop_operation_xyz
  'x, y, z'

loop_
  _atom_site_type_symbol
  _atom_site_label
  _atom_site_symmetry_multiplicity
  _atom_site_fract_x
  _atom_site_fract_y
  _atom_site_fract_z
  _atom_site_occupancy
  N   N1        1.0  0.8542361802754647  0.5784640006697249  0.5645722617060125  1.0000
  C   C1        1.0  0.7767096889201782  0.5784639721537623  0.5645722712944159  1.0000
  C   C2        1.0  0.6802771821353304  0.5784640872764844  0.5645722261761363  1.0000
  C   C3        1.0  0.6331068889573543  0.5547513884764246  0.4504554718818492  1.0000
  C   C4        1.0  0.539395577817271  0.5547514141026801  0.4504553515813903  1.0000
  C   C5        1.0  0.4924611169884669  0.5784639096814677  0.5645722432554396  1.0000
  C   C6        1.0  0.39602854321210423  0.5784640248071544  0.564572198131817  1.0000
  N   N2        1.0  0.3185020518568179  0.5784639962911915  0.5645722077202204  1.0000
  C   C7        1.0  0.5396313431749282  0.602176608484492  0.6786889975443836  1.0000
  C   C8        1.0  0.6333426543150119  0.6021765828582364  0.6786891178448424  1.0000
  H   H1        1.0  0.6687113385111094  0.536301571851696  0.36166608752605645  1.0000
  H   H2        1.0  0.5036076842807908  0.536301769441284  0.3616660827534255  1.0000
  H   H3        1.0  0.5040269605118803  0.620626414802246  0.7674784793119496  1.0000
  H   H4        1.0  0.669130548448803  0.620626324887938  0.7674784856587311  1.0000
  C   C9        1.0  0.08362286660359214  0.15486753410624687  0.56528027276711  1.0000
  C   C10       1.0  0.06304448065641499  0.23816040607615796  0.4491180733508866  1.0000
  C   C11       1.0  0.05083043963759937  0.17309503975839657  0.33221887449032206  1.0000
  C   C12       1.0  0.05924201161860479  0.02335921271211184  0.3306351632171616  1.0000
  C   C13       1.0  0.0781643319102215  0.9387466945805137  0.44520163374728106  1.0000
  C   C14       1.0  0.0891238916562529  0.0020493805766421736  0.5638754954931693  1.0000
  N   N3        1.0  0.03080284767632647  0.25948723514604355  0.21477998513413277  1.0000
  H   H5        1.0  0.18435400841112926  0.23456670931653092  0.8495649084078867  1.0000
  H   H6        1.0  0.05026853631746533  0.971859694532801  0.24069302365177458  1.0000
  H   H7        1.0  0.15333885089614396  0.705009506622772  0.7572897040472353  1.0000
  H   H8        1.0  0.024630634920928433  0.3715611308938407  0.21473779509965585  1.0000
  H   H9        1.0  0.021913046482127784  0.21200521673546935  0.12697407840810881  1.0000
  C   C15       1.0  0.08649146598641066  0.5784062966374702  0.1831248035605666  1.0000
  C   C16       1.0  0.9959631999156755  0.618026937154051  0.17957720135378064  1.0000
  C   C17       1.0  0.949582899392879  0.638325517169081  0.06114325680981691  1.0000
  C   C18       1.0  0.9956122642769645  0.6181799728872878  0.944354222533009  1.0000
  C   C19       1.0  0.08625528773583473  0.5785106085986906  0.9460309402985468  1.0000
  C   C20       1.0  0.1311029469136718  0.5588814048813405  0.06580477833833842  1.0000
  C   C21       1.0  0.8516700527706531  0.6811777765034527  0.06673844195177958  1.0000
  C   C22       1.0  0.7885761064786936  0.6231584361369005  0.9665628102427095  1.0000
  C   C23       1.0  0.8162483299346905  0.7822974631797621  0.9551994221196121  1.0000
  H   H10       1.0  0.9610143936051103  0.6333230395926053  0.2696299898726955  1.0000
  H   H11       1.0  0.961633219743653  0.6330479264291731  0.8517224708185727  1.0000
  H   H12       1.0  0.20094722525139996  0.5283125308752294  0.06781448191001327  1.0000
  H   H13       1.0  0.25745091805992154  0.5035678914131623  0.741982670056279  1.0000
  H   H14       1.0  0.8201994075160418  0.6949524369523554  0.16279288542821835  1.0000
  H   H15       1.0  0.8184916989865154  0.5580511913830892  0.8921457871480895  1.0000
  H   H16       1.0  0.7188237557362237  0.6036403936733862  0.0017137593968039612  1.0000
  H   H17       1.0  0.8629737232524556  0.8138582951444978  0.8738806907907238  1.0000
  H   H18       1.0  0.7626683791574387  0.8557896097058297  0.9837065534325647  1.0000
  Zn  Zn1       1.0  0.9882132626769086  0.5784601351902925  0.5645797583093168  1.0000
  Zn  Zn2       1.0  0.1845249003178  0.5784560478084737  0.5645753863346272  1.0000
  C   C24       1.0  0.086260609330509  0.5727443279079567  0.8018348707965847  1.0000
  C   C25       1.0  0.0864797091599008  0.5841736751213185  0.3273203982761579  1.0000
  C   C26       1.0  0.08808106132937368  0.8419132398430367  0.5589646923088392  1.0000
  C   C27       1.0  0.08465917889880653  0.3150030301281326  0.5701906488930948  1.0000
  O   O1        1.0  0.16097496599659533  0.5861014157985749  0.3757121083993822  1.0000
  O   O2        1.0  0.16076133617088273  0.570812396747902  0.7534394703216745  1.0000
  O   O3        1.0  0.16223036947913325  0.7881696974465169  0.5573200803812717  1.0000
  O   O4        1.0  0.1595058657976376  0.36874412540693546  0.5718314009280114  1.0000
  O   O5        1.0  0.013232230205556084  0.7881720575947957  0.5573237437105893  1.0000
  O   O6        1.0  0.011763208168020352  0.5708164899572503  0.7534430615164578  1.0000
  O   O7        1.0  0.011976838210413952  0.5861054585274565  0.3757141379322961  1.0000
  O   O8        1.0  0.010507737910648192  0.3687481578318059  0.5718335278673559  1.0000
