data_image0
_chemical_formula_structural       NC9NC3NH7C6NO2H5C6SCNH5Zn2C4O8
_chemical_formula_sum              "N5 C29 H17 O10 S1 Zn2"
_cell_length_a       16.053384444249904
_cell_length_b       9.273392599741053
_cell_length_c       10.302218930750287
_cell_angle_alpha    85.67519561885129
_cell_angle_beta     89.81672032337951
_cell_angle_gamma    88.5803697124526

_space_group_name_H-M_alt    "P 1"
_space_group_IT_number       1

loop_
  _space_group_symop_operation_xyz
  'x, y, z'

loop_
  _atom_site_type_symbol
  _atom_site_label
  _atom_site_symmetry_multiplicity
  _atom_site_fract_x
  _atom_site_fract_y
  _atom_site_fract_z
  _atom_site_occupancy
  N   N1        1.0  0.7748084229143525  0.5596349940187376  0.5679713515604284  1.0000
  C   C1        1.0  0.7241804804375935  0.536531855077568  0.4930988167482594  1.0000
  C   C2        1.0  0.6612637635027151  0.5078259507820004  0.4000888642800499  1.0000
  C   C3        1.0  0.6749413066780878  0.4944338803890056  0.26936532237557276  1.0000
  C   C4        1.0  0.5984778289563957  0.46631196000018726  0.21707078358663745  1.0000
  C   C5        1.0  0.5414111724109841  0.46411222674427943  0.3187101650131405  1.0000
  C   C6        1.0  0.4509158970491792  0.4376554465694151  0.3084141868618884  1.0000
  C   C7        1.0  0.3947498395093091  0.4850804540414759  0.40238854861309575  1.0000
  C   C8        1.0  0.3093503382395271  0.4599886813493947  0.3925274361339086  1.0000
  C   C9        1.0  0.2523929498967997  0.5093513012932609  0.4888768611255947  1.0000
  N   N2        1.0  0.20661591207346156  0.5490318870488341  0.5663267116267747  1.0000
  C   C10       1.0  0.2793916129604572  0.3873475173529137  0.288705423783735  1.0000
  C   C11       1.0  0.334548354188856  0.3400553292077466  0.19494293374107508  1.0000
  C   C12       1.0  0.4197429328350747  0.36496309798286775  0.2044072106320198  1.0000
  N   N3        1.0  0.5804639209763705  0.4896081777851151  0.4302845553413024  1.0000
  H   H1        1.0  0.7336102614527829  0.5040338726145919  0.21778238471543676  1.0000
  H   H2        1.0  0.5862936320063807  0.4510313481127663  0.11589321019494812  1.0000
  H   H3        1.0  0.4167303365104841  0.5433328245079303  0.48227949749542454  1.0000
  H   H4        1.0  0.21348776928301735  0.3673932635738755  0.28023598446387865  1.0000
  H   H5        1.0  0.31126654504050605  0.2836265134427906  0.11482178142932084  1.0000
  H   H6        1.0  0.4610870308760803  0.3256076729406474  0.13110220287352803  1.0000
  H   H7        1.0  0.5542984846372955  0.49222187649819804  0.5230233907470614  1.0000
  C   C13       1.0  0.9932559182282739  0.13074247603484124  0.5663228918862724  1.0000
  C   C14       1.0  0.982621130900371  0.2143591079380804  0.44776200380822573  1.0000
  C   C15       1.0  0.9646342286541202  0.14971378843154534  0.3335326414008359  1.0000
  C   C16       1.0  0.9566867900481588  0.9994928137555816  0.33467824242731614  1.0000
  C   C17       1.0  0.9686210757576255  0.9146759736527077  0.4523288089174995  1.0000
  C   C18       1.0  0.9881764419176815  0.9779131155247469  0.5679863001516778  1.0000
  N   N4        1.0  0.9374025863294926  0.9334622165692903  0.21664677651107045  1.0000
  O   O1        1.0  0.9264462869073748  0.016838208684226256  0.10142274120908112  1.0000
  O   O2        1.0  0.9300654007324586  0.7997091150735801  0.21688199689689822  1.0000
  H   H8        1.0  0.9763532659059239  0.20761357443911518  0.8850442160179328  1.0000
  H   H9        1.0  0.9862627786149695  0.3311123542990706  0.4439121854715382  1.0000
  H   H10       1.0  0.9561023651152272  0.21784731162275148  0.2443310688119113  1.0000
  H   H11       1.0  0.9645967935119096  0.7981725709202546  0.45326832995437627  1.0000
  H   H12       1.0  0.9796348295948881  0.6800215519541081  0.7833801702634079  1.0000
  C   C19       1.0  0.990638088046003  0.554397282878802  0.18587987079833554  1.0000
  C   C20       1.0  0.0695152330276847  0.48525981578215854  0.18922770183112744  1.0000
  C   C21       1.0  0.10873008945647089  0.45040447763856095  0.07391558479037075  1.0000
  C   C22       1.0  0.06971946395853122  0.4850761771423795  0.9540723304178597  1.0000
  C   C23       1.0  0.9907942551252878  0.5542583291103866  0.9484293445689045  1.0000
  C   C24       1.0  0.9516731283686608  0.588486609408958  0.06489936521326767  1.0000
  S   S1        1.0  0.20955701650141823  0.36270734941873806  0.0796281761093942  1.0000
  C   C25       1.0  0.1670291259824761  0.18850847166514417  0.09171282265388636  1.0000
  N   N5        1.0  0.13912325932634984  0.07431368646476001  0.0996354316751784  1.0000
  H   H13       1.0  0.9606305426493597  0.5807764713923531  0.5119359703162831  1.0000
  H   H14       1.0  0.10076974184735232  0.45795182697910874  0.281128987971915  1.0000
  H   H15       1.0  0.10111395870486128  0.457642247640752  0.8657056250791104  1.0000
  H   H16       1.0  0.890838139737841  0.6417883829683733  0.06147062032819273  1.0000
  H   H17       1.0  0.8420675196193578  0.6847975025920804  0.7305656457322791  1.0000
  Zn  Zn1       1.0  0.8994187590609163  0.5565713180421135  0.5675042274359314  1.0000
  Zn  Zn2       1.0  0.08200562510196363  0.5520838093179281  0.5668044243034114  1.0000
  C   C26       1.0  0.9907973428646877  0.5485381857258482  0.8042798928579241  1.0000
  C   C27       1.0  0.9906290242546071  0.5601187126413105  0.3300288822482353  1.0000
  C   C28       1.0  0.9891312208448925  0.8177809066294391  0.5624980255683  1.0000
  C   C29       1.0  0.9922950943754688  0.2908742602101934  0.5718108155953163  1.0000
  O   O3        1.0  0.05991678419823532  0.5603295975567759  0.378141023310131  1.0000
  O   O4        1.0  0.06008879592174865  0.5449202974015543  0.7556362415203912  1.0000
  O   O5        1.0  0.058742447523642216  0.7623372222812277  0.5603956795622753  1.0000
  O   O6        1.0  0.06126307021000432  0.34291268454488066  0.5733814881766817  1.0000
  O   O7        1.0  0.9201612516449283  0.7657424443480995  0.5609271637946434  1.0000
  O   O8        1.0  0.9215075896340214  0.5483272525288903  0.7561676599272851  1.0000
  O   O9        1.0  0.9213355779475915  0.5637365027008491  0.378670880603002  1.0000
  O   O10       1.0  0.9226818640377511  0.34631957935411384  0.5739114427931005  1.0000
