data_image0
_chemical_formula_structural       NC8NC6H8C6SCOC6H9C7OC3FC3H8Zn2C4O8
_chemical_formula_sum              "N2 C44 H25 S1 O10 F1 Zn2"
_cell_length_a       17.457602349358154
_cell_length_b       10.302038109246572
_cell_length_c       10.299381723001552
_cell_angle_alpha    85.58271297890445
_cell_angle_beta     92.85910674266745
_cell_angle_gamma    91.70619204985762

_space_group_name_H-M_alt    "P 1"
_space_group_IT_number       1

loop_
  _space_group_symop_operation_xyz
  'x, y, z'

loop_
  _atom_site_type_symbol
  _atom_site_label
  _atom_site_symmetry_multiplicity
  _atom_site_fract_x
  _atom_site_fract_y
  _atom_site_fract_z
  _atom_site_occupancy
  N   N1        1.0  0.7229342503429452  0.4521400854189659  0.6267248558871041  1.0000
  C   C1        1.0  0.6618493657779315  0.40622294339089937  0.6161030755299055  1.0000
  C   C2        1.0  0.5858571858192405  0.3491077341847885  0.6028991233471912  1.0000
  C   C3        1.0  0.5273235290779953  0.38927929886679813  0.677801045860966  1.0000
  C   C4        1.0  0.45276973137909904  0.33428201185240825  0.6652118090671906  1.0000
  C   C5        1.0  0.3906448570959125  0.37669732865581645  0.7445357684369316  1.0000
  C   C6        1.0  0.3161111512446806  0.3951471394269567  0.6887756568333412  1.0000
  C   C7        1.0  0.2575774383488423  0.4351348494335893  0.7637855063619781  1.0000
  C   C8        1.0  0.1816060676249279  0.45418980468769965  0.7058100514608159  1.0000
  N   N2        1.0  0.12053800082931852  0.4695036105521257  0.659197935900717  1.0000
  C   C9        1.0  0.2730852288365438  0.4569159630069795  0.895064009902523  1.0000
  C   C10       1.0  0.34683423916528444  0.43885514661362457  0.9512117661435514  1.0000
  C   C11       1.0  0.40535630395799316  0.39904756561919197  0.8766596549963748  1.0000
  C   C12       1.0  0.43803834977523765  0.23843553360654246  0.5762876612039305  1.0000
  C   C13       1.0  0.49656027374476647  0.1985426856919865  0.5017857733753235  1.0000
  C   C14       1.0  0.5703292340962526  0.2536524624736706  0.5149249663836373  1.0000
  H   H1        1.0  0.5396706141780863  0.46447300098339506  0.7444408832539753  1.0000
  H   H2        1.0  0.3037805691726176  0.3801543049104319  0.5867507833114021  1.0000
  H   H3        1.0  0.22822018027105115  0.4878065162659863  0.9539030893748854  1.0000
  H   H4        1.0  0.35865147012860343  0.455405180314711  0.052863596306164336  1.0000
  H   H5        1.0  0.4618312574448449  0.3840710599798097  0.9227633355121551  1.0000
  H   H6        1.0  0.38154686167906915  0.19310791199687238  0.5656298444822458  1.0000
  H   H7        1.0  0.4847274139760222  0.12446487666466674  0.433947785341507  1.0000
  H   H8        1.0  0.6151940743720699  0.22189254615610005  0.4565968857586209  1.0000
  C   C15       1.0  0.9216671354393473  0.07954037150092531  0.6429156029358427  1.0000
  C   C16       1.0  0.856094254337376  0.08142561450869577  0.5580411911909211  1.0000
  C   C17       1.0  0.8238288700259653  0.9654207597203194  0.5153567727915336  1.0000
  C   C18       1.0  0.8563410274397164  0.8463037787546347  0.5580073399072862  1.0000
  C   C19       1.0  0.9218124699062924  0.8420936397142339  0.6430190463516734  1.0000
  C   C20       1.0  0.9541773809560468  0.9593519645584293  0.6849507088657274  1.0000
  S   S1        1.0  0.7405958361355545  0.9692941347432968  0.40595068936288503  1.0000
  C   C21       1.0  0.7970251060348178  0.9802147181814969  0.26413855615063886  1.0000
  O   O1        1.0  0.8155316426170697  0.8757430823251702  0.21930033880004163  1.0000
  C   C22       1.0  0.8223384439241892  0.10746925812584804  0.2007089070002348  1.0000
  C   C23       1.0  0.8765979385797127  0.11215158030604089  0.10363465109132086  1.0000
  C   C24       1.0  0.901265446656975  0.2315488977296365  0.04392668486743933  1.0000
  C   C25       1.0  0.8720886963213215  0.34752169103454467  0.08004472823631348  1.0000
  C   C26       1.0  0.8180601579058113  0.34432168513750416  0.1757848133634421  1.0000
  C   C27       1.0  0.7931368754243538  0.22521691912075248  0.2357920600576351  1.0000
  H   H9        1.0  0.04517545579592941  0.2832870992158855  0.8030554224726052  1.0000
  H   H10       1.0  0.8299978907324759  0.17279989652146008  0.5246342971908882  1.0000
  H   H11       1.0  0.83049190925412  0.7574151972179669  0.5241321117082312  1.0000
  H   H12       1.0  0.004729783436350441  0.9569782743370556  0.7503799015122457  1.0000
  H   H13       1.0  0.9003357660679177  0.023615579668561974  0.07427603674596472  1.0000
  H   H14       1.0  0.9431287023724773  0.23411036267795415  0.9696487460499313  1.0000
  H   H15       1.0  0.8912733956506109  0.4398514833736238  0.033737669578671754  1.0000
  H   H16       1.0  0.7953281101520319  0.43428403888513983  0.20346493154436263  1.0000
  H   H17       1.0  0.7508243943275134  0.2260232506530446  0.3089009806780312  1.0000
  C   C28       1.0  0.9218043566716724  0.460718703063827  0.2616049039839785  1.0000
  C   C29       1.0  0.9460581717697744  0.3313546352349248  0.2724313453689853  1.0000
  C   C30       1.0  0.9591246980813364  0.26659950117238274  0.16075126604220813  1.0000
  C   C31       1.0  0.9459848492219  0.331644497161693  0.03715934213691674  1.0000
  C   C32       1.0  0.9216751956830296  0.4609152598337465  0.024329734984153802  1.0000
  C   C33       1.0  0.909919018265097  0.5248167040888669  0.1371694130594756  1.0000
  C   C34       1.0  0.9839584645732762  0.12954862693859523  0.1720081996613554  1.0000
  O   O2        1.0  0.9603146216823898  0.05528951917104541  0.08588711197497845  1.0000
  C   C35       1.0  0.03562022328533887  0.07674479058023098  0.2808661222581208  1.0000
  C   C36       1.0  0.02941464106996805  0.9445445268423038  0.3256166101028799  1.0000
  C   C37       1.0  0.07846319952677949  0.8934921014245556  0.42717258596396945  1.0000
  F   F1        1.0  0.0716451994718237  0.7661575963622933  0.470269294671978  1.0000
  C   C38       1.0  0.13451055318682825  0.9735447109304576  0.48422732468992136  1.0000
  C   C39       1.0  0.14182074518326834  0.10458805393485225  0.43950184939773895  1.0000
  C   C40       1.0  0.09292440113936423  0.1560587983824666  0.3380293304711415  1.0000
  H   H18       1.0  0.874907326100995  0.7041820929529694  0.44844959186556155  1.0000
  H   H19       1.0  0.9539968007936842  0.28032314856471835  0.36787913068052713  1.0000
  H   H20       1.0  0.9554843945393249  0.28152196113074535  0.9509033151805086  1.0000
  H   H21       1.0  0.8912207739864025  0.6245464438806962  0.1280189486789145  1.0000
  H   H22       1.0  0.9861835743496409  0.8811550701364248  0.28270551387481  1.0000
  H   H23       1.0  0.17250418023669575  0.9340053411138107  0.5627420766944171  1.0000
  H   H24       1.0  0.18565348055003006  0.16625646649661147  0.483100799298221  1.0000
  H   H25       1.0  0.10048660205510185  0.2573237878052075  0.30339834422527834  1.0000
  Zn  Zn1       1.0  0.8376741021188497  0.4571473437270255  0.6361033831902438  1.0000
  Zn  Zn2       1.0  0.005798130974835841  0.46448570960197955  0.6498300394998933  1.0000
  C   C41       1.0  0.9216969331205166  0.45570556628714554  0.8801575528419753  1.0000
  C   C42       1.0  0.921777136172931  0.46592920545393784  0.4057761474292682  1.0000
  C   C43       1.0  0.9217819043831039  0.6979533235126706  0.6378240635258143  1.0000
  C   C44       1.0  0.9216921072323861  0.22367988579676695  0.6481097010873769  1.0000
  O   O3        1.0  0.9855701924106111  0.4704571048154071  0.4593705275143365  1.0000
  O   O4        1.0  0.9855061245359527  0.456746337231941  0.836981013310235  1.0000
  O   O5        1.0  0.9855738795923995  0.6523644276392364  0.6412949360974292  1.0000
  O   O6        1.0  0.9855023800030775  0.27483902116702197  0.6550565026714184  1.0000
  O   O7        1.0  0.8579697957181298  0.6467940296591705  0.6308769153276537  1.0000
  O   O8        1.0  0.8579020409671614  0.45117749918070893  0.8265629235074476  1.0000
  O   O9        1.0  0.8579661091485752  0.4648882211183514  0.44895087633554187  1.0000
  O   O10       1.0  0.85789829671965  0.26927012820824325  0.6446369488572834  1.0000
