data_image0
_chemical_formula_structural       NC8NC6H8C6NO2H5C6NO2H2Zn2C4O8
_chemical_formula_sum              "N4 C30 H15 O12 Zn2"
_cell_length_a       17.457602349358154
_cell_length_b       9.273392599741051
_cell_length_c       9.273395971720358
_cell_angle_alpha    85.0859035794884
_cell_angle_beta     92.78021970675468
_cell_angle_gamma    91.0881455882028

_space_group_name_H-M_alt    "P 1"
_space_group_IT_number       1

loop_
  _space_group_symop_operation_xyz
  'x, y, z'

loop_
  _atom_site_type_symbol
  _atom_site_label
  _atom_site_symmetry_multiplicity
  _atom_site_fract_x
  _atom_site_fract_y
  _atom_site_fract_z
  _atom_site_occupancy
  N   N1        1.0  0.7149989074234375  0.6290017122514244  0.47603848944781  1.0000
  C   C1        1.0  0.6542140859344301  0.578138277647289  0.4641546816049234  1.0000
  C   C2        1.0  0.5785951396172205  0.5148703978814901  0.44938184101206186  1.0000
  C   C3        1.0  0.5197393059691124  0.5585849472933992  0.5327042040533945  1.0000
  C   C4        1.0  0.44554478806862696  0.4976616449445222  0.5186182051815007  1.0000
  C   C5        1.0  0.3830795251057927  0.5438149864686352  0.6068595124835408  1.0000
  C   C6        1.0  0.30847983724806355  0.5649699066931477  0.5449125453192478  1.0000
  C   C7        1.0  0.249625012098508  0.6084789974418152  0.6283545601897782  1.0000
  C   C8        1.0  0.1735858465931509  0.6303324084005266  0.563946230653964  1.0000
  N   N2        1.0  0.11246331299556461  0.6478954661477263  0.5121620898621715  1.0000
  C   C9        1.0  0.264875671689245  0.6310971746915264  0.7743092048695734  1.0000
  C   C10       1.0  0.3386878513204925  0.6103695935111653  0.8366877013690142  1.0000
  C   C11       1.0  0.39752947289990387  0.5670550613897016  0.753754773220872  1.0000
  C   C12       1.0  0.43150045190036757  0.3922884291226496  0.41961591233943807  1.0000
  C   C13       1.0  0.4903424262602263  0.34887860869669973  0.3367386640840331  1.0000
  C   C14       1.0  0.563750895276242  0.40992025462544496  0.35143613682260644  1.0000
  H   H1        1.0  0.5315502285545834  0.6412899260222982  0.6069022980390923  1.0000
  H   H2        1.0  0.2963368521697862  0.5495402922450394  0.4314851768154624  1.0000
  H   H3        1.0  0.2197617506936804  0.6646973120567138  0.8397618221404748  1.0000
  H   H4        1.0  0.3503079759561112  0.6275329183796658  0.9497030571489611  1.0000
  H   H5        1.0  0.4540572222587976  0.5498726499197397  0.8049743511842664  1.0000
  H   H6        1.0  0.37530533120932225  0.34208008052433847  0.40769304527407546  1.0000
  H   H7        1.0  0.4790397610214635  0.26742713984773436  0.26121069395852237  1.0000
  H   H8        1.0  0.608869641628331  0.3753485910954115  0.2865500334365205  1.0000
  C   C15       1.0  0.9160735880247071  0.2150407438072639  0.4934054117050444  1.0000
  C   C16       1.0  0.9064351304444623  0.2992952547492469  0.3606604371939244  1.0000
  C   C17       1.0  0.890023834582936  0.23473608503902635  0.2320848579981214  1.0000
  C   C18       1.0  0.8827070666184813  0.08395939018941558  0.23265997244036574  1.0000
  C   C19       1.0  0.8935428181358572  0.9986038548658078  0.3645071097616974  1.0000
  C   C20       1.0  0.9113960128610097  0.061845491446862265  0.49480826771954817  1.0000
  N   N3        1.0  0.865106479249772  0.017970118762334227  0.09974337683055534  1.0000
  O   O1        1.0  0.8551678474463994  0.10192365571214146  0.9706798960571229  1.0000
  O   O2        1.0  0.8583525812172028  0.883713429409135  0.09936000986710547  1.0000
  H   H9        1.0  0.9001108708616465  0.2870915224724495  0.846258797623701  1.0000
  H   H10       1.0  0.90979201386232  0.41634138939203247  0.3567004636292632  1.0000
  H   H11       1.0  0.8822837799886737  0.30331330841404824  0.13216498126909326  1.0000
  H   H12       1.0  0.8898374275098894  0.8818149217026494  0.36519792511979277  1.0000
  H   H13       1.0  0.9032604408938911  0.7608930214594685  0.7335220405806084  1.0000
  C   C21       1.0  0.9141467728233656  0.6428933017932905  0.07021714569071147  1.0000
  C   C22       1.0  0.8456090982111724  0.6725536865871093  0.13464583161943344  1.0000
  C   C23       1.0  0.7769320594254226  0.6885704244365949  0.052016298163827246  1.0000
  C   C24       1.0  0.7748452238785285  0.675221480877693  0.9025034031705021  1.0000
  C   C25       1.0  0.8433282674730629  0.6480297218590141  0.8366374073802829  1.0000
  C   C26       1.0  0.9133228056174357  0.6339929612087603  0.9179965848009249  1.0000
  N   N4        1.0  0.7036436965434453  0.6906375874225701  0.817935309494731  1.0000
  O   O3        1.0  0.6368229721194668  0.7184559710227847  0.882703783117449  1.0000
  O   O4        1.0  0.7012668674594384  0.6786390982544237  0.6846980984671869  1.0000
  H   H14       1.0  0.08285820112324793  0.48934282178788346  0.201623769763968  1.0000
  H   H15       1.0  0.725185254558961  0.7100251580398904  0.1057478762682198  1.0000
  Zn  Zn1       1.0  0.829698562458257  0.6344500873918647  0.4864713083205336  1.0000
  Zn  Zn2       1.0  0.9977636975248754  0.6424351453878165  0.5017410694078819  1.0000
  C   C27       1.0  0.913508586063961  0.6299312560578687  0.7577384291147204  1.0000
  C   C28       1.0  0.9139554989983703  0.6469558816787209  0.23047426005127256  1.0000
  C   C29       1.0  0.9122818152950647  0.9018415965672775  0.48879058563953054  1.0000
  C   C30       1.0  0.9151822219124479  0.37504380533894377  0.4994221724044965  1.0000
  O   O5        1.0  0.9776711833806271  0.6513433182085664  0.290052795930108  1.0000
  O   O6        1.0  0.9773504568469407  0.6316032104285021  0.7097488712528921  1.0000
  O   O7        1.0  0.976358962694886  0.8511741925582156  0.492571509162037  1.0000
  O   O8        1.0  0.9786626202316504  0.4317723448046527  0.5072300445960414  1.0000
  O   O9        1.0  0.8487995823990981  0.8451128852517693  0.4809823279139642  1.0000
  O   O10       1.0  0.8497910670535882  0.6255436362291655  0.6981596159083743  1.0000
  O   O11       1.0  0.8501117956025254  0.6452837119869139  0.2784618050176544  1.0000
  O   O12       1.0  0.8511032324021962  0.42571272713394154  0.4956391618900991  1.0000
