data_image0
_chemical_formula_structural       NC8NC6H8C8NH5C6NO2H3Zn2C4O8
_chemical_formula_sum              "N4 C32 H16 O10 Zn2"
_cell_length_a       17.457602349358154
_cell_length_b       9.274263428431858
_cell_length_c       9.273395971720358
_cell_angle_alpha    84.92461197253164
_cell_angle_beta     92.78021970675468
_cell_angle_gamma    92.30649601595262

_space_group_name_H-M_alt    "P 1"
_space_group_IT_number       1

loop_
  _space_group_symop_operation_xyz
  'x, y, z'

loop_
  _atom_site_type_symbol
  _atom_site_label
  _atom_site_symmetry_multiplicity
  _atom_site_fract_x
  _atom_site_fract_y
  _atom_site_fract_z
  _atom_site_occupancy
  N   N1        1.0  0.7333407818473235  0.6301332804859407  0.4730313533614947  1.0000
  C   C1        1.0  0.6719832594684028  0.5792345141528923  0.46124143938533746  1.0000
  C   C2        1.0  0.5956519434237691  0.5159226860459283  0.4465853912567917  1.0000
  C   C3        1.0  0.5372883172238057  0.5596676012917887  0.5298270572687447  1.0000
  C   C4        1.0  0.46240782855191576  0.4987019792368237  0.5158535227728016  1.0000
  C   C5        1.0  0.4004622328111053  0.5448873806751731  0.604009631036831  1.0000
  C   C6        1.0  0.3261007404612676  0.5660569959337973  0.5420236119037576  1.0000
  C   C7        1.0  0.2677358093816862  0.6095963097968013  0.6253853090214647  1.0000
  C   C8        1.0  0.19194270409623154  0.6314649009885791  0.5609366381034357  1.0000
  N   N2        1.0  0.1310179231451132  0.6490401587218795  0.5091200759186263  1.0000
  C   C9        1.0  0.2832411401392431  0.6322301985161238  0.7712982005609761  1.0000
  C   C10       1.0  0.3568199359205773  0.6114882191480469  0.8337149601616034  1.0000
  C   C11       1.0  0.4151738540783617  0.5681435990602706  0.7508619906111873  1.0000
  C   C12       1.0  0.4471770342739381  0.39325556706230386  0.4170457488176409  1.0000
  C   C13       1.0  0.505530232305922  0.34981559247906224  0.3342486350621088  1.0000
  C   C14       1.0  0.5796260045922973  0.4108996403199699  0.34883342496256153  1.0000
  H   H1        1.0  0.5500304630993852  0.6424300301302011  0.6038724779182618  1.0000
  H   H2        1.0  0.3137840244111394  0.5506166634726579  0.4286247264580658  1.0000
  H   H3        1.0  0.23850554256442322  0.6658536758494842  0.8366887920004642  1.0000
  H   H4        1.0  0.3686333123785033  0.6286634663325734  0.9466986324551643  1.0000
  H   H5        1.0  0.47150813670783986  0.5509492520159838  0.8021132872948211  1.0000
  H   H6        1.0  0.39041658868599727  0.3430123417834132  0.40521556633067335  1.0000
  H   H7        1.0  0.4933104577713046  0.2683075442575207  0.2588710242943679  1.0000
  H   H8        1.0  0.6243554885474697  0.3763039619617319  0.28401114084454804  1.0000
  C   C15       1.0  0.9297544359791368  0.21588475857962133  0.49116244729342556  1.0000
  C   C16       1.0  0.9199813219787606  0.3001599956934602  0.35833834859871905  1.0000
  C   C17       1.0  0.9177331882443756  0.23650944989355072  0.22739145722348186  1.0000
  C   C18       1.0  0.9258263320719916  0.0871337292928096  0.22608632826807964  1.0000
  C   C19       1.0  0.9335410601530516  0.00126528420218164  0.3578386801825977  1.0000
  C   C20       1.0  0.9346115297739142  0.06327780728726128  0.491002153971776  1.0000
  C   C21       1.0  0.922257551673279  0.018449700584081356  0.08490573519341038  1.0000
  C   C22       1.0  0.842676032722941  0.9760654277542851  0.045598640165186  1.0000
  N   N3        1.0  0.7798640262720051  0.94261097863467  0.014583933894338316  1.0000
  H   H9        1.0  0.9956083397526958  0.2938007005589105  0.8299745413571018  1.0000
  H   H10       1.0  0.9157420149777536  0.416602079039133  0.35558918745090673  1.0000
  H   H11       1.0  0.9103962917721301  0.30413507158704567  0.12667903269949532  1.0000
  H   H12       1.0  0.9577039960647395  0.9209612139452865  0.09370926317949513  1.0000
  H   H13       1.0  0.9450176273135222  0.09528457174060834  0.9971306324128921  1.0000
  C   C23       1.0  0.9326450607052662  0.6440345196686481  0.06718436573926545  1.0000
  C   C24       1.0  0.8644413495561927  0.6737155077245773  0.1315582986172219  1.0000
  C   C25       1.0  0.7959446525049587  0.6897433714259482  0.04889919827411049  1.0000
  C   C26       1.0  0.7937075134656816  0.6763851551693065  0.8994109454217899  1.0000
  C   C27       1.0  0.8618843892854776  0.6491745076924296  0.8335951456007842  1.0000
  C   C28       1.0  0.9317208794061869  0.6351279965598111  0.9149802348723264  1.0000
  N   N4        1.0  0.7226795650091377  0.6918119703440977  0.8148143936235059  1.0000
  O   O1        1.0  0.6561720638892438  0.7196496776804264  0.8795315145284471  1.0000
  O   O2        1.0  0.7201676379814373  0.6798051465565936  0.6815993317990521  1.0000
  H   H14       1.0  0.09962757515514764  0.49037737750060395  0.1988744438973291  1.0000
  H   H15       1.0  0.7444394189189869  0.7112130083254424  0.10259117095442294  1.0000
  H   H16       1.0  0.045605307638462156  0.5359640629805209  0.6539400420539594  1.0000
  Zn  Zn1       1.0  0.8481017832956478  0.635585440280622  0.48345411453730325  1.0000
  Zn  Zn2       1.0  0.016256826758265685  0.6435760450098349  0.49870913521285787  1.0000
  C   C29       1.0  0.9318609267603136  0.6310634699898305  0.754729577091152  1.0000
  C   C30       1.0  0.9324995298218128  0.6480999215807923  0.22743398058003716  1.0000
  C   C31       1.0  0.9336957521104824  0.9031626900453094  0.48527978730673565  1.0000
  C   C32       1.0  0.930664637072105  0.37599896448916925  0.49688384244682937  1.0000
  O   O3        1.0  0.9962646148948535  0.6524904057954686  0.28700441725393255  1.0000
  O   O4        1.0  0.9957216230465924  0.6327365857652932  0.706736932802658  1.0000
  O   O5        1.0  0.997202405842477  0.8524600904778441  0.4891542428236222  1.0000
  O   O6        1.0  0.9947837748961865  0.4327669098147784  0.5045869937919394  1.0000
  O   O7        1.0  0.8695747777746808  0.8463945727505279  0.47757625074483867  1.0000
  O   O8        1.0  0.8680940049952888  0.6266728023489698  0.6951588634281156  1.0000
  O   O9        1.0  0.8686369984982427  0.6464265903345858  0.2754246123705677  1.0000
  O   O10       1.0  0.8671561583193118  0.4267030828968838  0.49300729713622055  1.0000
