data_image0
_chemical_formula_structural       NC10NC3NCH9C12NCOCH13C12NH11Zn2C4O8
_chemical_formula_sum              "N5 C44 H33 O9 Zn2"
_cell_length_a       19.437513618241372
_cell_length_b       10.299155265289647
_cell_length_c       10.299774167527174
_cell_angle_alpha    85.56091470143106
_cell_angle_beta     90.34073838346129
_cell_angle_gamma    89.50051482239499

_space_group_name_H-M_alt    "P 1"
_space_group_IT_number       1

loop_
  _space_group_symop_operation_xyz
  'x, y, z'

loop_
  _atom_site_type_symbol
  _atom_site_label
  _atom_site_symmetry_multiplicity
  _atom_site_fract_x
  _atom_site_fract_y
  _atom_site_fract_z
  _atom_site_occupancy
  N   N1        1.0  0.6476480491921279  0.4101692162654196  0.5753962047538335  1.0000
  C   C1        1.0  0.5887113663173968  0.4271797471643408  0.5724167610455455  1.0000
  C   C2        1.0  0.5152667118185017  0.4484328537308879  0.5687184612383026  1.0000
  C   C3        1.0  0.4735248242997309  0.34723308824265664  0.5570808913967807  1.0000
  C   C4        1.0  0.3976329946911257  0.3572968742828661  0.5498577556596035  1.0000
  C   C5        1.0  0.3580412005831326  0.4381663235497122  0.6155804100041331  1.0000
  C   C6        1.0  0.2818608647627132  0.42955550605153237  0.6071384857950181  1.0000
  C   C7        1.0  0.24874925724706964  0.3082034413257184  0.6118070790042232  1.0000
  C   C8        1.0  0.1770159839476678  0.3018295849061199  0.604640673872908  1.0000
  C   C9        1.0  0.1374237801768376  0.41633515830258544  0.5931679902023779  1.0000
  C   C10       1.0  0.0635761042631446  0.4096230597753583  0.5858335720012215  1.0000
  N   N2        1.0  0.004207670731705898  0.4042271227710153  0.5799371580291364  1.0000
  C   C11       1.0  0.16981884128846392  0.5373767995764778  0.5892447050708236  1.0000
  C   C12       1.0  0.24153646763815276  0.5440046789673434  0.5964730756675585  1.0000
  C   C13       1.0  0.3867052791604748  0.5304778494083857  0.7054770263930461  1.0000
  N   N3        1.0  0.44367821633345333  0.5936902082674826  0.6850604963146563  1.0000
  C   C14       1.0  0.4875221622669174  0.5844033639971731  0.5719599124693866  1.0000
  H   H1        1.0  0.4959276302062803  0.25216761824593337  0.5449801372352667  1.0000
  H   H2        1.0  0.372933164444837  0.28776697678659774  0.4915567787202837  1.0000
  H   H3        1.0  0.278217096462028  0.21828784808338764  0.6228462676373077  1.0000
  H   H4        1.0  0.1524408574209646  0.2075977077901778  0.6085474082701082  1.0000
  H   H5        1.0  0.1396658200509312  0.6266379492721499  0.5805176983997025  1.0000
  H   H6        1.0  0.2656299916156818  0.6386493806499418  0.5925507957067601  1.0000
  H   H7        1.0  0.3566970468091935  0.5508834094223107  0.7898356499708219  1.0000
  H   H8        1.0  0.5302609062155487  0.6547219034229759  0.5777083287483646  1.0000
  H   H9        1.0  0.45785064678154175  0.6124941007180422  0.4813124902727664  1.0000
  C   C15       1.0  0.8260079935653846  0.02579935507438402  0.5777864202959173  1.0000
  C   C16       1.0  0.814263712415594  0.035667351630900956  0.4427183028046715  1.0000
  C   C17       1.0  0.8082424888408554  0.9235340366228951  0.37411735530550866  1.0000
  C   C18       1.0  0.8140992263924215  0.8004102598034593  0.4424084383120508  1.0000
  C   C19       1.0  0.8258543449213828  0.7885868656475876  0.5775582803745436  1.0000
  C   C20       1.0  0.831739420490517  0.9017996342972894  0.6444152714353386  1.0000
  C   C21       1.0  0.7958193067999224  0.9349468406008113  0.23123160720422775  1.0000
  C   C22       1.0  0.8307160792657498  0.028459398567707732  0.15026244681370837  1.0000
  C   C23       1.0  0.8190307075809462  0.03906862738927863  0.015797508873875758  1.0000
  C   C24       1.0  0.772642719946716  0.9554878733027599  0.9594589137433895  1.0000
  C   C25       1.0  0.7369055576257368  0.8638055921377968  0.04034921519306091  1.0000
  C   C26       1.0  0.748615989823595  0.852939918557496  0.17477713866431177  1.0000
  N   N4        1.0  0.7587434809867194  0.9659321355597337  0.8217276121403305  1.0000
  C   C27       1.0  0.808985532157688  0.0020110968691535776  0.7241545782440979  1.0000
  O   O1        1.0  0.8721005700640938  0.0034993300278498545  0.7528154291436207  1.0000
  C   C28       1.0  0.7870453390577685  0.02879490425434517  0.5853420860151726  1.0000
  H   H10       1.0  0.8305467023851224  0.34947953131039067  0.6297339737162061  1.0000
  H   H11       1.0  0.8088235411503548  0.13079241934180486  0.39084193094241515  1.0000
  H   H12       1.0  0.8104014746498825  0.7136619422178486  0.38973548636273586  1.0000
  H   H13       1.0  0.8408003461152369  0.8934733385416757  0.7485957171202318  1.0000
  H   H14       1.0  0.8484534985784158  0.5589806177553021  0.8325209726009825  1.0000
  H   H15       1.0  0.8674519132005248  0.0929038256233603  0.19082064501481377  1.0000
  H   H16       1.0  0.8454283931756635  0.11407204446947805  0.9565561962981316  1.0000
  H   H17       1.0  0.7001037506413211  0.8000661359248932  0.9989231835242487  1.0000
  H   H18       1.0  0.7200075050495578  0.7815898649927302  0.23482320189246808  1.0000
  H   H19       1.0  0.7102870861213473  0.9378646823089064  0.7900385784923847  1.0000
  H   H20       1.0  0.7373818479138825  0.08306730765259385  0.5802561726380979  1.0000
  H   H21       1.0  0.7806816577972784  0.9352819910027168  0.5400391981047057  1.0000
  H   H22       1.0  0.8262153719028728  0.08822196701470218  0.5304483757428892  1.0000
  C   C29       1.0  0.8259545890632687  0.40707817353248954  0.1963205994972559  1.0000
  C   C30       1.0  0.7585828927735357  0.35889535175562304  0.19829796677050693  1.0000
  C   C31       1.0  0.7244210085252452  0.33459696279887385  0.08215175370043015  1.0000
  C   C32       1.0  0.7585355796358936  0.3591274587282333  0.962992584586631  1.0000
  C   C33       1.0  0.8259077140162473  0.4073080465391172  0.9590240791910817  1.0000
  C   C34       1.0  0.859239842415525  0.43101410239182286  0.07620255785047925  1.0000
  C   C35       1.0  0.6531456583864756  0.28362289669279095  0.08529704215226719  1.0000
  C   C36       1.0  0.633829739052118  0.18548351250814865  0.18037897708568898  1.0000
  C   C37       1.0  0.5667421728305111  0.13756230318284413  0.18320556083504513  1.0000
  C   C38       1.0  0.5179093171154096  0.1869054503913763  0.0912646570915876  1.0000
  C   C39       1.0  0.5367713071580449  0.2846622093120146  0.9963364214937709  1.0000
  C   C40       1.0  0.6038381938681079  0.3326850327508106  0.9932432642498102  1.0000
  N   N5        1.0  0.449294318539695  0.13783355589864588  0.09429233703490847  1.0000
  H   H23       1.0  0.8516380015664736  0.42538416930380785  0.5230248977555182  1.0000
  H   H24       1.0  0.732172230084888  0.3418310310282988  0.29025248594006864  1.0000
  H   H25       1.0  0.732773465627876  0.3388796839228347  0.8733402052507221  1.0000
  H   H26       1.0  0.9112141538052404  0.46818404167151395  0.07390912508511582  1.0000
  H   H27       1.0  0.8515692132179671  0.42572229102922376  0.6300541442023594  1.0000
  H   H28       1.0  0.6708470264080991  0.14459539138701705  0.2515121729689802  1.0000
  H   H29       1.0  0.5528786479565664  0.0617409637975297  0.25686989908740876  1.0000
  H   H30       1.0  0.4994671399771754  0.32388967556083514  0.924930012725873  1.0000
  H   H31       1.0  0.6168972449008614  0.4093863389678536  0.919900441471937  1.0000
  H   H32       1.0  0.4125333806589502  0.17400528735391196  0.026149081626079207  1.0000
  H   H33       1.0  0.4347489780577237  0.06496907184792633  0.16469998368134342  1.0000
  Zn  Zn1       1.0  0.7505434596069882  0.4084509692132429  0.5767141354392319  1.0000
  Zn  Zn2       1.0  0.9013122680207175  0.4059347026553457  0.5786298999273931  1.0000
  C   C41       1.0  0.8259160905676963  0.4020905111956683  0.8148583480007023  1.0000
  C   C42       1.0  0.8259412831127336  0.4122967719814679  0.34048583525663295  1.0000
  C   C43       1.0  0.8258801453698611  0.6444022612460394  0.5724264322178383  1.0000
  C   C44       1.0  0.8259771771738235  0.16998346238602322  0.5829178200879672  1.0000
  O   O2        1.0  0.8831527957104606  0.413087605063978  0.389596029676907  1.0000
  O   O3        1.0  0.8831346152235934  0.39938891010641  0.7672018009629786  1.0000
  O   O4        1.0  0.8831048176400456  0.5950587260019757  0.5714363035176572  1.0000
  O   O5        1.0  0.8831825418509376  0.21741779928864968  0.5853614290954419  1.0000
  O   O6        1.0  0.7686731343267731  0.5969678734400297  0.5699826056105957  1.0000
  O   O7        1.0  0.7687029315970715  0.40129961794962704  0.7657480333468597  1.0000
  O   O8        1.0  0.7687211122347489  0.4149982671764234  0.38814070074446  1.0000
  O   O9        1.0  0.7687508583683017  0.21932845214094737  0.5839061975291941  1.0000
