data_image0
_chemical_formula_structural       NC9NC5H8C7OCH10C7F3H5Zn2C4O8
_chemical_formula_sum              "N2 C33 H23 O9 F3 Zn2"
_cell_length_a       17.807436237873137
_cell_length_b       10.30083208314754
_cell_length_c       9.272721663655245
_cell_angle_alpha    85.8570081302309
_cell_angle_beta     89.9168972107098
_cell_angle_gamma    88.38439813745397

_space_group_name_H-M_alt    "P 1"
_space_group_IT_number       1

loop_
  _space_group_symop_operation_xyz
  'x, y, z'

loop_
  _atom_site_type_symbol
  _atom_site_label
  _atom_site_symmetry_multiplicity
  _atom_site_fract_x
  _atom_site_fract_y
  _atom_site_fract_z
  _atom_site_occupancy
  N   N1        1.0  0.6998136309139406  0.3800346591687598  0.39754301988793217  1.0000
  C   C1        1.0  0.6391706618896497  0.34478984617170205  0.38531717133792287  1.0000
  C   C2        1.0  0.5637374735724753  0.3009491800753543  0.370109543189596  1.0000
  C   C3        1.0  0.5451029751187123  0.22898694481045198  0.2535583475486188  1.0000
  C   C4        1.0  0.47186081822518944  0.18630911334787778  0.23870102552079064  1.0000
  C   C5        1.0  0.4162042936895043  0.2152158486764133  0.3403590131126728  1.0000
  C   C6        1.0  0.33836718263248555  0.16997564471992255  0.3246606060584387  1.0000
  C   C7        1.0  0.2763213361325753  0.2518615177737107  0.35342801772780796  1.0000
  C   C8        1.0  0.2029369572347869  0.20898073760701097  0.3385859619562015  1.0000
  C   C9        1.0  0.1398427639327338  0.2935596507675821  0.36775637293877234  1.0000
  N   N2        1.0  0.08912801735798129  0.36155525120212806  0.39120857900799955  1.0000
  C   C10       1.0  0.19101476258691882  0.08395599284720821  0.29494844799307307  1.0000
  C   C11       1.0  0.25220319633644145  0.0020562244715287507  0.26617172700264025  1.0000
  C   C12       1.0  0.325467110322921  0.044541430043572694  0.2807890662548192  1.0000
  C   C13       1.0  0.4355313108311097  0.28767356331819993  0.4571534187241713  1.0000
  C   C14       1.0  0.5088255388403107  0.3301601964874601  0.47183800333916465  1.0000
  H   H1        1.0  0.5871254942444198  0.20612578042803228  0.17394856227890365  1.0000
  H   H2        1.0  0.45851924047772835  0.1321945068282313  0.14665983616087863  1.0000
  H   H3        1.0  0.28496372130239817  0.34947023446632475  0.3854514843228227  1.0000
  H   H4        1.0  0.1344964689205246  0.049867025893861376  0.2831984985568914  1.0000
  H   H5        1.0  0.24285616463588072  0.9052612121675554  0.23281520594187202  1.0000
  H   H6        1.0  0.3720124319312804  0.9787016454133678  0.2596657128797275  1.0000
  H   H7        1.0  0.394232448148914  0.3100025452325621  0.5382006110905635  1.0000
  H   H8        1.0  0.5226899688397145  0.3854897960095554  0.5627222751808119  1.0000
  C   C15       1.0  0.8944960935039864  0.9894577843687383  0.39452672167800173  1.0000
  C   C16       1.0  0.8728978915686221  0.9991676620089929  0.24846105605913404  1.0000
  C   C17       1.0  0.8611478271841946  0.8869533970169189  0.17536080902277584  1.0000
  C   C18       1.0  0.8728418752565666  0.7639094858830381  0.24808098080856  1.0000
  C   C19       1.0  0.8944528131374134  0.7521218797485898  0.39423730714820593  1.0000
  C   C20       1.0  0.9049773516945533  0.8654440538865505  0.46668809898731967  1.0000
  C   C21       1.0  0.8401870643283555  0.8984325917242096  0.01797753416633951  1.0000
  O   O1        1.0  0.906521495742849  0.9007883359613512  0.934466412883802  1.0000
  C   C22       1.0  0.8875994830588357  0.9115746524892472  0.786422365424511  1.0000
  H   H9        1.0  0.9036196476098511  0.31312503693277693  0.45002628117655746  1.0000
  H   H10       1.0  0.8651407973401247  0.09393349131488236  0.19094223647402764  1.0000
  H   H11       1.0  0.8650456431500013  0.6775284544227248  0.1903012506980808  1.0000
  H   H12       1.0  0.9216411822022009  0.8571921974081188  0.5793359261949431  1.0000
  H   H13       1.0  0.9360420678314629  0.5226246880556545  0.6694970447862583  1.0000
  H   H14       1.0  0.805487773836714  0.9892305796609419  0.9944362315084319  1.0000
  H   H15       1.0  0.8055163813585208  0.8141381059973246  0.9941051285577293  1.0000
  H   H16       1.0  0.9402229053739917  0.9132988966320714  0.722230632791411  1.0000
  H   H17       1.0  0.8554610493241221  0.0038582581706014746  0.7568751838969036  1.0000
  H   H18       1.0  0.8554724264635548  0.8263739206391535  0.75651767539195  1.0000
  C   C23       1.0  0.892486956719454  0.3687779667418487  0.9709719148864712  1.0000
  C   C24       1.0  0.9244648398319126  0.261044172748399  0.05321436087999244  1.0000
  C   C25       1.0  0.9630264711738814  0.16072207156490204  0.9867194032533596  1.0000
  C   C26       1.0  0.9673086960869756  0.1664986084677882  0.8354976349713623  1.0000
  C   C27       1.0  0.9348857553843132  0.2715498730219583  0.7522951569427391  1.0000
  C   C28       1.0  0.8964619429424487  0.37280171990047145  0.8177920647890407  1.0000
  C   C29       1.0  0.9951825713886582  0.04439170575932504  0.07658723361812192  1.0000
  F   F1        1.0  0.020479055975856086  0.0809324416780437  0.20839423527132905  1.0000
  F   F2        1.0  0.05506604571745388  0.9878365329860012  0.006513410005903665  1.0000
  F   F3        1.0  0.9400364012333745  0.9535377392128198  0.10055576463901339  1.0000
  H   H19       1.0  0.8448516640182103  0.6802663528240228  0.04784872224056324  1.0000
  H   H20       1.0  0.9207141397895013  0.2566087635217198  0.17012277578532586  1.0000
  H   H21       1.0  0.9950789853367207  0.0888976808435653  0.7811669554397627  1.0000
  H   H22       1.0  0.9381047673140422  0.27181239971667126  0.635588006122259  1.0000
  H   H23       1.0  0.7616409728500543  0.5982259062770618  0.6986115144638938  1.0000
  Zn  Zn1       1.0  0.8121613913339868  0.37469847583261234  0.39572337716008016  1.0000
  Zn  Zn2       1.0  0.9767802949824039  0.366880905572235  0.39304007932850893  1.0000
  C   C30       1.0  0.8957091879425448  0.36686796238197555  0.657726932349121  1.0000
  C   C31       1.0  0.8932342965784053  0.37471297281031135  0.13103663573415192  1.0000
  C   C32       1.0  0.8944301373370006  0.6079350167291542  0.3885463840054091  1.0000
  C   C33       1.0  0.8945132914604454  0.1336443613238123  0.4002172624569187  1.0000
  O   O2        1.0  0.9559571269997315  0.3737324226237526  0.18373752286700418  1.0000
  O   O3        1.0  0.9579282944755669  0.36191417601437165  0.6029890695632765  1.0000
  O   O4        1.0  0.9568946098205692  0.5565789182253991  0.38562388549359206  1.0000
  O   O5        1.0  0.9569907549734578  0.17906769185608915  0.4011025997397788  1.0000
  O   O6        1.0  0.831950875166545  0.5625116922178893  0.3876608576569032  1.0000
  O   O7        1.0  0.8329845593686583  0.36784850981531303  0.6050259642556264  1.0000
  O   O8        1.0  0.8310133838081957  0.3796667029331517  0.18577268405005487  1.0000
  O   O9        1.0  0.8320470122868051  0.18500196339125452  0.4031378690278331  1.0000
