data_image0
_chemical_formula_structural       NC8NC6H8C7OC6H10C10FC3H9Zn2C4O8
_chemical_formula_sum              "N2 C44 H27 O9 F1 Zn2"
_cell_length_a       17.457602349358154
_cell_length_b       10.299379429549807
_cell_length_c       10.29938172300155
_cell_angle_alpha    85.55361563187328
_cell_angle_beta     92.85910674266745
_cell_angle_gamma    91.68701110263541

_space_group_name_H-M_alt    "P 1"
_space_group_IT_number       1

loop_
  _space_group_symop_operation_xyz
  'x, y, z'

loop_
  _atom_site_type_symbol
  _atom_site_label
  _atom_site_symmetry_multiplicity
  _atom_site_fract_x
  _atom_site_fract_y
  _atom_site_fract_z
  _atom_site_occupancy
  N   N1        1.0  0.7226257481655493  0.45255856562477365  0.6259599447414694  1.0000
  C   C1        1.0  0.6615506185397718  0.40662819111642634  0.6153623511235984  1.0000
  C   C2        1.0  0.585570572511257  0.3494965223519413  0.6021884842339946  1.0000
  C   C3        1.0  0.5270283814589644  0.3896796637439556  0.6770692464768893  1.0000
  C   C4        1.0  0.45248626774494305  0.3346665275176204  0.6645089793660248  1.0000
  C   C5        1.0  0.3903523824732712  0.37709406763934544  0.7438105965740871  1.0000
  C   C6        1.0  0.3158147570230608  0.39554919530841204  0.6880407665789758  1.0000
  C   C7        1.0  0.25727254887546974  0.4355484290414964  0.7630295526817219  1.0000
  C   C8        1.0  0.18129712999170816  0.45460887558510166  0.7050440606307005  1.0000
  N   N2        1.0  0.1202258098305999  0.4699270946082128  0.6584238785617949  1.0000
  C   C9        1.0  0.2727757120403453  0.4573358195333339  0.8942965830753549  1.0000
  C   C10       1.0  0.3465285593275438  0.43926979834311547  0.9504538528060916  1.0000
  C   C11       1.0  0.405059081104215  0.39945074553211835  0.8759227102023007  1.0000
  C   C12       1.0  0.43777524839643944  0.23879242807022916  0.5756353183946397  1.0000
  C   C13       1.0  0.4963056474645952  0.19888808376674105  0.5011544440235549  1.0000
  C   C14       1.0  0.5700628999331411  0.2540137421778639  0.5142646080952555  1.0000
  H   H1        1.0  0.5393594919151053  0.4648950353098389  0.7436694757760185  1.0000
  H   H2        1.0  0.3034873601272356  0.3805520401312723  0.5860237904949916  1.0000
  H   H3        1.0  0.2279041008828293  0.48823527488464874  0.9531193910263119  1.0000
  H   H4        1.0  0.3583422742930026  0.455824601461133  0.05209696527998764  1.0000
  H   H5        1.0  0.4615372162982905  0.3844699239378049  0.9220342795548413  1.0000
  H   H6        1.0  0.3812933899979171  0.1934517438692773  0.565001377883882  1.0000
  H   H7        1.0  0.4844885252721435  0.12478892687010854  0.43335547628973425  1.0000
  H   H8        1.0  0.6149344874941803  0.22224467323345637  0.45595325692645283  1.0000
  C   C15       1.0  0.9214377907924094  0.0798514752858699  0.6423469577544207  1.0000
  C   C16       1.0  0.9679250818335987  0.07202351432382191  0.7578872216751602  1.0000
  C   C17       1.0  0.9906526509186593  0.9508048655408865  0.8169548246068723  1.0000
  C   C18       1.0  0.9678317460893576  0.8367972906310994  0.7576033209944031  1.0000
  C   C19       1.0  0.9214211021735901  0.8426244943150002  0.6420486903302971  1.0000
  C   C20       1.0  0.898326666119778  0.964630314533051  0.5852743051888101  1.0000
  C   C21       1.0  0.04040618981120646  0.9424848488784163  0.9382135893772393  1.0000
  O   O1        1.0  0.08907567961572771  0.8538277707028827  0.9545435226159502  1.0000
  C   C22       1.0  0.03494303359479245  0.03463953433496902  0.04095132747471664  1.0000
  C   C23       1.0  0.10055416386223293  0.06698957369357883  0.11787044338834206  1.0000
  C   C24       1.0  0.09578563676814289  0.15256724162166363  0.21597244955901615  1.0000
  C   C25       1.0  0.02550325724236259  0.20579839159580063  0.2389918737679806  1.0000
  C   C26       1.0  0.9597741266266648  0.17313493060944846  0.16430720118427966  1.0000
  C   C27       1.0  0.9642345820205265  0.08762343444954168  0.06609237493033537  1.0000
  H   H9        1.0  0.834681778550866  0.3020756423581885  0.4232339215152546  1.0000
  H   H10       1.0  0.9872163754565688  0.16046540183550115  0.801298957677089  1.0000
  H   H11       1.0  0.9857841331020031  0.7432917368333553  0.8025059205453858  1.0000
  H   H12       1.0  0.862488829321729  0.9698610052887064  0.49620089362609615  1.0000
  H   H13       1.0  0.9041262930498827  0.5174786886304109  0.5970693963317375  1.0000
  H   H14       1.0  0.15559515008147162  0.026943162115757643  0.10131739117795147  1.0000
  H   H15       1.0  0.14663229535039113  0.17757305280150443  0.27421961485204194  1.0000
  H   H16       1.0  0.02191674598122929  0.27193258702911177  0.31503931448462785  1.0000
  H   H17       1.0  0.9052264683105541  0.2136421729202082  0.18290034009572442  1.0000
  H   H18       1.0  0.9123278725732339  0.06188727140888605  0.010918372521076414  1.0000
  C   C28       1.0  0.9214940319963998  0.4611396554702951  0.26083547407302876  1.0000
  C   C29       1.0  0.9457753300467342  0.33173830728375175  0.27173005765610614  1.0000
  C   C30       1.0  0.9588556133642875  0.2669645119762636  0.16008408793368378  1.0000
  C   C31       1.0  0.9457019459186881  0.3320282527434246  0.0364579017399953  1.0000
  C   C32       1.0  0.9213648292499459  0.46133626888427964  0.023560201537419445  1.0000
  C   C33       1.0  0.9095950761894913  0.5252561283665613  0.13636621968734963  1.0000
  C   C34       1.0  0.9837184958440994  0.1298741421878593  0.17141321275688437  1.0000
  C   C35       1.0  0.035391472549973345  0.0770550887298991  0.2802989496419328  1.0000
  C   C36       1.0  0.029213975826921645  0.9448167272945581  0.3251190736438401  1.0000
  C   C37       1.0  0.07827338019630115  0.8937495895018054  0.42670194124189414  1.0000
  F   F1        1.0  0.07148243191993298  0.7663783889647607  0.46986572308087976  1.0000
  C   C38       1.0  0.13430372695420134  0.9738252687052098  0.48371451245669284  1.0000
  C   C39       1.0  0.14158607924216104  0.10490637600362882  0.43892001041245554  1.0000
  C   C40       1.0  0.09267880041524656  0.15639195337813883  0.33742037940039404  1.0000
  H   H19       1.0  0.874545278464108  0.7046732070542567  0.4475519182249952  1.0000
  H   H20       1.0  0.9537248005348469  0.28069211427270474  0.36720472367518076  1.0000
  H   H21       1.0  0.9552121395968719  0.28189127231458094  0.9502282767036521  1.0000
  H   H22       1.0  0.890875644669851  0.6250146084448498  0.1271632229166395  1.0000
  H   H23       1.0  0.9113973095889247  0.5106449461696212  0.6911248319495114  1.0000
  H   H24       1.0  0.9859963759791184  0.8814090029069623  0.2822413676530049  1.0000
  H   H25       1.0  0.1723057540074868  0.934274504365552  0.56225009172501  1.0000
  H   H26       1.0  0.18540571336632033  0.16659256027366842  0.48248647663138683  1.0000
  H   H27       1.0  0.10021948793152347  0.2576861255181948  0.30273605207549203  1.0000
  Zn  Zn1       1.0  0.8373645361666116  0.45756726693307037  0.6353358344838616  1.0000
  Zn  Zn2       1.0  0.005487006011952747  0.4649077475908147  0.6490586253277035  1.0000
  C   C41       1.0  0.9213876734689471  0.4561250739993096  0.8793907635882419  1.0000
  C   C42       1.0  0.921465704544308  0.46635165943186924  0.4050039728992616  1.0000
  C   C43       1.0  0.9214211800269074  0.6984426425965595  0.6369296708739185  1.0000
  C   C44       1.0  0.9214321406403236  0.22403252795270842  0.6474651307785386  1.0000
  O   O2        1.0  0.9852577988453086  0.4708808636510967  0.4585959679247041  1.0000
  O   O3        1.0  0.9851966437761681  0.45716614487525037  0.8362136758330183  1.0000
  O   O4        1.0  0.9852228404406698  0.6528406088373807  0.640424557282022  1.0000
  O   O5        1.0  0.985231544828284  0.2752064064498245  0.6543849844164153  1.0000
  O   O6        1.0  0.8576199399783336  0.647268605570527  0.6300094707054034  1.0000
  O   O7        1.0  0.8575937432879087  0.4515957019867733  0.8257985194016981  1.0000
  O   O8        1.0  0.8576548986735022  0.4653103751036413  0.4481792501414208  1.0000
  O   O9        1.0  0.857628644637053  0.2696359086379771  0.6439683640026703  1.0000
