data_image0
_chemical_formula_structural       NC9NC5H8C9H8C6NCOH6Zn2C4O8
_chemical_formula_sum              "N3 C34 H22 O9 Zn2"
_cell_length_a       17.807436237873137
_cell_length_b       9.275152443626249
_cell_length_c       10.29962270195845
_cell_angle_alpha    85.38201048137522
_cell_angle_beta     89.41121966804023
_cell_angle_gamma    88.96355956710403

_space_group_name_H-M_alt    "P 1"
_space_group_IT_number       1

loop_
  _space_group_symop_operation_xyz
  'x, y, z'

loop_
  _atom_site_type_symbol
  _atom_site_label
  _atom_site_symmetry_multiplicity
  _atom_site_fract_x
  _atom_site_fract_y
  _atom_site_fract_z
  _atom_site_occupancy
  N   N1        1.0  0.7152001015720533  0.5406105586359797  0.552258694388388  1.0000
  C   C1        1.0  0.6544060845305064  0.5015280937998768  0.5413599233734862  1.0000
  C   C2        1.0  0.5787850091997866  0.4529138115239401  0.5278030354139098  1.0000
  C   C3        1.0  0.5602589537920201  0.37356965341915926  0.42305700288421444  1.0000
  C   C4        1.0  0.48683413492640537  0.32624508456631585  0.4098119062210852  1.0000
  C   C5        1.0  0.430884453879179  0.35784541146865645  0.5012817301171288  1.0000
  C   C6        1.0  0.3528534819678961  0.30767922811015325  0.4872872867818236  1.0000
  C   C7        1.0  0.2911569221265206  0.398479495767271  0.5129354352962039  1.0000
  C   C8        1.0  0.21758862158984424  0.35092945563807376  0.49970473917320457  1.0000
  C   C9        1.0  0.1548576739961195  0.44471862803746753  0.5257072356754895  1.0000
  N   N2        1.0  0.10443494634961302  0.5201186343216939  0.5466125371155817  1.0000
  C   C10       1.0  0.20513183272539054  0.21229264929045552  0.46080146034425296  1.0000
  C   C11       1.0  0.26597094069757155  0.12147699555091651  0.435144971534257  1.0000
  C   C12       1.0  0.3394174792494847  0.1685888221795746  0.448174535096192  1.0000
  C   C13       1.0  0.45010482676629293  0.43773864611151536  0.6062452319480238  1.0000
  C   C14       1.0  0.5235813816572308  0.48485172510446345  0.6193353582429164  1.0000
  H   H1        1.0  0.6025097348242996  0.34857433600889953  0.3514264279232835  1.0000
  H   H2        1.0  0.4735941138634026  0.2666011531810888  0.32708462766824575  1.0000
  H   H3        1.0  0.3002259806016525  0.5067254865026825  0.5414658994085122  1.0000
  H   H4        1.0  0.14846710348380565  0.17449151413835476  0.45032762352717126  1.0000
  H   H5        1.0  0.2562080748002562  0.014141312085905959  0.40541122942311514  1.0000
  H   H6        1.0  0.3856728252548525  0.09557153656122484  0.4293599024284256  1.0000
  H   H7        1.0  0.4085680391004978  0.46213579867093735  0.6791721722578308  1.0000
  H   H8        1.0  0.5373566457654625  0.5458507639346273  0.7010167178533562  1.0000
  C   C15       1.0  0.9076057689448566  0.1068492515713182  0.5507935602522509  1.0000
  C   C16       1.0  0.8804909557493826  0.19097546559659467  0.4408586333326545  1.0000
  C   C17       1.0  0.8603571947960077  0.12655264342737538  0.32875682153173047  1.0000
  C   C18       1.0  0.8670220220267314  0.97685824133394  0.3243691583400634  1.0000
  C   C19       1.0  0.8926679712762354  0.8911208672894951  0.4333929755144925  1.0000
  C   C20       1.0  0.9120364022939222  0.9538685387124445  0.5480888428547759  1.0000
  C   C21       1.0  0.8466515730092925  0.9107382427774868  0.2082737290027112  1.0000
  C   C22       1.0  0.8295960803611439  0.8553448596668709  0.11106198671048761  1.0000
  C   C23       1.0  0.8089026108917511  0.7881227687207243  0.9931125809490733  1.0000
  H   H9        1.0  0.015575817490411259  0.18291209449284795  0.8085865856449442  1.0000
  H   H10       1.0  0.8765345238532491  0.30770109357312414  0.4405075246701948  1.0000
  H   H11       1.0  0.8402605805396737  0.19381940751022134  0.2449399942886232  1.0000
  H   H12       1.0  0.8958295018453457  0.7746430574825112  0.4297243113597688  1.0000
  H   H13       1.0  0.9823222636191166  0.6549342496143338  0.7244622866512351  1.0000
  H   H14       1.0  0.8226350938756397  0.6706824455270649  0.005045738559917188  1.0000
  H   H15       1.0  0.7477695553225017  0.8039172242471694  0.9762206861508345  1.0000
  H   H16       1.0  0.8406045335148553  0.8387713028784135  0.9085918016633663  1.0000
  C   C24       1.0  0.909748878478346  0.5302220474557813  0.1680859187021726  1.0000
  C   C25       1.0  0.831109659431627  0.5454909962176373  0.16709841304931783  1.0000
  C   C26       1.0  0.7916417377719644  0.5555377110090005  0.049628825190055174  1.0000
  C   C27       1.0  0.8312773444098318  0.545791368968265  0.9319228245292445  1.0000
  C   C28       1.0  0.9098932856746151  0.5304957040313295  0.9307964733094156  1.0000
  C   C29       1.0  0.9487060556376398  0.5233755564592879  0.049385867551423816  1.0000
  N   N3        1.0  0.7110610514139339  0.5689283146043238  0.052651827973565934  1.0000
  C   C30       1.0  0.6674111696604829  0.6499650252925078  0.9549660918757968  1.0000
  O   O1        1.0  0.698102085547195  0.7317382040741067  0.8671510721885811  1.0000
  H   H17       1.0  0.8001182104750303  0.5508764605768328  0.25769192802355545  1.0000
  H   H18       1.0  0.8007930169047884  0.5471239502930976  0.8415136423908307  1.0000
  H   H19       1.0  0.009329278221798624  0.5116234889694016  0.049269643024140386  1.0000
  H   H20       1.0  0.9399829835338379  0.522441224174728  0.6030774349369006  1.0000
  H   H21       1.0  0.6823080371272513  0.5255879416861837  0.13530601041939683  1.0000
  H   H22       1.0  0.6067942542492113  0.6441589576597906  0.9587682550913474  1.0000
  Zn  Zn1       1.0  0.8275248499389258  0.5346931863780445  0.5506368581755066  1.0000
  Zn  Zn2       1.0  0.9921101203126759  0.5260242543254973  0.5482450870985305  1.0000
  C   C31       1.0  0.9098342603501753  0.5246986311368056  0.7866462526600462  1.0000
  C   C32       1.0  0.9098025167102095  0.536020534656487  0.3122357881471689  1.0000
  C   C33       1.0  0.9111940677174579  0.7937621822986047  0.5434251876704702  1.0000
  C   C34       1.0  0.9084426441309092  0.26695525374120255  0.5554569287219855  1.0000
  O   O2        1.0  0.9722797376424513  0.5346704535154863  0.35970615659043975  1.0000
  O   O3        1.0  0.9722734456257718  0.5194681053065682  0.7373602149526407  1.0000
  O   O4        1.0  0.9733706655470327  0.7367403704755255  0.5409574915916493  1.0000
  O   O5        1.0  0.971182461594917  0.3173982015866245  0.5561087833634453  1.0000
  O   O6        1.0  0.8484524524918167  0.743319242076766  0.5427731627199497  1.0000
  O   O7        1.0  0.847355241617705  0.5260487096211433  0.7391758113050582  1.0000
  O   O8        1.0  0.8473615331258304  0.5412510070098768  0.36152019175767114  1.0000
  O   O9        1.0  0.8462642570397012  0.3239787448007685  0.557922915928021  1.0000
