data_image0
_chemical_formula_structural       NC8NH4C10H6C6OCH7Zn2C4O8
_chemical_formula_sum              "N2 C29 H17 O9 Zn2"
_cell_length_a       14.927258825633057
_cell_length_b       9.275150299802176
_cell_length_c       9.273891588657152
_cell_angle_alpha    85.74891997062389
_cell_angle_beta     89.68012686031724
_cell_angle_gamma    89.48389196497259

_space_group_name_H-M_alt    "P 1"
_space_group_IT_number       1

loop_
  _space_group_symop_operation_xyz
  'x, y, z'

loop_
  _atom_site_type_symbol
  _atom_site_label
  _atom_site_symmetry_multiplicity
  _atom_site_fract_x
  _atom_site_fract_y
  _atom_site_fract_z
  _atom_site_occupancy
  N   N1        1.0  0.8403566692216838  0.564632608019498  0.401209767590321  1.0000
  C   C1        1.0  0.7628302449877667  0.5646325816428823  0.4012097773918111  1.0000
  C   C2        1.0  0.6663976030497996  0.5646325818502387  0.40120983247078823  1.0000
  C   C3        1.0  0.6201538395823788  0.47546726357336544  0.31197876373556266  1.0000
  C   C4        1.0  0.5264425286278513  0.4754671734435709  0.3119787357828341  1.0000
  C   C5        1.0  0.4785816056540717  0.5646326341249059  0.4012097443586047  1.0000
  C   C6        1.0  0.5248253694479031  0.653797961745656  0.4904407049737294  1.0000
  C   C7        1.0  0.6185367473939624  0.6537980518725368  0.4904407329323985  1.0000
  C   C8        1.0  0.3821489646485283  0.5646325359642452  0.401209689978552  1.0000
  N   N2        1.0  0.3046225398085982  0.5646326172995235  0.4012097011189708  1.0000
  H   H1        1.0  0.6564790703098687  0.4060914180611015  0.24255200452789236  1.0000
  H   H2        1.0  0.49137541421700504  0.40609139525386895  0.24255210188558854  1.0000
  H   H3        1.0  0.4885001387204131  0.7231738072579199  0.5598674641813992  1.0000
  H   H4        1.0  0.6536037944868662  0.7231738207212755  0.5598674749438046  1.0000
  C   C9        1.0  0.07484911403875126  0.14094882440766088  0.4036227210314638  1.0000
  C   C10       1.0  0.12234374285002203  0.22201717986464994  0.29457791131284483  1.0000
  C   C11       1.0  0.16217508446402684  0.1548339231485616  0.1799915873560416  1.0000
  C   C12       1.0  0.15491707887472717  0.0056031055255409915  0.17297414910154374  1.0000
  C   C13       1.0  0.10938052332669046  0.923085065540992  0.2813711770952465  1.0000
  C   C14       1.0  0.0701386757278755  0.9883053361742906  0.3988093142952851  1.0000
  C   C15       1.0  0.209689364310077  0.23962192439728325  0.06845357912530381  1.0000
  C   C16       1.0  0.24947080706906186  0.31063449713764624  0.9750730185999602  1.0000
  C   C17       1.0  0.29605303140964034  0.39379519827808784  0.8657284547519546  1.0000
  C   C18       1.0  0.33582680416028193  0.4648024503507526  0.7723657946236981  1.0000
  H   H5        1.0  0.03156450401202626  0.4053373715289019  0.6325035932809748  1.0000
  H   H6        1.0  0.12664016235091258  0.33848563078185534  0.2968045666232737  1.0000
  H   H7        1.0  0.18525898074046876  0.9526580918065658  0.08430840969515141  1.0000
  H   H8        1.0  0.10666272649634999  0.807028869346394  0.27514840018549713  1.0000
  H   H9        1.0  0.010723096698992855  0.8609238262505817  0.7412644853569701  1.0000
  H   H10       1.0  0.3707514942268255  0.5271528475295  0.6903856677667681  1.0000
  C   C19       1.0  0.07398272858143207  0.5608059816264255  0.9779623889535047  1.0000
  C   C20       1.0  0.14700736002720993  0.6217458086796743  0.04618991672749839  1.0000
  C   C21       1.0  0.21489065274846259  0.6934592022218984  0.9659727995062637  1.0000
  C   C22       1.0  0.20999147287503916  0.7045942947576942  0.8144689339981199  1.0000
  C   C23       1.0  0.13885377156145218  0.6427808634009498  0.7449041707559099  1.0000
  C   C24       1.0  0.07100506927748751  0.5684481531333432  0.8244696183939637  1.0000
  O   O1        1.0  0.28547865646918025  0.7526226340557158  0.04084332595755291  1.0000
  C   C25       1.0  0.35882680124529776  0.8285534740864915  0.9733356258503623  1.0000
  H   H11       1.0  0.861392447994466  0.47219115662355904  0.08948301516583035  1.0000
  H   H12       1.0  0.26129033535897483  0.759688196975485  0.749233834536112  1.0000
  H   H13       1.0  0.1380895984902788  0.6502167655276319  0.6277807549620973  1.0000
  H   H14       1.0  0.9292705067598721  0.5030680319846916  0.5493983691050053  1.0000
  H   H15       1.0  0.3342369825816256  0.926187824268805  0.908385436441974  1.0000
  H   H16       1.0  0.3965776818791109  0.756948369578994  0.9033297094792158  1.0000
  H   H17       1.0  0.40449237555267964  0.863039716043392  0.05798326940016164  1.0000
  Zn  Zn1       1.0  0.974333771622525  0.5646288122005132  0.4012181021910457  1.0000
  Zn  Zn2       1.0  0.1706454747126045  0.56462467551049  0.40121326923861234  1.0000
  C   C26       1.0  0.07159787812239471  0.5612559362418361  0.6644942942798744  1.0000
  C   C27       1.0  0.07338350131312188  0.5679993731342401  0.13793720822177602  1.0000
  C   C28       1.0  0.07104466359478723  0.8280850876953139  0.3939755996799652  1.0000
  C   C29       1.0  0.07393665821899353  0.3011684889494979  0.4084559895129898  1.0000
  O   O2        1.0  0.14768169839367218  0.5704056767989822  0.19162442063124674  1.0000
  O   O3        1.0  0.14629572885357245  0.5588454007514461  0.6108030050496236  1.0000
  O   O4        1.0  0.14584799156867723  0.7743133286165729  0.3923572366984709  1.0000
  O   O5        1.0  0.14812936901344642  0.35493775828064633  0.4100700808563573  1.0000
  O   O6        1.0  0.9968498103301512  0.774315729433271  0.39236129056736013  1.0000
  O   O7        1.0  0.997297538245251  0.5588495343023221  0.6108069722212668  1.0000
  O   O8        1.0  0.9986835142199473  0.5704097444281047  0.19162665520341027  1.0000
  O   O9        1.0  0.9991311845133107  0.35494181656589197  0.41007242354862194  1.0000
