data_image0
_chemical_formula_structural       NC8NC6H8C8NH7C7ONH7Zn2C4O8
_chemical_formula_sum              "N4 C33 H22 O9 Zn2"
_cell_length_a       17.457602349358154
_cell_length_b       9.274263428431858
_cell_length_c       10.297855452804892
_cell_angle_alpha    85.50121379664337
_cell_angle_beta     92.86875916188056
_cell_angle_gamma    92.30649601595262

_space_group_name_H-M_alt    "P 1"
_space_group_IT_number       1

loop_
  _space_group_symop_operation_xyz
  'x, y, z'

loop_
  _atom_site_type_symbol
  _atom_site_label
  _atom_site_symmetry_multiplicity
  _atom_site_fract_x
  _atom_site_fract_y
  _atom_site_fract_z
  _atom_site_occupancy
  N   N1        1.0  0.7317876749536447  0.6146136306385537  0.6259751661249537  1.0000
  C   C1        1.0  0.6704181608441061  0.563595035167531  0.6153661502632646  1.0000
  C   C2        1.0  0.5940719378729729  0.5001342473975106  0.6021780771882728  1.0000
  C   C3        1.0  0.5357929782479317  0.5447252058886348  0.6770821143899173  1.0000
  C   C4        1.0  0.46089827684626344  0.48361756103380094  0.6645081932051551  1.0000
  C   C5        1.0  0.39904234624675533  0.5306989546296698  0.7438344336484074  1.0000
  C   C6        1.0  0.32461780681743785  0.5512385626419127  0.6880570410808575  1.0000
  C   C7        1.0  0.2663376643985451  0.5956251397102217  0.7630690868657215  1.0000
  C   C8        1.0  0.1904790072268018  0.6168386940039077  0.705075705962612  1.0000
  N   N2        1.0  0.12950152273123727  0.6338873037911785  0.6584491799991004  1.0000
  C   C9        1.0  0.2819914057460809  0.6197420431527989  0.8943670915753548  1.0000
  C   C10       1.0  0.3556336867206639  0.5996344489476022  0.9505320809024563  1.0000
  C   C11       1.0  0.4139033336535913  0.555447736208434  0.8759778076544902  1.0000
  C   C12       1.0  0.4455669834288852  0.3771668963768482  0.5755971762742076  1.0000
  C   C13       1.0  0.5038359670479319  0.3328853968437073  0.5010931642083913  1.0000
  C   C14       1.0  0.5779465737827991  0.39411768010048365  0.514217116402294  1.0000
  H   H1        1.0  0.5486104370341653  0.6282402101016713  0.743711018022702  1.0000
  H   H2        1.0  0.3121857507496159  0.5346456780317326  0.5860163835472918  1.0000
  H   H3        1.0  0.23732231810161883  0.6540301307809997  0.9532080486162388  1.0000
  H   H4        1.0  0.3675619808756224  0.617958028179632  0.052199113749205495  1.0000
  H   H5        1.0  0.47028974488594855  0.5387742919217162  0.9220956860841723  1.0000
  H   H6        1.0  0.3887945051525099  0.32680343268295653  0.5649519252651893  1.0000
  H   H7        1.0  0.4915395246084623  0.2506112332680471  0.43326550491686255  1.0000
  H   H8        1.0  0.6226101258430703  0.35886316755201264  0.45588754404157195  1.0000
  C   C15       1.0  0.9282197705426796  0.20054938771516806  0.6422902184232684  1.0000
  C   C16       1.0  0.9183115587956775  0.28347464065770467  0.5227700104966926  1.0000
  C   C17       1.0  0.915930236655526  0.21849319005682144  0.40493898556739705  1.0000
  C   C18       1.0  0.9240220530133332  0.0691042045181016  0.403764580578742  1.0000
  C   C19       1.0  0.9318707887483598  0.9845748506869989  0.522320389730762  1.0000
  C   C20       1.0  0.9330767013002761  0.04794080724972006  0.6421459803571261  1.0000
  C   C21       1.0  0.920309675329345  0.9989852587437289  0.276724879159302  1.0000
  C   C22       1.0  0.840688176435481  0.956201480427884  0.24135485055055272  1.0000
  N   N3        1.0  0.7778446243767024  0.9224318071663048  0.2134466307417842  1.0000
  H   H9        1.0  0.9944182861064742  0.2819089138672584  0.9471663088954195  1.0000
  H   H10       1.0  0.9140694555741056  0.3998887823567155  0.520296210070119  1.0000
  H   H11       1.0  0.9084909037900049  0.28509520097262686  0.31431409115299114  1.0000
  H   H12       1.0  0.9351845501142444  0.868246534262676  0.5208799827024164  1.0000
  H   H13       1.0  0.9746591801394682  0.752382733208315  0.8489261854298675  1.0000
  H   H14       1.0  0.9557650739452649  0.9015862485143329  0.2846466306014306  1.0000
  H   H15       1.0  0.9429804733557211  0.07492801016782336  0.19774148203332342  1.0000
  C   C23       1.0  0.9306791596421441  0.6243899631616652  0.26077851262854534  1.0000
  C   C24       1.0  0.8523812042792598  0.6553699749045596  0.2509740299125529  1.0000
  C   C25       1.0  0.8124921364170515  0.6698322524268652  0.12898979399106003  1.0000
  C   C26       1.0  0.8522860333103366  0.655040880222721  0.015733553630156605  1.0000
  C   C27       1.0  0.9306172979592434  0.6241001431034658  0.023657649928898072  1.0000
  C   C28       1.0  0.9692528085087737  0.6086421045871002  0.146594830560981  1.0000
  C   C29       1.0  0.7298534794689208  0.7028987457370435  0.12121457714478322  1.0000
  O   O1        1.0  0.7018084185716585  0.763088658808242  0.2126948802398487  1.0000
  N   N4        1.0  0.6805746478939885  0.6664021168721277  0.012588615480195743  1.0000
  H   H16       1.0  0.07872561769087483  0.5663578106341745  0.4865457130682951  1.0000
  H   H17       1.0  0.8221140562319165  0.6670541349779819  0.33865197433732885  1.0000
  H   H18       1.0  0.8229026827973288  0.6702494879209928  0.920932519067918  1.0000
  H   H19       1.0  0.029597313292433647  0.5847618462468525  0.15339780168613815  1.0000
  H   H20       1.0  0.07896572252179035  0.5679078980956489  0.8312229847103563  1.0000
  H   H21       1.0  0.6234651889395629  0.6966749565173795  0.006818037118288651  1.0000
  H   H22       1.0  0.6984366596944044  0.6014618991189011  0.942401434897372  1.0000
  Zn  Zn1       1.0  0.8465592775772245  0.6201717242415339  0.635353965568306  1.0000
  Zn  Zn2       1.0  0.014729837191943538  0.6283173764105356  0.649081017067126  1.0000
  C   C30       1.0  0.9305943401263498  0.6184069161231893  0.8794580100033265  1.0000
  C   C31       1.0  0.9306966214842236  0.6300840939386634  0.4049772497112323  1.0000
  C   C32       1.0  0.9321551033162145  0.8877675295948906  0.6369967758049484  1.0000
  C   C33       1.0  0.9291357909681361  0.3607217441634416  0.6474385487720911  1.0000
  O   O2        1.0  0.9945222967049803  0.6350800341464733  0.45858100872416446  1.0000
  O   O3        1.0  0.9944062222428982  0.6195922491034731  0.8362723917256422  1.0000
  O   O4        1.0  0.9956656978256346  0.837104308827444  0.6404831591761235  1.0000
  O   O5        1.0  0.9932627638040781  0.4175679820013826  0.6543701391951031  1.0000
  O   O6        1.0  0.868026293576741  0.8309211158725494  0.6300648387491272  1.0000
  O   O7        1.0  0.866766827931878  0.6134107896739602  0.8258540017449635  1.0000
  O   O8        1.0  0.8668829022834369  0.6288985250332115  0.44816105706621867  1.0000
  O   O9        1.0  0.865623369312351  0.4113864625311025  0.6439502849245362  1.0000
