data_image0
_chemical_formula_structural       NC8NC6H8C8NH5C7F3H3Zn2C4O8
_chemical_formula_sum              "N3 C33 H16 F3 Zn2 O8"
_cell_length_a       17.457602349358154
_cell_length_b       9.274263428431858
_cell_length_c       9.272721663655245
_cell_angle_alpha    85.8307011284179
_cell_angle_beta     93.38388695232669
_cell_angle_gamma    92.30649601595262

_space_group_name_H-M_alt    "P 1"
_space_group_IT_number       1

loop_
  _space_group_symop_operation_xyz
  'x, y, z'

loop_
  _atom_site_type_symbol
  _atom_site_label
  _atom_site_symmetry_multiplicity
  _atom_site_fract_x
  _atom_site_fract_y
  _atom_site_fract_z
  _atom_site_occupancy
  N   N1        1.0  0.7243104772576976  0.6053033378829229  0.4740075958605323  1.0000
  C   C1        1.0  0.6628832307789898  0.5542128564888174  0.46222521957357965  1.0000
  C   C2        1.0  0.5864652406700444  0.4906627072908345  0.44757854155036153  1.0000
  C   C3        1.0  0.5285938954349129  0.5357612101128417  0.5307669883608392  1.0000
  C   C4        1.0  0.45363076900030963  0.47456836527877155  0.5168023876162644  1.0000
  C   C5        1.0  0.3922065176307885  0.5221872677343944  0.604902134710321  1.0000
  C   C6        1.0  0.31747844759495697  0.5423489321744792  0.5429557453275751  1.0000
  C   C7        1.0  0.25960650732938995  0.5872437854320081  0.6262641465038772  1.0000
  C   C8        1.0  0.1834322605384647  0.6080643807770745  0.5618566797924276  1.0000
  N   N2        1.0  0.12220104281777268  0.6247970526015112  0.5100732456815116  1.0000
  C   C9        1.0  0.2759747489640336  0.6122503546447661  0.7720837510160536  1.0000
  C   C10       1.0  0.3499226697774582  0.5925233303392974  0.8344606054794614  1.0000
  C   C11       1.0  0.4077866056734308  0.5478314432444638  0.7516606066237774  1.0000
  C   C12       1.0  0.43781563771148213  0.3675152460107962  0.41805778479980615  1.0000
  C   C13       1.0  0.49567918380594916  0.3227289126881192  0.3353136060285151  1.0000
  C   C14       1.0  0.5698612087442482  0.38405012289441176  0.34988907138142555  1.0000
  H   H1        1.0  0.5417739368124102  0.6197276869510555  0.6047650692783613  1.0000
  H   H2        1.0  0.3044911044969499  0.5250646274595141  0.4296293596097325  1.0000
  H   H3        1.0  0.2316258632966877  0.6469371443361074  0.8374325360474397  1.0000
  H   H4        1.0  0.3624042177637984  0.6115357980222953  0.9473720435049298  1.0000
  H   H5        1.0  0.4644239821618993  0.5314704903617316  0.8028791366267964  1.0000
  H   H6        1.0  0.3809852298807386  0.3170796508670881  0.40623516574705865  1.0000
  H   H7        1.0  0.48301363536106223  0.23999515380576256  0.2599841867067929  1.0000
  H   H8        1.0  0.6142073416914808  0.34840037338835383  0.2851082303334975  1.0000
  C   C15       1.0  0.9208313564468881  0.19134964457223336  0.49212709797327964  1.0000
  C   C16       1.0  0.9102727370789354  0.2734650372425418  0.359387918199684  1.0000
  C   C17       1.0  0.9072501995499564  0.20768517215107513  0.2285247455836745  1.0000
  C   C18       1.0  0.915335625005606  0.05828822892921259  0.22722045104118327  1.0000
  C   C19       1.0  0.923829520275728  0.9745622006740918  0.3588885692384147  1.0000
  C   C20       1.0  0.9256875022866947  0.03874008676009644  0.49196690713255076  1.0000
  C   C21       1.0  0.9109319199603297  0.9873084713393308  0.08613011947601068  1.0000
  C   C22       1.0  0.8311179436891293  0.9442850282714349  0.04684815479788496  1.0000
  N   N3        1.0  0.7681225200835583  0.9103262509337847  0.015853277273634832  1.0000
  H   H9        1.0  0.9886889532332533  0.2747749890316124  0.830722578050715  1.0000
  H   H10       1.0  0.9060171718773515  0.3898624166490363  0.3566405146832117  1.0000
  H   H11       1.0  0.8993177021978804  0.27367311534616334  0.1278767099056668  1.0000
  H   H12       1.0  0.9464304273324888  0.8899631383239449  0.09492801907006498  1.0000
  H   H13       1.0  0.9331729044488066  0.06271603698515671  0.9984111342758237  1.0000
  C   C23       1.0  0.9212146269950598  0.6126051243326276  0.06842007989038645  1.0000
  C   C24       1.0  0.9532144705061238  0.4961899813536526  0.1541265672638199  1.0000
  C   C25       1.0  0.9919927262180865  0.3886868448865637  0.09181404048240838  1.0000
  C   C26       1.0  0.9964077065315042  0.3955454086992034  0.9410596974942433  1.0000
  C   C27       1.0  0.9639356292534358  0.508934240402668  0.8543442322364032  1.0000
  C   C28       1.0  0.9253042444558252  0.6174845852118171  0.9156738834671496  1.0000
  C   C29       1.0  0.024119530812527268  0.26273838764748425  0.18516381344580068  1.0000
  F   F1        1.0  0.0502157737092446  0.3059395158812912  0.3197324716362442  1.0000
  F   F2        1.0  0.08497704954279905  0.20605675042630223  0.12160243689293117  1.0000
  F   F3        1.0  0.9671579579970646  0.15612101848409798  0.20310998512856693  1.0000
  H   H14       1.0  0.8745168846673766  0.9538019003516923  0.14016325953682562  1.0000
  H   H15       1.0  0.02429959942403115  0.31217825489139317  0.8897400694317343  1.0000
  H   H16       1.0  0.7889206300784655  0.8540918568941055  0.7818485128029966  1.0000
  Zn  Zn1       1.0  0.8391331176324596  0.6109249815516375  0.48442369341398056  1.0000
  Zn  Zn2       1.0  0.007378377409292366  0.6191636472273641  0.4996689610408791  1.0000
  C   C30       1.0  0.9244965507856828  0.6108142047582683  0.7555257204254073  1.0000
  C   C31       1.0  0.9220167926052891  0.6192763353079844  0.22856724175361576  1.0000
  C   C32       1.0  0.9247378832512922  0.8785319184681712  0.4862481989693046  1.0000
  C   C33       1.0  0.9217753931664272  0.3515568857340645  0.49784483524600986  1.0000
  O   O1        1.0  0.9861341699070446  0.6246354907044203  0.28809959304043087  1.0000
  O   O2        1.0  0.9880734244820608  0.6117069151169767  0.7075637594512685  1.0000
  O   O3        1.0  0.9882674500362257  0.827892321181934  0.49012017741625  1.0000
  O   O4        1.0  0.9859400864792209  0.40845009152666645  0.505543061706947  1.0000
  O   O5        1.0  0.8605713511486531  0.82163853444241  0.47854958753786253  1.0000
  O   O6        1.0  0.860377335153863  0.6054548614315444  0.69599309232654  1.0000
  O   O7        1.0  0.8584380719699546  0.6183833767534268  0.27652719151644867  1.0000
  O   O8        1.0  0.858243989001912  0.40219796787854434  0.4939707683414177  1.0000
