data_image0
_chemical_formula_structural       NC8NH4C6NH7C6NCH7Zn2C4O8
_chemical_formula_sum              "N4 C25 H18 Zn2 O8"
_cell_length_a       13.859017124695912
_cell_length_b       9.274771166103582
_cell_length_c       9.274690524155613
_cell_angle_alpha    85.95744674106099
_cell_angle_beta     89.68734820513919
_cell_angle_gamma    90.59707951677755

_space_group_name_H-M_alt    "P 1"
_space_group_IT_number       1

loop_
  _space_group_symop_operation_xyz
  'x, y, z'

loop_
  _atom_site_type_symbol
  _atom_site_label
  _atom_site_symmetry_multiplicity
  _atom_site_fract_x
  _atom_site_fract_y
  _atom_site_fract_z
  _atom_site_occupancy
  N   N1        1.0  0.9253179148625081  0.5647635265285089  0.4073236866650769  1.0000
  C   C1        1.0  0.8530054662016532  0.5414093012165404  0.35120596849230723  1.0000
  C   C2        1.0  0.7630530734217481  0.5123600537700062  0.28140273862880827  1.0000
  C   C3        1.0  0.6753868812662739  0.5406801165140472  0.3494521041628964  1.0000
  C   C4        1.0  0.5878227642006137  0.5123612748116784  0.2814021571249594  1.0000
  C   C5        1.0  0.5881072709313153  0.45571468650543934  0.1452819544544377  1.0000
  C   C6        1.0  0.6755907053935781  0.42750347388010235  0.07749452943745583  1.0000
  C   C7        1.0  0.7629726091713049  0.45571234680647965  0.14528313702540951  1.0000
  C   C8        1.0  0.49776563574076454  0.5414102236307301  0.3512054688131798  1.0000
  N   N2        1.0  0.42536904347883886  0.5647638473255444  0.4073234700796988  1.0000
  H   H1        1.0  0.67530787513764  0.5845267710034017  0.4548124006581309  1.0000
  H   H2        1.0  0.5208520061516578  0.4334257113427471  0.09171965078495425  1.0000
  H   H3        1.0  0.6756696227936475  0.38374636734344203  0.9723476039638056  1.0000
  H   H4        1.0  0.8303081838823984  0.4334212791671033  0.09172183636155862  1.0000
  C   C9        1.0  0.17238295787224311  0.1411740027890587  0.40810918060862544  1.0000
  C   C10       1.0  0.15064228447172856  0.22335808959491812  0.2792216479207086  1.0000
  C   C11       1.0  0.13791336226436401  0.15717691019153657  0.14951637609356094  1.0000
  C   C12       1.0  0.14697907039938582  0.007425973394514338  0.14775916949515322  1.0000
  C   C13       1.0  0.16694185278573917  0.923907007854857  0.2748761649039788  1.0000
  C   C14       1.0  0.17831312354280793  0.9883424450888098  0.40655051087080163  1.0000
  N   N3        1.0  0.11677059626846843  0.24244813484926953  0.019212294407619627  1.0000
  H   H5        1.0  0.27984101501912306  0.2235867569701926  0.7235366041149931  1.0000
  H   H6        1.0  0.1457791749126211  0.3399459633325348  0.27866801480425996  1.0000
  H   H7        1.0  0.13764212731490244  0.9550679499618655  0.047964048641628405  1.0000
  H   H8        1.0  0.1712089451837142  0.8077069775541558  0.2707484155159343  1.0000
  H   H9        1.0  0.24677194807982517  0.6931487621490965  0.6211528433373974  1.0000
  H   H10       1.0  0.110122788298892  0.35452162291903955  0.01916548464572499  1.0000
  H   H11       1.0  0.10751598167256039  0.19412800160235855  0.9217874264676014  1.0000
  C   C15       1.0  0.17686715853914436  0.5610650924049347  0.9840893309831674  1.0000
  C   C16       1.0  0.2556969366670896  0.6234628201648098  0.05271186759359602  1.0000
  C   C17       1.0  0.3296412438142655  0.6967849900954126  0.972079136849629  1.0000
  C   C18       1.0  0.32399920870411486  0.7074399450245948  0.8211630741635965  1.0000
  C   C19       1.0  0.24722242935739236  0.6441828322589938  0.7513314327596676  1.0000
  C   C20       1.0  0.1738288723700585  0.5684513084214118  0.8305702888533943  1.0000
  N   N4        1.0  0.4103969686553968  0.7622453019308981  0.04068045646986862  1.0000
  C   C21       1.0  0.4234563087265131  0.7571675548755026  0.19697134176021328  1.0000
  H   H12       1.0  0.06551500399060317  0.3871900503083119  0.2774080616160519  1.0000
  H   H13       1.0  0.3799723734319136  0.7639056403733626  0.7570006028152534  1.0000
  H   H14       1.0  0.020874444074936  0.5007798316294889  0.555256673513747  1.0000
  H   H15       1.0  0.46327216460035126  0.8162024554982512  0.9759470139195527  1.0000
  H   H16       1.0  0.49138271836835995  0.8143225191467934  0.22254447220552298  1.0000
  H   H17       1.0  0.4280582114586262  0.6431324592799332  0.2414058037709317  1.0000
  H   H18       1.0  0.3622948677924871  0.8112442668810613  0.24807388542472353  1.0000
  Zn  Zn1       1.0  0.06962181504324993  0.5647598405724323  0.40733195875326667  1.0000
  Zn  Zn2       1.0  0.2810650108661681  0.5647558696619666  0.4073270407968184  1.0000
  C   C22       1.0  0.17436082382592952  0.5613087131429328  0.6705778683313166  1.0000
  C   C23       1.0  0.1763283232690116  0.5682088183113849  0.14408126927776133  1.0000
  C   C24       1.0  0.17720783230426454  0.8281594298820583  0.401101739219891  1.0000
  C   C25       1.0  0.173481230232857  0.3013563692025647  0.41355747842001556  1.0000
  O   O1        1.0  0.2563890320486444  0.5705985180565989  0.1977741705534226  1.0000
  O   O2        1.0  0.25478060208526543  0.5589149077620519  0.6168808215509918  1.0000
  O   O3        1.0  0.2570785103627953  0.7744002494139902  0.39927693797078434  1.0000
  O   O4        1.0  0.2540910520799833  0.35511318578178597  0.4153779460506113  1.0000
  O   O5        1.0  0.09659570167428713  0.7744025244554718  0.399281053493568  1.0000
  O   O6        1.0  0.09429780579943016  0.558918915176088  0.6168848570370409  1.0000
  O   O7        1.0  0.09590624169472317  0.5706024600841011  0.19777647330061843  1.0000
  O   O8        1.0  0.09360826126204615  0.35511711843502203  0.4153803568749208  1.0000
