data_image0
_chemical_formula_structural       NC9NC5H8C10ClC2H9C6OCH8Zn2C4O8
_chemical_formula_sum              "N2 C37 H25 Cl1 O9 Zn2"
_cell_length_a       17.807436237873137
_cell_length_b       10.299769246903262
_cell_length_c       10.300312196595936
_cell_angle_alpha    85.56019818288829
_cell_angle_beta     89.39759561834657
_cell_angle_gamma    88.40836129390726

_space_group_name_H-M_alt    "P 1"
_space_group_IT_number       1

loop_
  _space_group_symop_operation_xyz
  'x, y, z'

loop_
  _atom_site_type_symbol
  _atom_site_label
  _atom_site_symmetry_multiplicity
  _atom_site_fract_x
  _atom_site_fract_y
  _atom_site_fract_z
  _atom_site_occupancy
  N   N1        1.0  0.7075886261634005  0.38779391556943693  0.5572665733800481  1.0000
  C   C1        1.0  0.6469939790272476  0.3526054155768219  0.5462425018283223  1.0000
  C   C2        1.0  0.571620897905355  0.30883479674712966  0.5325297538003579  1.0000
  C   C3        1.0  0.5535104935761627  0.23742604917685875  0.4275323583454996  1.0000
  C   C4        1.0  0.480327096065346  0.19481666109335394  0.414135538255279  1.0000
  C   C5        1.0  0.4242053127456403  0.22323850011177537  0.5057036543359406  1.0000
  C   C6        1.0  0.3464302523284682  0.17807060494316507  0.49154837562658393  1.0000
  C   C7        1.0  0.2842704533732812  0.2598239076530606  0.517487622855114  1.0000
  C   C8        1.0  0.2109447141884174  0.21701148497879208  0.5041044776080821  1.0000
  C   C9        1.0  0.147735343483863  0.3014560680938889  0.5304076729256615  1.0000
  N   N2        1.0  0.0969279966093528  0.3693436706544548  0.5515547153709988  1.0000
  C   C10       1.0  0.19919517997988148  0.09218778606540948  0.4647567303843074  1.0000
  C   C11       1.0  0.2604976060883752  0.01042063172882403  0.4388090936795015  1.0000
  C   C12       1.0  0.333703829139589  0.05283853076878443  0.4519897043128229  1.0000
  C   C13       1.0  0.4430072250843046  0.295141593853959  0.6109202771103599  1.0000
  C   C14       1.0  0.5162434501450692  0.3375605986233908  0.6241614522916619  1.0000
  H   H1        1.0  0.5958973095419539  0.2149445997296864  0.3558240096240435  1.0000
  H   H2        1.0  0.4674000507684602  0.14113931830674953  0.3312194529859638  1.0000
  H   H3        1.0  0.29278753899975185  0.35728545587890165  0.5463651900770616  1.0000
  H   H4        1.0  0.1427232753279306  0.05815292647344927  0.45416169857344113  1.0000
  H   H5        1.0  0.2512822614871755  0.9137792215971531  0.4087312201958102  1.0000
  H   H6        1.0  0.38033145140419866  0.987095729829788  0.4329409176617067  1.0000
  H   H7        1.0  0.4013372609204457  0.3170839452557608  0.6839230199686612  1.0000
  H   H8        1.0  0.5296990134981692  0.39245855010742425  0.7060360151920975  1.0000
  C   C15       1.0  0.9021912648349425  0.997206858560903  0.5544064103389172  1.0000
  C   C16       1.0  0.9091217543403879  0.006430135925509005  0.41810622105456013  1.0000
  C   C17       1.0  0.9127052956763413  0.8939608151448326  0.34905140702756654  1.0000
  C   C18       1.0  0.9092643638161769  0.7711352197461678  0.4181260707069041  1.0000
  C   C19       1.0  0.9023325575655645  0.7599203987702072  0.5544260045437555  1.0000
  C   C20       1.0  0.8988350238298128  0.8735113783973868  0.6218028969062805  1.0000
  C   C21       1.0  0.9200384751538605  0.9047712103664807  0.20485726833387205  1.0000
  C   C22       1.0  0.9687436109108942  0.8195229800928865  0.14165934524575907  1.0000
  C   C23       1.0  0.9755789285498796  0.8298970037088234  0.0059313261834721435  1.0000
  C   C24       1.0  0.9339274510927958  0.9252458978404855  0.9317441461400998  1.0000
  Cl  Cl1       1.0  0.9425861127116334  0.9380104225451692  0.7614700865466726  1.0000
  C   C25       1.0  0.885365355807974  0.010407550335796989  0.9934491628676123  1.0000
  C   C26       1.0  0.8783967939250258  0.0004324376801980732  0.12915884727514726  1.0000
  H   H9        1.0  0.8995216866264515  0.3211474067431741  0.6063406269173324  1.0000
  H   H10       1.0  0.912784118890143  0.1012602414457311  0.36546765269682613  1.0000
  H   H11       1.0  0.9109695912288239  0.6842185770527525  0.3652165539350172  1.0000
  H   H12       1.0  0.8934882146268515  0.8656279744923533  0.7269521522682287  1.0000
  H   H13       1.0  0.8997267189475419  0.42819131912905933  0.606368344745714  1.0000
  H   H14       1.0  0.0022465431507101546  0.7459960107710292  0.19726860625876189  1.0000
  H   H15       1.0  0.013417026171103517  0.7639539513935292  0.9585918395760484  1.0000
  H   H16       1.0  0.852837388854417  0.08417828002460026  0.9363732820964525  1.0000
  H   H17       1.0  0.8397456108604575  0.06636992336684466  0.17478516000922073  1.0000
  C   C27       1.0  0.9022406794806054  0.3785788531386461  0.17307442290062314  1.0000
  C   C28       1.0  0.8286559716731668  0.43147209475801007  0.16926328758789655  1.0000
  C   C29       1.0  0.7916298131693695  0.4580868695332135  0.049766261235329345  1.0000
  C   C30       1.0  0.8287427922563045  0.4314097784663177  0.9341203396723925  1.0000
  C   C31       1.0  0.9022831278453678  0.3785484375727852  0.935758048205682  1.0000
  C   C32       1.0  0.9386494331214977  0.3524079184473954  0.05578603341415489  1.0000
  O   O1        1.0  0.7181797627617451  0.5108835434957419  0.04166032651562013  1.0000
  C   C33       1.0  0.6735587517875271  0.5429577775368628  0.1507672511227547  1.0000
  H   H18       1.0  0.9302786601675906  0.3584259233837869  0.5019561995508222  1.0000
  H   H19       1.0  0.8004065590885966  0.45177796854740376  0.2592014552526811  1.0000
  H   H20       1.0  0.799648724040921  0.45232295054698124  0.8427593027677287  1.0000
  H   H21       1.0  0.9953908110229845  0.3116218332839458  0.05792118740094865  1.0000
  H   H22       1.0  0.9301140431506189  0.35854380912971595  0.6089687767572554  1.0000
  H   H23       1.0  0.6644199189840623  0.4544137387257853  0.21700293637299883  1.0000
  H   H24       1.0  0.6181986265700831  0.5827510625725749  0.11599863190012782  1.0000
  H   H25       1.0  0.7014024729822903  0.618056834124687  0.20366308234754937  1.0000
  Zn  Zn1       1.0  0.8199435568639372  0.3824661079134108  0.555625764710795  1.0000
  Zn  Zn2       1.0  0.984573046344968  0.37466089190879664  0.5532061996207278  1.0000
  C   C34       1.0  0.9022724601112788  0.3733806786176198  0.7915943907694334  1.0000
  C   C35       1.0  0.9022459411571179  0.38374787455569137  0.3172376746400867  1.0000
  C   C36       1.0  0.9023016743927095  0.615751715102751  0.5492475869571105  1.0000
  C   C37       1.0  0.9022166704140134  0.14137528045780656  0.5595845484715793  1.0000
  O   O2        1.0  0.96472373925871  0.38251494093098076  0.36470196638355357  1.0000
  O   O3        1.0  0.9647446350564458  0.3686886542059849  0.7422933312628506  1.0000
  O   O4        1.0  0.9647673838264867  0.5644063712436753  0.5465965849534395  1.0000
  O   O5        1.0  0.9647009343080787  0.18679723585061364  0.5603986161510917  1.0000
  O   O6        1.0  0.8398156127208611  0.5703297666365448  0.5484333489992792  1.0000
  O   O7        1.0  0.8397928642325283  0.3746136098765584  0.7441300261083699  1.0000
  O   O8        1.0  0.8397719683895021  0.38843985140634585  0.36653709993748  1.0000
  O   O9        1.0  0.8397491634394958  0.1927221370336068  0.56223384706574  1.0000
