data_image0
_chemical_formula_structural       NC12NC2H8C6H6C12H9Zn2C4O8
_chemical_formula_sum              "N2 C36 H23 Zn2 O8"
_cell_length_a       19.240039667572717
_cell_length_b       10.681118228259551
_cell_length_c       14.389300134226545
_cell_angle_alpha    83.1335448611894
_cell_angle_beta     90.2220102004637
_cell_angle_gamma    89.9983060793227

_space_group_name_H-M_alt    "P 1"
_space_group_IT_number       1

loop_
  _space_group_symop_operation_xyz
  'x, y, z'

loop_
  _atom_site_type_symbol
  _atom_site_label
  _atom_site_symmetry_multiplicity
  _atom_site_fract_x
  _atom_site_fract_y
  _atom_site_fract_z
  _atom_site_occupancy
  N   N1        1.0  0.6514697930154448  0.4294531788307603  0.9703340873328506  1.0000
  C   C1        1.0  0.5913214240261124  0.4294532631837968  0.9703340284395487  1.0000
  C   C2        1.0  0.5165033865970055  0.42945338192978744  0.9703339297492724  1.0000
  C   C3        1.0  0.48024616380502033  0.3630357928742334  0.04466385518829243  1.0000
  C   C4        1.0  0.4075755977754642  0.3629253110149444  0.04472605793752138  1.0000
  C   C5        1.0  0.3701711511838043  0.42945348055637916  0.9703337660960649  1.0000
  C   C6        1.0  0.4071423833817722  0.4959818224025899  0.8959416140942178  1.0000
  C   C7        1.0  0.4798132541748964  0.4958711084143374  0.8960039048891923  1.0000
  C   C8        1.0  0.2929660605466012  0.42945340862999926  0.9703336975098547  1.0000
  C   C9        1.0  0.2558672788515949  0.31851487165804815  0.00042669551887730955  1.0000
  C   C10       1.0  0.1831963984931787  0.3186217114516953  0.0003610546792196526  1.0000
  C   C11       1.0  0.146633773752354  0.42945328156431234  0.9703337412878619  1.0000
  C   C12       1.0  0.0718157371173177  0.4294531616531511  0.970333920019911  1.0000
  N   N2        1.0  0.011667420700137302  0.429453113712738  0.9703340698288812  1.0000
  C   C13       1.0  0.1830186597567418  0.5402849269725425  0.9403063898812932  1.0000
  C   C14       1.0  0.2556891636587126  0.5403919471439407  0.9402406321752776  1.0000
  H   H1        1.0  0.5081300532036984  0.31158598385468816  0.1026985618929073  1.0000
  H   H2        1.0  0.3806536262296868  0.3121991905482713  0.10356260580219068  1.0000
  H   H3        1.0  0.3798778240330444  0.5467079710475806  0.8371050296809023  1.0000
  H   H4        1.0  0.5073591368155439  0.5473208094052329  0.837969396421174  1.0000
  H   H5        1.0  0.283026899742945  0.23126119274457313  0.022827082259654585  1.0000
  H   H6        1.0  0.155550040430714  0.2321926015297928  0.023503956444184685  1.0000
  H   H7        1.0  0.15523519440212105  0.6267140126352382  0.9171634985743367  1.0000
  H   H8        1.0  0.2827160214900373  0.6276457042483932  0.9178402132554278  1.0000
  C   C15       1.0  0.8315719653218834  0.06170292439067283  0.9703380824683372  1.0000
  C   C16       1.0  0.8622982880221218  0.9829473611112098  0.04447243566879733  1.0000
  C   C17       1.0  0.8622982772722024  0.8520651253776734  0.044472392990186904  1.0000
  C   C18       1.0  0.8315719537696938  0.7971933260382968  0.9703381228217616  1.0000
  C   C19       1.0  0.8008710661139564  0.8759339838110698  0.896265032329508  1.0000
  C   C20       1.0  0.8008710768151757  0.006826239741867028  0.896265070216266  1.0000
  H   H9        1.0  0.8004991496768319  0.3724891288775571  0.8953685651393931  1.0000
  H   H10       1.0  0.8863830704939469  0.02239767027316297  0.10258241156159553  1.0000
  H   H11       1.0  0.886382984993599  0.7938936426210217  0.10258239507224232  1.0000
  H   H12       1.0  0.7767831432901932  0.8365296518845925  0.8381474690688929  1.0000
  H   H13       1.0  0.7767831250497857  0.06495409135284677  0.8381474614784604  1.0000
  H   H14       1.0  0.8004994048370426  0.5105597924381641  0.8953683126223573  1.0000
  C   C21       1.0  0.8307768375654521  0.44513474869300884  0.6962129643919936  1.0000
  C   C22       1.0  0.8686152844651356  0.5193198888524881  0.6266698193146627  1.0000
  C   C23       1.0  0.870143784752057  0.4883655628539456  0.5350251480373658  1.0000
  C   C24       1.0  0.8339167734784458  0.3825330777747089  0.5109174270219865  1.0000
  C   C25       1.0  0.796133632310444  0.3083662093557813  0.5805530170012552  1.0000
  C   C26       1.0  0.7945575913766278  0.339376762765428  0.6721853248664516  1.0000
  C   C27       1.0  0.8355615690187741  0.3495830359983331  0.4135357987199475  1.0000
  C   C28       1.0  0.8307859257194169  0.4443553579076197  0.33689616947442586  1.0000
  C   C29       1.0  0.8323670564679732  0.41376144840252493  0.2444632592388336  1.0000
  C   C30       1.0  0.838813943491686  0.28678188893567524  0.22935470030920854  1.0000
  C   C31       1.0  0.8435419504273585  0.19232294735466748  0.3050399333746629  1.0000
  C   C32       1.0  0.8419171504566427  0.22320807812373594  0.3965607366918449  1.0000
  H   H15       1.0  0.7898193158402369  0.42479255341777866  0.9284167408352724  1.0000
  H   H16       1.0  0.8972416994314577  0.6012230806140064  0.6430633616597488  1.0000
  H   H17       1.0  0.9004765546375921  0.5463714140607023  0.48324843081960195  1.0000
  H   H18       1.0  0.7669904405791691  0.22718045507425977  0.5638912262272214  1.0000
  H   H19       1.0  0.7647829013907957  0.2805510027207082  0.7241151740081384  1.0000
  H   H20       1.0  0.8248814138810601  0.5418108918341202  0.3493387539169617  1.0000
  H   H21       1.0  0.8402179046483151  0.260278161166976  0.15907143952127  1.0000
  H   H22       1.0  0.8486812339131619  0.09475389950345026  0.2927058416397086  1.0000
  H   H23       1.0  0.8465645188037062  0.14840093483378247  0.4540654689688277  1.0000
  Zn  Zn1       1.0  0.7554150724524819  0.42944950863551673  0.9703394649061747  1.0000
  Zn  Zn2       1.0  0.9077221821321476  0.4294461327686738  0.9703363106653261  1.0000
  C   C33       1.0  0.8320649330457234  0.4147027683967927  0.1408321982749968  1.0000
  C   C34       1.0  0.83107398499352  0.4441944478310045  0.799843668884082  1.0000
  C   C35       1.0  0.8315575818432264  0.6583828262784146  0.9666182398451703  1.0000
  C   C36       1.0  0.8315812843686431  0.20051288251935628  0.9740576770831155  1.0000
  O   O1        1.0  0.8889734647532638  0.44387212973375145  0.8346218829715442  1.0000
  O   O2        1.0  0.8897630246068127  0.4150215949304143  0.10605132147391597  1.0000
  O   O3        1.0  0.8893525557415439  0.6117962678975661  0.9653723174653785  1.0000
  O   O4        1.0  0.889383881443416  0.24709746973147342  0.9753008169889712  1.0000
  O   O5        1.0  0.7737533211662573  0.6117981716755133  0.9653749585786957  1.0000
  O   O6        1.0  0.7741637898839447  0.4150250061411835  0.10605391281419285  1.0000
  O   O7        1.0  0.773374226821251  0.4438755615289136  0.834623351988623  1.0000
  O   O8        1.0  0.7737846437115641  0.24710088856455775  0.9753023559933269  1.0000
