data_image0
_chemical_formula_structural       NC11NC3H8C10ClC2H9C11NC2H9Zn2C4O8
_chemical_formula_sum              "N3 C43 H26 Cl1 Zn2 O8"
_cell_length_a       17.807433833752565
_cell_length_b       10.299769246903262
_cell_length_c       10.299775503585812
_cell_angle_alpha    85.57618843231185
_cell_angle_beta     88.53633354510187
_cell_angle_gamma    90.70297831868984

_space_group_name_H-M_alt    "P 1"
_space_group_IT_number       1

loop_
  _space_group_symop_operation_xyz
  'x, y, z'

loop_
  _atom_site_type_symbol
  _atom_site_label
  _atom_site_symmetry_multiplicity
  _atom_site_fract_x
  _atom_site_fract_y
  _atom_site_fract_z
  _atom_site_occupancy
  N   N1        1.0  0.7074990839507367  0.43810847285676724  0.534779202605346  1.0000
  C   C1        1.0  0.6566813719600126  0.40339822068575565  0.6013369163046649  1.0000
  C   C2        1.0  0.5934590121029275  0.36022152736733126  0.6841262183980925  1.0000
  C   C3        1.0  0.6051894708411003  0.2967016812309269  0.8068361065461587  1.0000
  C   C4        1.0  0.5438745341842347  0.25520419376158343  0.8873416550675722  1.0000
  C   C5        1.0  0.4706748120401641  0.27691344229121184  0.8457780671706365  1.0000
  C   C6        1.0  0.4579675319384793  0.3405877266572852  0.7226080111437607  1.0000
  C   C7        1.0  0.3801994947380523  0.3636264072836746  0.6782639623058915  1.0000
  C   C8        1.0  0.3613968294226336  0.3467227760520207  0.5486897955114067  1.0000
  C   C9        1.0  0.2881671521469579  0.36839328618541556  0.5070821370896226  1.0000
  C   C10       1.0  0.2327970244490035  0.4072857527892951  0.5942284248761471  1.0000
  C   C11       1.0  0.1574305802526233  0.42961439122198763  0.5512595653586103  1.0000
  N   N2        1.0  0.0968413326383453  0.4475649576712779  0.5167157295704563  1.0000
  C   C12       1.0  0.2509080999251063  0.4243998299659045  0.723271492412334  1.0000
  C   C13       1.0  0.324085040456994  0.4026944523085616  0.7651345656426787  1.0000
  C   C14       1.0  0.5201397816553905  0.3820806532295217  0.6421188774400517  1.0000
  H   H1        1.0  0.6616561396405234  0.27929547558802703  0.8401993192343976  1.0000
  H   H2        1.0  0.5530751230343935  0.20577540357840807  0.9820711872557203  1.0000
  H   H3        1.0  0.4240369505158141  0.24237315572516208  0.9092126657558927  1.0000
  H   H4        1.0  0.40306085017191207  0.315064509590375  0.4799758059455008  1.0000
  H   H5        1.0  0.2747107765655527  0.35448833714627703  0.407052369982174  1.0000
  H   H6        1.0  0.20852700547397363  0.4548349560390296  0.7914706992290073  1.0000
  H   H7        1.0  0.33701324772062263  0.4181447513313849  0.8649816399170819  1.0000
  H   H8        1.0  0.511637951794525  0.4328718400258993  0.547623694878191  1.0000
  C   C15       1.0  0.9021031626113789  0.06146995747704655  0.5257453133592531  1.0000
  C   C16       1.0  0.9090246911001327  0.07115164240870331  0.38922152110090824  1.0000
  C   C17       1.0  0.9126036930524836  0.9589197503081027  0.3200511278929312  1.0000
  C   C18       1.0  0.9091673030833328  0.8358669542340844  0.3892368471005567  1.0000
  C   C19       1.0  0.9022444578214855  0.824193631233298  0.525760425677313  1.0000
  C   C20       1.0  0.8987513531606344  0.9375528748536016  0.5932501226726945  1.0000
  C   C21       1.0  0.9199273925388013  0.9702151956866901  0.17562039467534585  1.0000
  C   C22       1.0  0.9686287542309987  0.8884404123974144  0.11087559846643624  1.0000
  C   C23       1.0  0.9754551479172374  0.8992661826548426  0.9749270113880187  1.0000
  C   C24       1.0  0.9337984127502903  0.99160856077421  0.9020591642884601  1.0000
  Cl  Cl1       1.0  0.9424458797559299  0.004945804426058413  0.7315057449337616  1.0000
  C   C25       1.0  0.8852399939416327  0.07330659923686687  0.9653064753295437  1.0000
  C   C26       1.0  0.8782803536826752  0.06287018367251031  0.10124095434128799  1.0000
  H   H9        1.0  0.8994369985613264  0.3852337702812847  0.5777656447407686  1.0000
  H   H10       1.0  0.9126836031959802  0.16622944907973625  0.33646532309626265  1.0000
  H   H11       1.0  0.9108690437278097  0.7490576464990412  0.3362717822114667  1.0000
  H   H12       1.0  0.8934114569630176  0.9293158122734492  0.6985718855422778  1.0000
  H   H13       1.0  0.8996420344330842  0.4922923874306108  0.577786858806234  1.0000
  H   H14       1.0  0.002135646651039379  0.8173306307502043  0.16542352464172394  1.0000
  H   H15       1.0  0.013290429852192082  0.8360220804633864  0.9263858365471446  1.0000
  H   H16       1.0  0.8527079779235937  0.14472961495739317  0.9092609590119548  1.0000
  H   H17       1.0  0.8396318661356585  0.126049953931346  0.14809470296209515  1.0000
  C   C27       1.0  0.9021273447752507  0.4427381223356635  0.14440130172875687  1.0000
  C   C28       1.0  0.8426398757871827  0.5310625515917473  0.13921983551551165  1.0000
  C   C29       1.0  0.8125441865522864  0.5759120552757686  0.019446236532395078  1.0000
  C   C30       1.0  0.8427334839606123  0.5312515395734629  0.903914487078412  1.0000
  C   C31       1.0  0.9022202680609805  0.4429255036724138  0.907104451300611  1.0000
  C   C32       1.0  0.9315842095240011  0.39916389374643807  0.027822279367470726  1.0000
  C   C33       1.0  0.749612060468149  0.6693546872895229  0.015018568698608624  1.0000
  C   C34       1.0  0.7491172400124566  0.774398432313818  0.9192060284559616  1.0000
  C   C35       1.0  0.6898651391757054  0.862315580475797  0.9151657224462634  1.0000
  C   C36       1.0  0.6303501294824086  0.8464420792745955  0.006631554081654615  1.0000
  C   C37       1.0  0.5693658265620334  0.9369963127624166  0.00234352843260632  1.0000
  N   N3        1.0  0.5203385571652598  0.009795662548675033  0.9988960406519949  1.0000
  C   C38       1.0  0.630294920548499  0.7422784969482028  0.10227843306781037  1.0000
  C   C39       1.0  0.6895105132488005  0.6542874451272545  0.10656937039990977  1.0000
  H   H18       1.0  0.9247735970864743  0.4090391652556431  0.47383328970937777  1.0000
  H   H19       1.0  0.8202510669415302  0.5665611025010773  0.2284005910401492  1.0000
  H   H20       1.0  0.8190554539191243  0.5641525730225967  0.8114922397879764  1.0000
  H   H21       1.0  0.9774758681073169  0.33102516425678785  0.031051435273972805  1.0000
  H   H22       1.0  0.9249096914294557  0.4093121878094412  0.5808623450924513  1.0000
  H   H23       1.0  0.795026753449511  0.7895221896410236  0.8484602296168672  1.0000
  H   H24       1.0  0.6905796665135788  0.9428182935850579  0.8409159513525482  1.0000
  H   H25       1.0  0.5844008028999278  0.7288621170854479  0.17335120946697247  1.0000
  H   H26       1.0  0.6878228549044219  0.5735004382455438  0.18042515335392695  1.0000
  Zn  Zn1       1.0  0.8198548467333836  0.4408339373215908  0.529573958589753  1.0000
  Zn  Zn2       1.0  0.9844855544176245  0.44482887627280904  0.5219315589076756  1.0000
  C   C40       1.0  0.9022000533943688  0.43771638283343717  0.7629372218758619  1.0000
  C   C41       1.0  0.9021421458378727  0.4479481130275545  0.2885683396600165  1.0000
  C   C42       1.0  0.9022132317320347  0.6800212757341679  0.5205828458422188  1.0000
  C   C43       1.0  0.9021289110426941  0.20564165848654636  0.5309227875059608  1.0000
  O   O1        1.0  0.9646236077463382  0.4512070262991943  0.3340518636086862  1.0000
  O   O2        1.0  0.9646694890959727  0.43748855598016756  0.7116529195530708  1.0000
  O   O3        1.0  0.9646792887217391  0.6331528012556473  0.5159500853326491  1.0000
  O   O4        1.0  0.964613751933123  0.25554278892676385  0.5297546030668818  1.0000
  O   O5        1.0  0.839726593037504  0.6301200233057715  0.5217509170316923  1.0000
  O   O6        1.0  0.8397167936888692  0.4344573383087045  0.7174536820409585  1.0000
  O   O7        1.0  0.8396709121906324  0.44817576298966283  0.3398510647636057  1.0000
  O   O8        1.0  0.8396610563844846  0.2525115163523184  0.5355539015851727  1.0000
