data_image0
_chemical_formula_structural       NC9NC5H8C6ClH5C6FH3Zn2C4O8
_chemical_formula_sum              "N2 C30 H16 Cl1 F1 Zn2 O8"
_cell_length_a       17.807436237873137
_cell_length_b       10.30297070629231
_cell_length_c       9.275646106892307
_cell_angle_alpha    84.95237181000357
_cell_angle_beta     89.39821068290671
_cell_angle_gamma    88.39001192287226

_space_group_name_H-M_alt    "P 1"
_space_group_IT_number       1

loop_
  _space_group_symop_operation_xyz
  'x, y, z'

loop_
  _atom_site_type_symbol
  _atom_site_label
  _atom_site_symmetry_multiplicity
  _atom_site_fract_x
  _atom_site_fract_y
  _atom_site_fract_z
  _atom_site_occupancy
  N   N1        1.0  0.7070811185617094  0.4027097628111262  0.39644688567877573  1.0000
  C   C1        1.0  0.6464910738359728  0.36764895248757345  0.3841952831349147  1.0000
  C   C2        1.0  0.5711237176028334  0.3240371657254774  0.3689556198352346  1.0000
  C   C3        1.0  0.5530083066067982  0.25376558529451415  0.2522592225142577  1.0000
  C   C4        1.0  0.4798304737922017  0.21131132417970216  0.23737066138013183  1.0000
  C   C5        1.0  0.4237193261123375  0.23875158104095506  0.3391424317664673  1.0000
  C   C6        1.0  0.3459501725073943  0.19374763911324153  0.32341096153267834  1.0000
  C   C7        1.0  0.2837797375789874  0.2752008052865875  0.352238575240458  1.0000
  C   C8        1.0  0.2104596030645333  0.2325434250765981  0.3373652186926841  1.0000
  C   C9        1.0  0.1472391611833331  0.31668319796803357  0.3665972624249232  1.0000
  N   N2        1.0  0.09642291403856541  0.384325742579963  0.3900990181904731  1.0000
  C   C10       1.0  0.19872635287117074  0.10817525187200426  0.2936360754949514  1.0000
  C   C11       1.0  0.2600394160613834  0.026708327373550007  0.26479913777285957  1.0000
  C   C12       1.0  0.33324007233743047  0.06897345439908097  0.27944740026684234  1.0000
  C   C13       1.0  0.4425261916349158  0.3095150299056577  0.4560824732510252  1.0000
  C   C14       1.0  0.5157568602316235  0.35178061872676175  0.47079804965105243  1.0000
  H   H1        1.0  0.5953868351067011  0.23205289444140237  0.17256024728736796  1.0000
  H   H2        1.0  0.46689897216227605  0.15853118551944068  0.1452158366721017  1.0000
  H   H3        1.0  0.2922837884180201  0.3723262872166544  0.38433151019243783  1.0000
  H   H4        1.0  0.14225891148246117  0.07426317711586639  0.2818612924587256  1.0000
  H   H5        1.0  0.2508367459566042  0.9304154932067609  0.23137210948046216  1.0000
  H   H6        1.0  0.3798765620003094  0.0034527713984615605  0.25827767128498524  1.0000
  H   H7        1.0  0.4008648395189458  0.3306750290193516  0.537220106934714  1.0000
  H   H8        1.0  0.5292164730337097  0.40579206844924437  0.5617952485461413  1.0000
  C   C15       1.0  0.9017555931261679  0.012270091373533862  0.39327914284423526  1.0000
  C   C16       1.0  0.9793365120896342  0.005197317427853462  0.4198142315310378  1.0000
  C   C17       1.0  0.01783009339109998  0.8847311528294527  0.4329801334156036  1.0000
  C   C18       1.0  0.979336511475862  0.7700893494376041  0.41981416366164814  1.0000
  C   C19       1.0  0.9017556011607679  0.7747550320148462  0.3932792253352595  1.0000
  C   C20       1.0  0.8633433136219805  0.896418612252013  0.3801409958806252  1.0000
  Cl  Cl1       1.0  0.11474714527634822  0.8773990909370739  0.46612868180691486  1.0000
  H   H9        1.0  0.8725322195670678  0.3422374075218794  0.38328303162609423  1.0000
  H   H10       1.0  0.010192328973801516  0.09290956903897406  0.4303677572684377  1.0000
  H   H11       1.0  0.010192299242655084  0.6777083786087308  0.43036765405617006  1.0000
  H   H12       1.0  0.8035105545799515  0.9009450233014378  0.35967629374484233  1.0000
  H   H13       1.0  0.8725322159595733  0.44920943840390487  0.3832833041857704  1.0000
  C   C21       1.0  0.9016681707669262  0.39758016427468323  0.969440140412396  1.0000
  C   C22       1.0  0.9704558480432041  0.4079011020123741  0.040379481822321095  1.0000
  C   C23       1.0  0.03831231331825014  0.40607567634287167  0.963827334782215  1.0000
  C   C24       1.0  0.03857281269009971  0.39376694931926415  0.8154468325458875  1.0000
  C   C25       1.0  0.970962380221684  0.3855551181503123  0.7425563384453877  1.0000
  C   C26       1.0  0.9018430104864871  0.38944494276896036  0.817118172446341  1.0000
  F   F1        1.0  0.10410261011372701  0.41469041780352667  0.03418990636949504  1.0000
  H   H14       1.0  0.7274644923624347  0.3003301529682978  0.08543325346825181  1.0000
  H   H15       1.0  0.09125492944717026  0.3918225255296523  0.7562725428086505  1.0000
  H   H16       1.0  0.7839069631208041  0.3293417125944491  0.5441952408935498  1.0000
  Zn  Zn1       1.0  0.8194367510195562  0.3974009873978443  0.3946233754541295  1.0000
  Zn  Zn2       1.0  0.9840672658309692  0.3896238213160337  0.39193439399824515  1.0000
  C   C27       1.0  0.901808308243323  0.38581070610322166  0.6568889025897091  1.0000
  C   C28       1.0  0.9016975063965798  0.40121565442236107  0.12966897916053877  1.0000
  C   C29       1.0  0.9017505591237538  0.630684498356388  0.38752773976834365  1.0000
  C   C30       1.0  0.9017551993550862  0.15634030427891418  0.3990302198486042  1.0000
  O   O1        1.0  0.9641837740934903  0.399478700192752  0.18242278670394652  1.0000
  O   O2        1.0  0.964272791911724  0.38164399580505015  0.6020938048616695  1.0000
  O   O3        1.0  0.9642253168648713  0.5793827052845126  0.3845827738649674  1.0000
  O   O4        1.0  0.9642311929407761  0.2017400036929548  0.39993371039968517  1.0000
  O   O5        1.0  0.8392727677294325  0.5852848076763741  0.38662405996271465  1.0000
  O   O6        1.0  0.839320242757032  0.3875476587426432  0.6041350140027426  1.0000
  O   O7        1.0  0.8392312246307885  0.40538233454008754  0.18446226056241266  1.0000
  O   O8        1.0  0.839278643497325  0.20764362771607647  0.4019732924691406  1.0000
