data_image0
_chemical_formula_structural       NC9NC4H8C6NO2H5C6NCOCH7Zn2C4O8
_chemical_formula_sum              "N4 C31 H20 O11 Zn2"
_cell_length_a       16.32274767691083
_cell_length_b       9.273392599741051
_cell_length_c       10.300272075376753
_cell_angle_alpha    85.66434630960563
_cell_angle_beta     89.46610543676563
_cell_angle_gamma    88.93063911827517

_space_group_name_H-M_alt    "P 1"
_space_group_IT_number       1

loop_
  _space_group_symop_operation_xyz
  'x, y, z'

loop_
  _atom_site_type_symbol
  _atom_site_label
  _atom_site_symmetry_multiplicity
  _atom_site_fract_x
  _atom_site_fract_y
  _atom_site_fract_z
  _atom_site_occupancy
  N   N1        1.0  0.7622544144817791  0.5687632453287068  0.5601068092337889  1.0000
  C   C1        1.0  0.7102391543201139  0.5160953121009006  0.505709603671711  1.0000
  C   C2        1.0  0.6455833153791757  0.45068132899452706  0.4381478394095705  1.0000
  C   C3        1.0  0.6576801841365354  0.36120667508321413  0.34573107675987713  1.0000
  C   C4        1.0  0.5785801023822416  0.31754256810246745  0.30063476175289416  1.0000
  C   C5        1.0  0.5192584825543778  0.38144397927071716  0.3666396745503173  1.0000
  C   C6        1.0  0.4294236983048665  0.36455540936350084  0.3491986976233612  1.0000
  C   C7        1.0  0.37337484729316  0.43903663374364865  0.4261242931597351  1.0000
  C   C8        1.0  0.28875410612715335  0.42460285038184686  0.4112181295478943  1.0000
  C   C9        1.0  0.23227940581450002  0.5013737648643694  0.4905077918279912  1.0000
  N   N2        1.0  0.18689276502639918  0.5630849473003245  0.554243251810149  1.0000
  C   C10       1.0  0.2591299101751077  0.3355673833822652  0.31926258525724016  1.0000
  C   C11       1.0  0.31385624285591024  0.2611848147000182  0.24243922456461162  1.0000
  C   C12       1.0  0.39832055219321666  0.27522981871022667  0.25694372842675683  1.0000
  C   C13       1.0  0.5564458951957558  0.47461929364049776  0.4628761634515037  1.0000
  H   H1        1.0  0.7167993059558561  0.32641420224334894  0.30979229803745567  1.0000
  H   H2        1.0  0.5707295901991633  0.2444150450439242  0.22510247209937215  1.0000
  H   H3        1.0  0.3950645138545643  0.5085438255139032  0.49791120425032614  1.0000
  H   H4        1.0  0.19381047539431523  0.3236769359584044  0.306983222868342  1.0000
  H   H5        1.0  0.29076669799499516  0.1923075802873335  0.17130318965954472  1.0000
  H   H6        1.0  0.43846371894012703  0.21572855160846702  0.19549037931239366  1.0000
  H   H7        1.0  0.539896279206112  0.43599370061783294  0.5642954795888373  1.0000
  H   H8        1.0  0.538984854081132  0.5902042900264741  0.4409468855894038  1.0000
  C   C14       1.0  0.9770752995804639  0.14236226727784507  0.5563238816382712  1.0000
  C   C15       1.0  0.9666427871597617  0.2258818135431224  0.43784246402040483  1.0000
  C   C16       1.0  0.9489792908234207  0.16105467998851705  0.32376529114208075  1.0000
  C   C17       1.0  0.9411635582477527  0.010742837909240247  0.3249887708909538  1.0000
  C   C18       1.0  0.9528741903180374  0.9260380888625371  0.4425469838909422  1.0000
  C   C19       1.0  0.9720797991724769  0.9894746403084069  0.5580372566768981  1.0000
  N   N3        1.0  0.922225124247375  0.9445164079804116  0.207121385199406  1.0000
  O   O1        1.0  0.9114757145631013  0.027790966936511285  0.09198064884910351  1.0000
  O   O2        1.0  0.9150097097667851  0.8106795842681467  0.20742833486544887  1.0000
  H   H9        1.0  0.9603841965429455  0.21897556382570668  0.8752760008282318  1.0000
  H   H10       1.0  0.9702248057582489  0.3426773753630883  0.4339562753606627  1.0000
  H   H11       1.0  0.9406084220724685  0.22910910816839802  0.23462869316358811  1.0000
  H   H12       1.0  0.9489165211062716  0.8094886009650084  0.44352601381810347  1.0000
  H   H13       1.0  0.9636333137521482  0.6914417114145179  0.7735589505439209  1.0000
  C   C20       1.0  0.9745834061107812  0.5660648574837417  0.17582805519961475  1.0000
  C   C21       1.0  0.8905246862661976  0.6013067070142089  0.1736159379257871  1.0000
  C   C22       1.0  0.8484031395036413  0.6210104038336761  0.05508718589428274  1.0000
  C   C23       1.0  0.8905349074369853  0.6009777485124403  0.9384811994925268  1.0000
  C   C24       1.0  0.9745717156702417  0.5657720340531627  0.9385331419160496  1.0000
  C   C25       1.0  0.01621876389650766  0.5490380923131142  0.05771690429576703  1.0000
  N   N4        1.0  0.7620668336778536  0.6548722427640215  0.051361186656404094  1.0000
  C   C26       1.0  0.7208626741414651  0.7452044051165487  0.13955637818735234  1.0000
  O   O3        1.0  0.7610783511821854  0.8218054351778692  0.21141360523157204  1.0000
  C   C27       1.0  0.6294624870150024  0.7570345093893223  0.1397266266326096  1.0000
  H   H14       1.0  0.8574878723193244  0.6106049866714456  0.26423245445646226  1.0000
  H   H15       1.0  0.857414654284443  0.6142334740507578  0.8475941575889898  1.0000
  H   H16       1.0  0.08105545124477875  0.5218961082390474  0.05861145407542167  1.0000
  H   H17       1.0  0.7280449772653297  0.6193598167047747  0.9748043594371265  1.0000
  H   H18       1.0  0.6028904476681691  0.6496073782019265  0.12750852764803433  1.0000
  H   H19       1.0  0.6067849492636027  0.7958619405809733  0.23315964530602692  1.0000
  H   H20       1.0  0.609321385142076  0.8343844233341848  0.05829192982166908  1.0000
  Zn  Zn1       1.0  0.8847958986765575  0.5671207370916502  0.5584222050576537  1.0000
  Zn  Zn2       1.0  0.06435135663874031  0.564715615446171  0.555938470769161  1.0000
  C   C28       1.0  0.974605960921083  0.5600813789034005  0.7943539265241168  1.0000
  C   C29       1.0  0.9745432444000997  0.5717567672302535  0.320006853322389  1.0000
  C   C30       1.0  0.973019915278909  0.8293544398340329  0.5525385236417137  1.0000
  C   C31       1.0  0.9761292389907182  0.3024819741667526  0.561822322782886  1.0000
  O   O4        1.0  0.0426701634065243  0.572748000435418  0.36745199811598295  1.0000
  O   O5        1.0  0.04275748629992404  0.557263626049231  0.7450233088444225  1.0000
  O   O6        1.0  0.04147581580018887  0.774705039959074  0.5497556758726465  1.0000
  O   O7        1.0  0.043951772576793724  0.3553065977017049  0.5627195345856753  1.0000
  O   O8        1.0  0.9051954214650286  0.776529755658439  0.5516411420818883  1.0000
  O   O9        1.0  0.9064770817428451  0.5590900747037876  0.7469087093163196  1.0000
  O   O10       1.0  0.9063897592243291  0.5745743994257133  0.36933583715186824  1.0000
  O   O11       1.0  0.9076713684505896  0.35713298633819335  0.5646034709643939  1.0000
