data_image0
_chemical_formula_structural       NC8NH4C6BrH5C6NCH7Zn2C4O8
_chemical_formula_sum              "N3 C25 H16 Br1 Zn2 O8"
_cell_length_a       13.859017124695912
_cell_length_b       9.276564384272257
_cell_length_c       9.273390368590327
_cell_angle_alpha    86.11919172510322
_cell_angle_beta     89.99082906418701
_cell_angle_gamma    90.58596084768166

_space_group_name_H-M_alt    "P 1"
_space_group_IT_number       1

loop_
  _space_group_symop_operation_xyz
  'x, y, z'

loop_
  _atom_site_type_symbol
  _atom_site_label
  _atom_site_symmetry_multiplicity
  _atom_site_fract_x
  _atom_site_fract_y
  _atom_site_fract_z
  _atom_site_occupancy
  N   N1        1.0  0.9194475705077622  0.5613243019961844  0.4088725202640753  1.0000
  C   C1        1.0  0.8469385190865585  0.5378694922288958  0.35273210296872115  1.0000
  C   C2        1.0  0.7567415776845209  0.508695130538821  0.28290063871506343  1.0000
  C   C3        1.0  0.6693137895716746  0.5371371637425817  0.3509775299176987  1.0000
  C   C4        1.0  0.5815112662353087  0.5086963501542985  0.282900058416371  1.0000
  C   C5        1.0  0.5813188893345984  0.4518057817943652  0.14672479815826645  1.0000
  C   C6        1.0  0.6685648374573051  0.42347306824916386  0.0789099532675206  1.0000
  C   C7        1.0  0.7561842320869893  0.45180344495812846  0.1467259784196211  1.0000
  C   C8        1.0  0.49169868672765105  0.5378704134508507  0.35273160420032235  1.0000
  N   N2        1.0  0.4194986983117061  0.5613246222971835  0.40887230399565433  1.0000
  H   H1        1.0  0.6696039026841457  0.5811726644159427  0.4563804431298144  1.0000
  H   H2        1.0  0.513875974199629  0.4294208019922625  0.09314083075761648  1.0000
  H   H3        1.0  0.6682753830422189  0.37952749777421424  0.9737204981224771  1.0000
  H   H4        1.0  0.8233321602840881  0.4294163751357323  0.09314301195931574  1.0000
  C   C9        1.0  0.16657066073201987  0.1378474259029583  0.40924098524967456  1.0000
  C   C10       1.0  0.1542098446986464  0.21994707325686474  0.2775113847025328  1.0000
  C   C11       1.0  0.15082878336859906  0.1535716425734741  0.1470122008668071  1.0000
  C   C12       1.0  0.15978718105919532  0.004151233684785985  0.14576470725807944  1.0000
  C   C13       1.0  0.17044823159053757  0.9203370912689546  0.2755023344152918  1.0000
  C   C14       1.0  0.1723847669507017  0.9847905325616013  0.4085162841225902  1.0000
  Br  Br1       1.0  0.15587123054711594  0.9138908550941719  0.9666970258506772  1.0000
  H   H5        1.0  0.13826860356353432  0.40288945680821076  0.6435601060223048  1.0000
  H   H6        1.0  0.1494482558818855  0.33657724582606785  0.2750439432463847  1.0000
  H   H7        1.0  0.1421613653718512  0.21872517784574372  0.04661810857917125  1.0000
  H   H8        1.0  0.1749127555205836  0.8040640958407609  0.2723949415784812  1.0000
  H   H9        1.0  0.22560527617269124  0.6892429786591782  0.6329925989359189  1.0000
  C   C15       1.0  0.16949156282190717  0.5568220206365035  0.9856367344918326  1.0000
  C   C16       1.0  0.258092231033614  0.5539567654890118  0.05924163965926677  1.0000
  C   C17       1.0  0.34523918757796346  0.5644970794014215  0.9838178012374997  1.0000
  C   C18       1.0  0.34600051777826013  0.5782933237449766  0.8321780080455756  1.0000
  C   C19       1.0  0.2579712726740364  0.5787265977264506  0.7577655815245405  1.0000
  C   C20       1.0  0.16946388374864219  0.5658159932765923  0.8321205736265314  1.0000
  N   N3        1.0  0.4347896895777963  0.5904940511589805  0.7513792652514231  1.0000
  C   C21       1.0  0.5300583389785802  0.5906640811863348  0.8183672829134441  1.0000
  H   H10       1.0  0.01671983273946376  0.48755116036995805  0.2715360547184795  1.0000
  H   H11       1.0  0.41171050314791446  0.5631701656894219  0.04493991681108955  1.0000
  H   H12       1.0  0.9438299337377082  0.45378168134294583  0.7367254297786308  1.0000
  H   H13       1.0  0.4317245868973578  0.6000513110433452  0.6384952556109447  1.0000
  H   H14       1.0  0.536955475411186  0.6831715471859232  0.8877566640648888  1.0000
  H   H15       1.0  0.54112032915381  0.4875821217417562  0.884009416418043  1.0000
  H   H16       1.0  0.5866788234062799  0.6015660097353315  0.7334673676685184  1.0000
  Zn  Zn1       1.0  0.06375150059876657  0.5613206327374494  0.40888078868021904  1.0000
  Zn  Zn2       1.0  0.27519467944311593  0.5613166535170571  0.4088758668400925  1.0000
  C   C22       1.0  0.16942750511010954  0.5583709964090227  0.6721219253875443  1.0000
  C   C23       1.0  0.16952099637090834  0.5642681108500285  0.14563486998403374  1.0000
  C   C24       1.0  0.17128099508201955  0.8246392561487093  0.40290991919204977  1.0000
  C   C25       1.0  0.1676674223518715  0.29799811934742326  0.41484695450441733  1.0000
  O   O1        1.0  0.24977241577620823  0.5667592853386132  0.19932984342646698  1.0000
  O   O2        1.0  0.2496565585309214  0.555875709479084  0.6184228024200962  1.0000
  O   O3        1.0  0.2511521933798344  0.7708907125842146  0.4010322014398584  1.0000
  O   O4        1.0  0.24827670885041542  0.35174429140261765  0.4167203363334828  1.0000
  O   O5        1.0  0.09066939903629834  0.7708929948547361  0.40103631918092564  1.0000
  O   O6        1.0  0.0891737760793432  0.5558797235153712  0.618426841830372  1.0000
  O   O7        1.0  0.08928963310053728  0.5667632307105674  0.1993321500425682  1.0000
  O   O8        1.0  0.08779392609645552  0.3517482276082841  0.4167227510169036  1.0000
