data_image0
_chemical_formula_structural       NC10NC5H10C12ClH9C12NCOH11Zn2C4O8
_chemical_formula_sum              "N3 C44 H30 Cl1 O9 Zn2"
_cell_length_a       19.4436361288709
_cell_length_b       10.299768534541528
_cell_length_c       10.299148425239203
_cell_angle_alpha    85.5385229165027
_cell_angle_beta     89.68967150439464
_cell_angle_gamma    89.43641405984484

_space_group_name_H-M_alt    "P 1"
_space_group_IT_number       1

loop_
  _space_group_symop_operation_xyz
  'x, y, z'

loop_
  _atom_site_type_symbol
  _atom_site_label
  _atom_site_symmetry_multiplicity
  _atom_site_fract_x
  _atom_site_fract_y
  _atom_site_fract_z
  _atom_site_occupancy
  N   N1        1.0  0.6480780481248776  0.4098861809752281  0.5620530980526833  1.0000
  C   C1        1.0  0.5892426701369792  0.4197793782903436  0.576438616610154  1.0000
  C   C2        1.0  0.5159140772621478  0.4321174897629778  0.5944328630327079  1.0000
  C   C3        1.0  0.47373219993888954  0.4001772947171123  0.49975053453794793  1.0000
  C   C4        1.0  0.39782885051335654  0.41061224332881247  0.5050795060362718  1.0000
  C   C5        1.0  0.35807709355810596  0.38580123944649675  0.6121587661997554  1.0000
  C   C6        1.0  0.2819582106830764  0.38972548054625444  0.5991986044266404  1.0000
  C   C7        1.0  0.24139749613193326  0.44733017125135327  0.6929790325833692  1.0000
  C   C8        1.0  0.16973552787414323  0.4509741184090223  0.682434516479606  1.0000
  C   C9        1.0  0.137639430366163  0.39661720023189145  0.5783961014437644  1.0000
  C   C10       1.0  0.0638482397717481  0.40032248173891966  0.5676962946431141  1.0000
  N   N2        1.0  0.004525127514430507  0.4033013335532338  0.559094359362436  1.0000
  C   C11       1.0  0.1774751066477109  0.3383052037736902  0.48499890322636846  1.0000
  C   C12       1.0  0.24915351478812012  0.33460718299058745  0.4952916204965419  1.0000
  C   C13       1.0  0.38619285651800084  0.3452633653465358  0.7432612715819726  1.0000
  C   C14       1.0  0.4448598554104859  0.3883564482710693  0.7905093556850809  1.0000
  C   C15       1.0  0.48908934911367014  0.4862570767420764  0.7161410298028891  1.0000
  H   H1        1.0  0.4958335376741625  0.371114313207265  0.40943557722096025  1.0000
  H   H2        1.0  0.3731415172254506  0.4331618124487473  0.41191526286088337  1.0000
  H   H3        1.0  0.2652687181596027  0.49057230739748325  0.7738354671360279  1.0000
  H   H4        1.0  0.139392445783953  0.49624465151096564  0.7553629893832646  1.0000
  H   H5        1.0  0.1531320080181893  0.2952585231245223  0.40447698597632775  1.0000
  H   H6        1.0  0.2788305539581858  0.28709288662168087  0.4230594256552773  1.0000
  H   H7        1.0  0.3552116681200319  0.2810092849820683  0.8075099208450922  1.0000
  H   H8        1.0  0.45999639536622816  0.35423168011978345  0.888449489764232  1.0000
  H   H9        1.0  0.45899736997041174  0.5769847340438166  0.6908915601822059  1.0000
  H   H10       1.0  0.5323736860304434  0.5118051671807782  0.7792319464728584  1.0000
  C   C16       1.0  0.8262400075244913  0.02522950560475067  0.5605721419403177  1.0000
  C   C17       1.0  0.8307884794902198  0.03476814096472536  0.4240560154382813  1.0000
  C   C18       1.0  0.8331593470112888  0.922460851582108  0.3548890489653749  1.0000
  C   C19       1.0  0.8309198389105795  0.7994779903734951  0.4240704161147306  1.0000
  C   C20       1.0  0.8263697489428872  0.7879478558921245  0.560586493993024  1.0000
  C   C21       1.0  0.8240558205175418  0.9013805666541506  0.6280728617377564  1.0000
  C   C22       1.0  0.8379721656629938  0.9336055835281047  0.21046636007599218  1.0000
  C   C23       1.0  0.798854023939942  0.027899394547139966  0.13632210379690535  1.0000
  C   C24       1.0  0.8034452661495072  0.03819220355177966  0.00039484135699208015  1.0000
  C   C25       1.0  0.8470884609130052  0.9547152652673394  0.9369204096774603  1.0000
  C   C26       1.0  0.8861955370858166  0.8607345338970264  0.009553432691051581  1.0000
  C   C27       1.0  0.881726433635195  0.8500472112035207  0.14549432559271946  1.0000
  Cl  Cl1       1.0  0.8527722219044621  0.967876584731142  0.766376433966526  1.0000
  H   H11       1.0  0.8244715261040713  0.34904921956606816  0.6125885458987164  1.0000
  H   H12       1.0  0.8334473572705533  0.12975340167280258  0.37129770600962764  1.0000
  H   H13       1.0  0.8317838324704447  0.7126503426020601  0.37111343509682215  1.0000
  H   H14       1.0  0.8205461872139285  0.8932537727157789  0.7333887748929224  1.0000
  H   H15       1.0  0.8246633359394797  0.4561000811278655  0.6126101842731921  1.0000
  H   H16       1.0  0.7640722868530727  0.0924983454619388  0.1833575122126035  1.0000
  H   H17       1.0  0.7729155672059327  0.11089353545347437  0.9445326106484143  1.0000
  H   H18       1.0  0.9202104620296165  0.7961038388371428  0.9608347943110354  1.0000
  H   H19       1.0  0.9131291044315462  0.7776236852204632  0.19985490159996044  1.0000
  C   C28       1.0  0.8263566330797176  0.40674358439958147  0.1791827013497405  1.0000
  C   C29       1.0  0.8961449341644059  0.4410129182587814  0.17463471336529857  1.0000
  C   C30       1.0  0.9314197766506075  0.45817600506981426  0.05519755399203974  1.0000
  C   C31       1.0  0.8959998840698925  0.4406754505928365  0.939378755460278  1.0000
  C   C32       1.0  0.8262531076808418  0.4064338230303344  0.9419759431922556  1.0000
  C   C33       1.0  0.7918406647130306  0.38965966929060025  0.0623803376091634  1.0000
  C   C34       1.0  0.005205860321256142  0.4944053509810442  0.05147933520242743  1.0000
  C   C35       1.0  0.051412600921945335  0.436181343556171  0.9674965905841934  1.0000
  C   C36       1.0  0.12081201250217655  0.47041231138280437  0.9641471445542582  1.0000
  C   C37       1.0  0.14562936372779636  0.5622259417691806  0.045452006156585525  1.0000
  C   C38       1.0  0.09935467982229709  0.6222974024906758  0.12786695553660743  1.0000
  C   C39       1.0  0.029924204082725447  0.5881736760805809  0.1313135028213397  1.0000
  N   N3        1.0  0.2170647446135101  0.5971129059788801  0.03832439182346437  1.0000
  C   C40       1.0  0.2566329601210702  0.6330546302150057  0.14672679794215826  1.0000
  O   O1        1.0  0.23335859863813102  0.6193221793905098  0.2612798755567212  1.0000
  H   H20       1.0  0.6947439506356922  0.3412960088679362  0.39511875201074315  1.0000
  H   H21       1.0  0.9234351869949814  0.45270407226118947  0.2643348422258953  1.0000
  H   H22       1.0  0.9226882674289182  0.4555739573618023  0.8469246431541403  1.0000
  H   H23       1.0  0.7380440364617783  0.36324469586976255  0.0650987022532028  1.0000
  H   H24       1.0  0.7994286353936326  0.39322723921145  0.6155017360711952  1.0000
  H   H25       1.0  0.03405961809638503  0.36299283539590016  0.905466293256993  1.0000
  H   H26       1.0  0.15555661890228234  0.42423294407211243  0.8989029095627918  1.0000
  H   H27       1.0  0.11631772957386022  0.6976576313944205  0.18749392477703045  1.0000
  H   H28       1.0  0.9952612082047354  0.637017763827477  0.1946645404427334  1.0000
  H   H29       1.0  0.2435159626748669  0.5876850255218662  0.9509215778656414  1.0000
  H   H30       1.0  0.30828231458418753  0.6691399030953642  0.13047496217000631  1.0000
  Zn  Zn1       1.0  0.7509409752129594  0.4079824618724978  0.561206782598781  1.0000
  Zn  Zn2       1.0  0.9016621886876005  0.40519444076649935  0.5599513565724278  1.0000
  C   C41       1.0  0.826270267788888  0.4013187866920731  0.7977916320051263  1.0000
  C   C42       1.0  0.8263345422440542  0.4118597240493291  0.32336662096351776  1.0000
  C   C43       1.0  0.8263423814502308  0.6437800548118162  0.555408299678264  1.0000
  C   C44       1.0  0.8262623768773031  0.16939689656958173  0.5657500229329795  1.0000
  O   O2        1.0  0.8835250424175233  0.41251304210126505  0.3712796337810298  1.0000
  O   O3        1.0  0.8834736810752801  0.39854844557256786  0.7489254059904873  1.0000
  O   O4        1.0  0.8835311425302926  0.5943389996349653  0.5531991566823121  1.0000
  O   O5        1.0  0.8834675295463661  0.21672249831988297  0.5670057861360249  1.0000
  O   O6        1.0  0.7691355829204424  0.5964544052719454  0.5541523534567673  1.0000
  O   O7        1.0  0.769078121737086  0.4006654115223843  0.7498785335439269  1.0000
  O   O8        1.0  0.769129483329285  0.4146299634289474  0.37223119981903735  1.0000
  O   O9        1.0  0.7690719704405208  0.2188394103193816  0.5679574495487962  1.0000
