data_image0
_chemical_formula_structural       NC12NC2H8C7OClH5C7OIH5Zn2C4O8
_chemical_formula_sum              "N2 C32 H18 O10 Cl1 I1 Zn2"
_cell_length_a       19.240039667572717
_cell_length_b       10.298511985553574
_cell_length_c       10.297413674417344
_cell_angle_alpha    85.55149777868054
_cell_angle_beta     90.01510859860609
_cell_angle_gamma    90.00036199947623

_space_group_name_H-M_alt    "P 1"
_space_group_IT_number       1

loop_
  _space_group_symop_operation_xyz
  'x, y, z'

loop_
  _atom_site_type_symbol
  _atom_site_label
  _atom_site_symmetry_multiplicity
  _atom_site_fract_x
  _atom_site_fract_y
  _atom_site_fract_z
  _atom_site_occupancy
  N   N1        1.0  0.6542797086799705  0.42164809436519457  0.5671586342793928  1.0000
  C   C1        1.0  0.5941313398514075  0.42164817836815766  0.567158552325796  1.0000
  C   C2        1.0  0.5193133026912584  0.42164829568753315  0.5671584149928575  1.0000
  C   C3        1.0  0.4828539689943581  0.357160364751828  0.6705920200966597  1.0000
  C   C4        1.0  0.41018323273552776  0.3570494579729491  0.6706785795177381  1.0000
  C   C5        1.0  0.3729810677220994  0.4216483882968429  0.5671581872628568  1.0000
  C   C6        1.0  0.41015458112398107  0.48624750560005214  0.46363798959406705  1.0000
  C   C7        1.0  0.4828252814453689  0.48613636327652576  0.4637246715387498  1.0000
  C   C8        1.0  0.2957759772687364  0.4216483096406345  0.5671580918251908  1.0000
  C   C9        1.0  0.25859369555763656  0.30836829599505955  0.6090359955265505  1.0000
  C   C10       1.0  0.1859229946433004  0.3084752219977773  0.6089446520058179  1.0000
  C   C11       1.0  0.1494436903537006  0.42164818044388586  0.5671581527465286  1.0000
  C   C12       1.0  0.0746256532334657  0.42164806665126325  0.5671584014596418  1.0000
  N   N2        1.0  0.0144773364106502  0.4216480257922859  0.5671586099237853  1.0000
  C   C13       1.0  0.1859118969135038  0.5348212147341511  0.5253716005862554  1.0000
  C   C14       1.0  0.25858258057883926  0.5349283209025575  0.5252800944385869  1.0000
  H   H1        1.0  0.5105800640155758  0.3072323060549332  0.751350047946101  1.0000
  H   H2        1.0  0.38310131520523055  0.30791941175354687  0.7525523717033276  1.0000
  H   H3        1.0  0.3830499678590634  0.5353775788825046  0.38176414654941904  1.0000
  H   H4        1.0  0.5105289579258272  0.536064321658662  0.3829669195431975  1.0000
  H   H5        1.0  0.2856910682769491  0.21919802682430106  0.6402088520839875  1.0000
  H   H6        1.0  0.15821239906916298  0.22020408411463954  0.6411507165953347  1.0000
  H   H7        1.0  0.1581926690418224  0.6230923280754554  0.49316555054991995  1.0000
  H   H8        1.0  0.28567168667068465  0.624098669265672  0.49410719310122775  1.0000
  C   C15       1.0  0.8343745458028544  0.04023486068246141  0.5671732698429357  1.0000
  C   C16       1.0  0.8952937533267598  0.04508366396138875  0.491881603458205  1.0000
  C   C17       1.0  0.9262975277726033  0.9304401708291433  0.4535632678706935  1.0000
  C   C18       1.0  0.8953254697420168  0.8098264677992089  0.49184238233942246  1.0000
  C   C19       1.0  0.8343891863081756  0.8030512716608101  0.5671551586211194  1.0000
  C   C20       1.0  0.8042727251073327  0.9187559851997967  0.604376937785807  1.0000
  C   C21       1.0  0.9907310900977896  0.9377759115236741  0.3739283630799668  1.0000
  O   O1        1.0  0.01787673533980794  0.046573800184255956  0.34037685898907144  1.0000
  Cl  Cl1       1.0  0.03164781758904067  0.7975682433018811  0.32336134730110855  1.0000
  H   H9        1.0  0.8110728148944637  0.365873133473045  0.5959721417242287  1.0000
  H   H10       1.0  0.9186969097235194  0.138518157630809  0.4629568883457915  1.0000
  H   H11       1.0  0.9184719767862664  0.7206958972230515  0.4632350195652449  1.0000
  H   H12       1.0  0.7572784748384704  0.9142473691258339  0.662458903529952  1.0000
  H   H13       1.0  0.8110192305948215  0.4729419440589105  0.596035759488303  1.0000
  C   C22       1.0  0.8343275513591724  0.42169548026571446  0.18571179119530035  1.0000
  C   C23       1.0  0.769377990582873  0.48425661606150205  0.17963923814528848  1.0000
  C   C24       1.0  0.7363911378521928  0.5160303335501295  0.059439778117985835  1.0000
  C   C25       1.0  0.769503209009112  0.48413586294114497  0.9444514076217306  1.0000
  C   C26       1.0  0.8344361826505122  0.4215906572787169  0.948616698633991  1.0000
  C   C27       1.0  0.8664505956485353  0.39075360996244735  0.06970743192035656  1.0000
  C   C28       1.0  0.6677091445949277  0.5821865188531081  0.05555704687783458  1.0000
  O   O2        1.0  0.6389640304744628  0.6098739232134125  0.15982036233478913  1.0000
  I   I1        1.0  0.6134747392583131  0.6344275398979253  0.8801051874377381  1.0000
  H   H14       1.0  0.9569575955119272  0.3035739489845708  0.404391356032725  1.0000
  H   H15       1.0  0.7444187531783394  0.5082980830508199  0.268950662495935  1.0000
  H   H16       1.0  0.7450426848165272  0.5076966281976156  0.8511442076325078  1.0000
  H   H17       1.0  0.9165165381339045  0.3425288050687483  0.07358146677866273  1.0000
  H   H18       1.0  0.8595738009516554  0.3973778003966531  0.6226731637258855  1.0000
  Zn  Zn1       1.0  0.7582249735174232  0.4216446059426758  0.5671661173988807  1.0000
  Zn  Zn2       1.0  0.9105320916504313  0.4216409180478735  0.5671617282765062  1.0000
  C   C29       1.0  0.8344139868815111  0.4164362005141602  0.804411419757034  1.0000
  C   C30       1.0  0.8343447415249168  0.42685096222848773  0.3299165533259092  1.0000
  C   C31       1.0  0.8343820946948307  0.6588634566461922  0.5619822887041028  1.0000
  C   C32       1.0  0.8343765817197577  0.1844221456044124  0.5723457536711514  1.0000
  O   O3        1.0  0.89215026816917  0.4285741231348308  0.3783113233090732  1.0000
  O   O4        1.0  0.892206038681362  0.41470926079608317  0.756012944626888  1.0000
  O   O5        1.0  0.8921795063612069  0.610472335867106  0.5602497060657377  1.0000
  O   O6        1.0  0.892176748503534  0.23281105736974794  0.5740744644755085  1.0000
  O   O7        1.0  0.7765802646893751  0.6104744666234743  0.5602533811945432  1.0000
  O   O8        1.0  0.7766067970264237  0.4147129520471682  0.756016550458048  1.0000
  O   O9        1.0  0.7765510263372388  0.42857776933925384  0.37831336739869054  1.0000
  O   O10       1.0  0.7765775066824482  0.23281469427090462  0.5740766059545062  1.0000
