data_image0
_chemical_formula_structural       NC5NC3H4C7NH5C6OCH6Zn2C4O8
_chemical_formula_sum              "N3 C26 H15 O9 Zn2"
_cell_length_a       13.859018345313864
_cell_length_b       9.275154477615127
_cell_length_c       9.273891588657152
_cell_angle_alpha    86.29931945807607
_cell_angle_beta     89.68012665511726
_cell_angle_gamma    89.43370600770291

_space_group_name_H-M_alt    "P 1"
_space_group_IT_number       1

loop_
  _space_group_symop_operation_xyz
  'x, y, z'

loop_
  _atom_site_type_symbol
  _atom_site_label
  _atom_site_symmetry_multiplicity
  _atom_site_fract_x
  _atom_site_fract_y
  _atom_site_fract_z
  _atom_site_occupancy
  N   N1        1.0  0.9041640191269985  0.5636006500834261  0.41628050578035314  1.0000
  C   C1        1.0  0.831877051865306  0.5245289094613637  0.46737678642176794  1.0000
  C   C2        1.0  0.7419563038953619  0.4759288978982353  0.5309337630393076  1.0000
  C   C3        1.0  0.6542592176168651  0.5233082202146389  0.46897349537238764  1.0000
  C   C4        1.0  0.5667260018266496  0.47592860637844625  0.5309336363394683  1.0000
  C   C5        1.0  0.4766371733565633  0.5245287959188973  0.4673766886645294  1.0000
  N   N2        1.0  0.40421511705616203  0.56360061556906  0.41628043662094233  1.0000
  C   C6        1.0  0.5670723753110631  0.3811556593858032  0.6548725838755902  1.0000
  C   C7        1.0  0.6545866046752021  0.3339587222182252  0.7165944137936677  1.0000
  C   C8        1.0  0.7419377161349078  0.381155956326088  0.6548727886988079  1.0000
  H   H1        1.0  0.6541323215391409  0.5966650664852509  0.37304141645439315  1.0000
  H   H2        1.0  0.4998413892102014  0.34386328197073457  0.7036411156448092  1.0000
  H   H3        1.0  0.6547131796171418  0.2607508053431338  0.8123319248010683  1.0000
  H   H4        1.0  0.8092976457502917  0.34386381565950397  0.7036415430431162  1.0000
  C   C9        1.0  0.15699266466683826  0.14019626826304687  0.4146124836176608  1.0000
  C   C10       1.0  0.1309898493645727  0.22222883815768738  0.2875213274116091  1.0000
  C   C11       1.0  0.09711317051015511  0.15510463230922422  0.1671623797813273  1.0000
  C   C12       1.0  0.0886793712267173  0.005032054055654548  0.1724771007777981  1.0000
  C   C13       1.0  0.11558746344637114  0.9217656750163983  0.29667131519851947  1.0000
  C   C14       1.0  0.15139571779594885  0.9869939945418179  0.4179609604644219  1.0000
  C   C15       1.0  0.0698324693858472  0.24070519616465938  0.038539443787811496  1.0000
  N   N3        1.0  0.04790636323672203  0.30951244068076766  0.9351595497177607  1.0000
  H   H5        1.0  0.1743591383304155  0.22005921381077556  0.7684323148136589  1.0000
  H   H6        1.0  0.13494660637494582  0.3391496548450039  0.2832444109453407  1.0000
  H   H7        1.0  0.06212888362240254  0.9520709875950334  0.07997369041229696  1.0000
  H   H8        1.0  0.11052123585257934  0.8052969353235149  0.29654446140548574  1.0000
  H   H9        1.0  0.16718803694957457  0.6903624043160954  0.6550303114058993  1.0000
  C   C16       1.0  0.15580012592421522  0.5597765271158577  0.9929962685560741  1.0000
  C   C17       1.0  0.23441578283355247  0.6206761576368496  0.06181077640662625  1.0000
  C   C18       1.0  0.30748715578771424  0.6923422498576504  0.9822844116121058  1.0000
  C   C19       1.0  0.3022034727287612  0.7034699991545759  0.8308878007184903  1.0000
  C   C20       1.0  0.22562072848667958  0.6416973403140079  0.7607276427327219  1.0000
  C   C21       1.0  0.15258823029152113  0.5674136588207117  0.8395771083554737  1.0000
  O   O1        1.0  0.38347946932517746  0.7514666569143431  0.057724807677894015  1.0000
  C   C22       1.0  0.46243431475303054  0.8273474137172783  0.9909484829722137  1.0000
  H   H10       1.0  0.926878323632712  0.47122016258313715  0.1036633456500915  1.0000
  H   H11       1.0  0.35742236963668783  0.7585275621483136  0.7661833726525051  1.0000
  H   H12       1.0  0.22479306001188212  0.6491283384826421  0.6436758504848226  1.0000
  H   H13       1.0  0.4358888202130854  0.9249173755626542  0.9269387199253241  1.0000
  H   H14       1.0  0.5031392339521574  0.7557895299539106  0.9202528572098375  1.0000
  H   H15       1.0  0.5115984454645148  0.8618109078204219  0.07592830233998704  1.0000
  Zn  Zn1       1.0  0.0484679566772712  0.5635968451500792  0.41628880379626954  1.0000
  Zn  Zn2       1.0  0.25991118927074885  0.5635926941651994  0.4162839309650137  1.0000
  C   C23       1.0  0.15323117540162956  0.5602261851901649  0.6795325079023773  1.0000
  C   C24       1.0  0.15515026693884826  0.5669651745886022  0.15304037547740545  1.0000
  C   C25       1.0  0.15247048187443535  0.826879361184701  0.41158394529451425  1.0000
  C   C26       1.0  0.15591089947329625  0.30031026700555397  0.4209890080866876  1.0000
  O   O2        1.0  0.2351738147259992  0.5693698848381981  0.20675076569407547  1.0000
  O   O3        1.0  0.23368815745309326  0.5578172329857503  0.625818000077869  1.0000
  O   O4        1.0  0.23307280042795978  0.7731430584334189  0.4094476459445766  1.0000
  O   O5        1.0  0.23578909994175112  0.3540440687311624  0.42312101179135486  1.0000
  O   O6        1.0  0.0725899738510891  0.7731454705870344  0.40945172296401533  1.0000
  O   O7        1.0  0.07320531971378919  0.5578213767307957  0.6258220070899758  1.0000
  O   O8        1.0  0.07469098395798879  0.5693739627049653  0.20675303947173584  1.0000
  O   O9        1.0  0.07530626882794268  0.3540481372602142  0.42312339359911544  1.0000
