data_image0
_chemical_formula_structural       NC6NC2H4C6NCH9C6H4Zn2C4O8
_chemical_formula_sum              "N3 C25 H17 Zn2 O8"
_cell_length_a       14.927258858638513
_cell_length_b       9.273386996610927
_cell_length_c       10.681121600428288
_cell_angle_alpha    85.46621756597041
_cell_angle_beta     89.99986493836577
_cell_angle_gamma    89.39858807063658

_space_group_name_H-M_alt    "P 1"
_space_group_IT_number       1

loop_
  _space_group_symop_operation_xyz
  'x, y, z'

loop_
  _atom_site_type_symbol
  _atom_site_label
  _atom_site_symmetry_multiplicity
  _atom_site_fract_x
  _atom_site_fract_y
  _atom_site_fract_z
  _atom_site_occupancy
  N   N1        1.0  0.8332753692225209  0.5788741992238986  0.6164060393565807  1.0000
  C   C1        1.0  0.7557488782408167  0.5788741707027591  0.616406048595892  1.0000
  C   C2        1.0  0.6593163699457718  0.5788742858472573  0.6164060051172424  1.0000
  C   C3        1.0  0.6124187243407153  0.5551739669801283  0.5063863732959939  1.0000
  C   C4        1.0  0.5187074128301374  0.5551739926262991  0.506386257322702  1.0000
  C   C5        1.0  0.4715003071122757  0.5788741082258255  0.6164060215546091  1.0000
  C   C6        1.0  0.3750677318256755  0.5788742233732891  0.6164059780708089  1.0000
  N   N2        1.0  0.2975412408439719  0.5788741948521493  0.6164059873101203  1.0000
  C   C7        1.0  0.5183978857257769  0.6025744270959199  0.726425653370707  1.0000
  C   C8        1.0  0.6121091972363547  0.6025744014497496  0.7264257693439986  1.0000
  H   H1        1.0  0.6482353090425527  0.5367337826569949  0.4207847853746103  1.0000
  H   H2        1.0  0.48313165224284566  0.5367339802740274  0.42078478080483683  1.0000
  H   H3        1.0  0.4825813680789242  0.621014601097369  0.8120273352016518  1.0000
  H   H4        1.0  0.6476849571863617  0.6210145111700016  0.8120273413060906  1.0000
  C   C9        1.0  0.06816739612314704  0.1552201982477992  0.6170214006413963  1.0000
  C   C10       1.0  0.08389710107482529  0.23869579575556601  0.5037917292184162  1.0000
  C   C11       1.0  0.09119197428242036  0.1741929051465274  0.3905550590066742  1.0000
  C   C12       1.0  0.08286749388313647  0.023892241020982974  0.38765286161856016  1.0000
  C   C13       1.0  0.06871649491341913  0.9394537290390219  0.500489198427226  1.0000
  C   C14       1.0  0.06265785609711005  0.002517055026918009  0.6158015153594348  1.0000
  N   N3        1.0  0.08940506326805057  0.9543529257788328  0.2720783084060645  1.0000
  C   C15       1.0  0.10432866908378884  0.032249420869193246  0.14987317353654284  1.0000
  H   H5        1.0  0.0864695886680733  0.4173649187707976  0.8226193807710841  1.0000
  H   H6        1.0  0.08846632141719707  0.35534168883673045  0.5022553396782756  1.0000
  H   H7        1.0  0.10248938169993616  0.24279502226314634  0.3054913159225954  1.0000
  H   H8        1.0  0.06448808011772679  0.8230526596873361  0.49851364114074337  1.0000
  H   H9        1.0  0.09564203707552736  0.8711551049663692  0.9208140001033969  1.0000
  H   H10       1.0  0.08307160800841845  0.8419858035682953  0.2746751417583151  1.0000
  H   H11       1.0  0.048793124172533925  0.11082298548865709  0.1281148597979349  1.0000
  H   H12       1.0  0.16916959583652424  0.08980116559000173  0.15007524759389668  1.0000
  H   H13       1.0  0.10658699164480123  0.9548128261001237  0.07573601165481181  1.0000
  C   C16       1.0  0.06541265525332052  0.5788686161970369  0.2486662177385679  1.0000
  C   C17       1.0  0.001814101421853343  0.4986322183976972  0.187359251820298  1.0000
  C   C18       1.0  0.0018140448888086546  0.4986323109034201  0.056477111734220875  1.0000
  C   C19       1.0  0.0654125843689075  0.578868686916909  0.9841566533130962  1.0000
  C   C20       1.0  0.12895864752932362  0.6590385927712932  0.045463134617923506  1.0000
  C   C21       1.0  0.12895863621327402  0.6590385704005721  0.1763554333131783  1.0000
  H   H14       1.0  0.951962552557498  0.4357391376606621  0.2404866382900699  1.0000
  H   H15       1.0  0.9519625334064408  0.43573920556992446  0.01198260896676473  1.0000
  H   H16       1.0  0.17881670589055276  0.7219399611971538  0.992380071583483  1.0000
  H   H17       1.0  0.1788166610836579  0.721939910623242  0.2208044391407049  1.0000
  Zn  Zn1       1.0  0.967252504194079  0.5788703321958357  0.6164132659496473  1.0000
  Zn  Zn2       1.0  0.16356419359411456  0.5788662448572643  0.6164090504371709  1.0000
  C   C22       1.0  0.06544799493177436  0.5731213264567578  0.8451415030656153  1.0000
  C   C23       1.0  0.06537083473748001  0.5846170708566336  0.3876809335673064  1.0000
  C   C24       1.0  0.06369468063951184  0.8423599271880189  0.6110417810504605  1.0000
  C   C25       1.0  0.06712409331303791  0.3153767368224156  0.6217807248446641  1.0000
  O   O1        1.0  0.13985610335683743  0.586538459687274  0.434333951411338  1.0000
  O   O2        1.0  0.13995876330074247  0.5711957470794365  0.7984849268210381  1.0000
  O   O3        1.0  0.13854193555028438  0.7886093221777426  0.6094477428612299  1.0000
  O   O4        1.0  0.14127286405231154  0.36912489491065226  0.6233710414615845  1.0000
  O   O5        1.0  0.9895437667443264  0.7886116821454128  0.6094512749200824  1.0000
  O   O6        1.0  0.9909605832199333  0.5711998403530292  0.7984883896125369  1.0000
  O   O7        1.0  0.990857923662595  0.5865425026869729  0.4343359086526335  1.0000
  O   O8        1.0  0.9922746844214977  0.36912892759163185  0.6233730926072916  1.0000
