data_image0
_chemical_formula_structural       NC5NC4H6C6NCH9C6ClH5Zn2C4O8
_chemical_formula_sum              "N3 C26 H20 Cl1 Zn2 O8"
_cell_length_a       13.854160002989762
_cell_length_b       9.273386996610926
_cell_length_c       10.302974078461048
_cell_angle_alpha    85.46621229036245
_cell_angle_beta     89.99987288003342
_cell_angle_gamma    89.39858485477477

_space_group_name_H-M_alt    "P 1"
_space_group_IT_number       1

loop_
  _space_group_symop_operation_xyz
  'x, y, z'

loop_
  _atom_site_type_symbol
  _atom_site_label
  _atom_site_symmetry_multiplicity
  _atom_site_fract_x
  _atom_site_fract_y
  _atom_site_fract_z
  _atom_site_occupancy
  N   N1        1.0  0.897818161830126  0.578874261429322  0.5656244394599068  1.0000
  C   C1        1.0  0.8253083721469953  0.6040945562139318  0.5124104919059378  1.0000
  C   C2        1.0  0.7351051707469675  0.6354692869802357  0.4462103040206169  1.0000
  C   C3        1.0  0.6477410661025507  0.6059762282773872  0.5108472126731298  1.0000
  C   C4        1.0  0.5599627582750407  0.6354693013144139  0.446210283130394  1.0000
  C   C5        1.0  0.4702002318178671  0.604094408846142  0.5124105746377086  1.0000
  N   N2        1.0  0.39804459167856926  0.5788741979116088  0.5656244394757711  1.0000
  C   C6        1.0  0.5595769276012119  0.695062021113469  0.3169526546335306  1.0000
  C   C7        1.0  0.6468931881575619  0.7267059082316731  0.252219409427769  1.0000
  C   C8        1.0  0.646473031999387  0.7865398741387533  0.11261453297059965  1.0000
  C   C9        1.0  0.7346540166463281  0.6950620197879462  0.31695257333171134  1.0000
  H   H1        1.0  0.6480657783977438  0.5597412903945189  0.6108904082229822  1.0000
  H   H2        1.0  0.49155092149181095  0.716855764326108  0.266802911022026  1.0000
  H   H3        1.0  0.7108482890228408  0.8547228696189978  0.09109169088879199  1.0000
  H   H4        1.0  0.5811398113508802  0.8547228714962978  0.09109174950084764  1.0000
  H   H5        1.0  0.6471094023531908  0.6959860775300153  0.04830735979724655  1.0000
  H   H6        1.0  0.8023738797833775  0.716855876846717  0.26680283392144943  1.0000
  C   C10       1.0  0.15090417291077607  0.15522023621163503  0.5662624198202955  1.0000
  C   C11       1.0  0.1678522464303278  0.23869584420981105  0.4488769090233495  1.0000
  C   C12       1.0  0.17571215315133482  0.17419296496006836  0.331484141355596  1.0000
  C   C13       1.0  0.16674288505700074  0.023892302001679463  0.3284754241175385  1.0000
  C   C14       1.0  0.1514957990150365  0.9394537794088892  0.4454531640595716  1.0000
  C   C15       1.0  0.14496788151558437  0.002517093688272798  0.5649977605912602  1.0000
  N   N3        1.0  0.17378682954384805  0.9543529984467933  0.20865896657845306  1.0000
  C   C16       1.0  0.1898663657526223  0.0322495050704108  0.081968567925353  1.0000
  H   H7        1.0  0.17062400194575522  0.41736493286322546  0.7794064161992829  1.0000
  H   H8        1.0  0.17277538389310232  0.3553417369850076  0.44728413039827725  1.0000
  H   H9        1.0  0.18788461855999267  0.24279509001107358  0.24329832561351084  1.0000
  H   H10       1.0  0.14693986468099252  0.8230527107036805  0.4434050977600108  1.0000
  H   H11       1.0  0.18050692230345122  0.8711551076133094  0.881205050538439  1.0000
  H   H12       1.0  0.16696280521460327  0.8419858766103955  0.21135110997946469  1.0000
  H   H13       1.0  0.13002921461677783  0.11082307773270128  0.05941165603882226  1.0000
  H   H14       1.0  0.2597296630446686  0.08980124309599022  0.0821780679384938  1.0000
  H   H15       1.0  0.19229960812589675  0.9548129179975134  0.005110367795865044  1.0000
  C   C17       1.0  0.14793604561266838  0.5788686938381746  0.1843875840972031  1.0000
  C   C18       1.0  0.1321959801742862  0.4290275098250418  0.19384490655457354  1.0000
  C   C19       1.0  0.12438623855469072  0.35468039554502934  0.08158058082591335  1.0000
  C   C20       1.0  0.13219602277296838  0.4290275913013319  0.958737007461858  1.0000
  C   C21       1.0  0.1479360436723678  0.5788686193684462  0.9468726032817778  1.0000
  C   C22       1.0  0.15572936774558613  0.6530588297614368  0.06035164577937069  1.0000
  Cl  Cl1       1.0  0.1047231606616596  0.16749315962884714  0.09489856606498237  1.0000
  H   H16       1.0  0.15386561314921773  0.6353112815996019  0.508128113049249  1.0000
  H   H17       1.0  0.12593580171565355  0.36943217184630905  0.28813153425916593  1.0000
  H   H18       1.0  0.12593586930899595  0.3694321512604093  0.8729305682159899  1.0000
  H   H19       1.0  0.16786853534421678  0.768620848306043  0.05212954981202289  1.0000
  H   H20       1.0  0.15386542957002325  0.6353112688328915  0.6151004825869149  1.0000
  Zn  Zn1       1.0  0.04217273661292942  0.5788703806111664  0.5656319504633331  1.0000
  Zn  Zn2       1.0  0.25369010078243326  0.5788662730680694  0.5656276083254956  1.0000
  C   C23       1.0  0.1479741436768642  0.5731213403041593  0.8027551595683502  1.0000
  C   C24       1.0  0.1478909907282435  0.5846171336351356  0.3285045238802511  1.0000
  C   C25       1.0  0.146085014998321  0.8423599662516909  0.5600633310375198  1.0000
  C   C26       1.0  0.14978005937444758  0.31537677438464534  0.5711964242153909  1.0000
  O   O1        1.0  0.22814565136394074  0.5865385098102225  0.3768698469716747  1.0000
  O   O2        1.0  0.22825627589230324  0.571195758247662  0.7543861687971565  1.0000
  O   O3        1.0  0.22672969851860203  0.7886093537083896  0.5584107979567379  1.0000
  O   O4        1.0  0.22967215648879014  0.3691249246711958  0.5728451204557817  1.0000
  O   O5        1.0  0.06619060872606597  0.7886117290110118  0.5584144383276972  1.0000
  O   O6        1.0  0.06771717395159982  0.5711998668562145  0.7543897373584574  1.0000
  O   O7        1.0  0.06760654983969291  0.586542568145042  0.3768718547249223  1.0000
  O   O8        1.0  0.06913305503288746  0.3691289726872866  0.5728472255599919  1.0000
