data_image0
_chemical_formula_structural       NC6NC2H4C6NCOH7C6ClH3Zn2C4O8
_chemical_formula_sum              "N3 C25 H14 O9 Cl1 Zn2"
_cell_length_a       14.927258858638513
_cell_length_b       9.273730183620392
_cell_length_c       10.302974078461048
_cell_angle_alpha    85.70652844495697
_cell_angle_beta     89.99986750987136
_cell_angle_gamma    90.5942620260987

_space_group_name_H-M_alt    "P 1"
_space_group_IT_number       1

loop_
  _space_group_symop_operation_xyz
  'x, y, z'

loop_
  _atom_site_type_symbol
  _atom_site_label
  _atom_site_symmetry_multiplicity
  _atom_site_fract_x
  _atom_site_fract_y
  _atom_site_fract_z
  _atom_site_occupancy
  N   N1        1.0  0.8537406079906595  0.5783027604304083  0.571601664587067  1.0000
  C   C1        1.0  0.7762141166392666  0.5783027319195928  0.5716016740575107  1.0000
  C   C2        1.0  0.6797816098367169  0.5783028470224107  0.5716016294189916  1.0000
  C   C3        1.0  0.6325767585188188  0.5546111199466093  0.45745424803922524  1.0000
  C   C4        1.0  0.538865447340662  0.5546111455835077  0.4574541279064852  1.0000
  C   C5        1.0  0.49196554470090165  0.5783026694652798  0.5716016457872111  1.0000
  C   C6        1.0  0.3955329709068353  0.5783027845710627  0.5716016011433636  1.0000
  N   N2        1.0  0.3180064795554422  0.5783027560602472  0.5716016106138069  1.0000
  C   C7        1.0  0.5391703290272829  0.6019943965440457  0.6857490271616489  1.0000
  C   C8        1.0  0.6328816402054398  0.6019943709071476  0.6857491472943886  1.0000
  H   H1        1.0  0.6681543198555377  0.5361776205215529  0.3686410341479147  1.0000
  H   H2        1.0  0.5030506656173316  0.5361778180670447  0.36864103015856187  1.0000
  H   H3        1.0  0.5035928346117623  0.6204278856511443  0.774562338370185  1.0000
  H   H4        1.0  0.6686964225535666  0.6204277957563322  0.7745623443582239  1.0000
  C   C9        1.0  0.08314125459042646  0.15480213132662612  0.5706357307757943  1.0000
  C   C10       1.0  0.09627859452614951  0.23828940720625355  0.45229010747618253  1.0000
  C   C11       1.0  0.11630436115906845  0.17348196729632748  0.33741138919241664  1.0000
  C   C12       1.0  0.12603297472303643  0.023026603090661187  0.3417717051223199  1.0000
  C   C13       1.0  0.11189106678528199  0.938369485615096  0.4577822869131804  1.0000
  C   C14       1.0  0.08861437299529819  0.0017923095853043009  0.5725788058134729  1.0000
  N   N3        1.0  0.1314471055958598  0.26325903783174476  0.219326250492935  1.0000
  C   C15       1.0  0.10907001699899493  0.22230425185169245  0.09178695071223841  1.0000
  O   O1        1.0  0.06301880159150386  0.11040277996098591  0.0760212778550684  1.0000
  H   H5        1.0  0.09718374157479892  0.23143160349950276  0.8896731599617824  1.0000
  H   H6        1.0  0.09229298558058835  0.3551160133988089  0.44942678650601753  1.0000
  H   H7        1.0  0.1454729336543411  0.9705325943840308  0.2559748444281429  1.0000
  H   H8        1.0  0.117655677203298  0.8220779776969118  0.457070297837052  1.0000
  H   H9        1.0  0.09423025883839786  0.7029743737397041  0.7872513395327774  1.0000
  H   H10       1.0  0.15470761013066614  0.3690324701519332  0.22645719240342665  1.0000
  H   H11       1.0  0.12987654252562764  0.29091827205294174  0.007389332573272348  1.0000
  C   C16       1.0  0.08587781009809486  0.5782972187384501  0.19036475501403505  1.0000
  C   C17       1.0  0.06932704163575165  0.4285102789812221  0.19925480682747357  1.0000
  C   C18       1.0  0.061115047652420956  0.3541900792235422  0.08670901685604893  1.0000
  C   C19       1.0  0.069327082228168  0.4285103604280201  0.9641469080432074  1.0000
  C   C20       1.0  0.08587780733200727  0.5782971442956808  0.9528497739166801  1.0000
  C   C21       1.0  0.09407253022267639  0.6524604969673817  0.0666096866483139  1.0000
  Cl  Cl1       1.0  0.04043920886210507  0.16707060726954473  0.09931834629695846  1.0000
  H   H12       1.0  0.06274442670911441  0.36893651520977766  0.2933158177500479  1.0000
  H   H13       1.0  0.06274448917643685  0.36893649463133676  0.8781148516289291  1.0000
  H   H14       1.0  0.10683693943916645  0.7679806807137068  0.058825086828012914  1.0000
  Zn  Zn1       1.0  0.9877176928382354  0.5782988948015204  0.5716091417761551  1.0000
  Zn  Zn2       1.0  0.18402932925827653  0.5782948089431046  0.5716047560687767  1.0000
  C   C22       1.0  0.08583867246142533  0.5725519458747212  0.8087105719966774  1.0000
  C   C23       1.0  0.08591050511026649  0.5840435774712089  0.3345034573989114  1.0000
  C   C24       1.0  0.08757520703964211  0.8416931014190412  0.5670380344477584  1.0000
  C   C25       1.0  0.08417389234836814  0.31490068925141856  0.5761760601901635  1.0000
  O   O2        1.0  0.16042068013416166  0.5859642657299102  0.3828760438561196  1.0000
  O   O3        1.0  0.1603244801081044  0.5706270685867885  0.7603342806711157  1.0000
  O   O4        1.0  0.1617257494560339  0.7879619554641302  0.5651820001895069  1.0000
  O   O5        1.0  0.15901934386503458  0.36862938917052634  0.5780282270205033  1.0000
  O   O6        1.0  0.01272761123995992  0.7879643145770632  0.5651856708191003  1.0000
  O   O7        1.0  0.011326353084195613  0.5706311603781571  0.7603378860530474  1.0000
  O   O8        1.0  0.01142255284512417  0.5859683072657462  0.38287808823967096  1.0000
  O   O9        1.0  0.010021216505678119  0.36863342039136904  0.5780303687159516  1.0000
