data_image0
_chemical_formula_structural       NC8NC6H8C6SCOC6H9C7OC4NC3H8Zn2C4O8
_chemical_formula_sum              "N3 C45 H25 S1 O10 Zn2"
_cell_length_a       17.457602349358154
_cell_length_b       10.302038109246572
_cell_length_c       10.299375074045738
_cell_angle_alpha    85.54623755187913
_cell_angle_beta     92.86983099302365
_cell_angle_gamma    91.70619204985762

_space_group_name_H-M_alt    "P 1"
_space_group_IT_number       1

loop_
  _space_group_symop_operation_xyz
  'x, y, z'

loop_
  _atom_site_type_symbol
  _atom_site_label
  _atom_site_symmetry_multiplicity
  _atom_site_fract_x
  _atom_site_fract_y
  _atom_site_fract_z
  _atom_site_occupancy
  N   N1        1.0  0.7227957549615397  0.45301064282042125  0.6266448940577285  1.0000
  C   C1        1.0  0.661709799185467  0.40710023423506425  0.616022495225061  1.0000
  C   C2        1.0  0.5857162876025918  0.34999339538237484  0.6028177742145007  1.0000
  C   C3        1.0  0.527190184752037  0.39011747764739924  0.6777240580500203  1.0000
  C   C4        1.0  0.4526351174232643  0.3351281713012073  0.6651340882214929  1.0000
  C   C5        1.0  0.3905182429950629  0.37749320243517914  0.744462666395362  1.0000
  C   C6        1.0  0.3159789137128988  0.395978361095685  0.6886993080421682  1.0000
  C   C7        1.0  0.2574527655922363  0.4359185202673893  0.763713525176827  1.0000
  C   C8        1.0  0.18147554801907761  0.45501022777874617  0.7057346945330445  1.0000
  N   N2        1.0  0.12040278037182138  0.4703535823627953  0.6591198648846244  1.0000
  C   C9        1.0  0.2729737955727634  0.4576164127372738  0.8949996726839475  1.0000
  C   C10       1.0  0.34672846842656235  0.4395200027158103  0.9511506982460025  1.0000
  C   C11       1.0  0.4052430146072055  0.39975968238318416  0.8765942461455822  1.0000
  C   C12       1.0  0.4378947677813319  0.23933806455192183  0.5762047625629676  1.0000
  C   C13       1.0  0.4964091782038381  0.1994924454612106  0.5016985367054754  1.0000
  C   C14       1.0  0.5701794636485182  0.25459389294211965  0.5148384947708968  1.0000
  H   H1        1.0  0.5395439905080257  0.46526893491312077  0.7443677756875169  1.0000
  H   H2        1.0  0.3036380423890195  0.38105020299099035  0.5866684939076985  1.0000
  H   H3        1.0  0.22811468095341994  0.48846966626334004  0.9538421781852838  1.0000
  H   H4        1.0  0.35855595102011684  0.4560055964876524  0.052808447299913075  1.0000
  H   H5        1.0  0.46172261766981393  0.38475395033532933  0.9227006111449865  1.0000
  H   H6        1.0  0.3814022048398214  0.19401719922941732  0.5655463252675215  1.0000
  H   H7        1.0  0.48456947694519537  0.12545764082586297  0.43385659866233417  1.0000
  H   H8        1.0  0.6150384215126373  0.22287095242107344  0.456507017870887  1.0000
  C   C15       1.0  0.9215302729016568  0.08040066513642063  0.6428365838467174  1.0000
  C   C16       1.0  0.8559488321792215  0.0823397124001375  0.5579572301109215  1.0000
  C   C17       1.0  0.8236791431260901  0.9663619164546475  0.5152703263216281  1.0000
  C   C18       1.0  0.8561956018676461  0.8472178981053491  0.5579233768562244  1.0000
  C   C19       1.0  0.9216756178009146  0.8429538677740637  0.6429400332857581  1.0000
  C   C20       1.0  0.9540447576766385  0.9601856109683158  0.6848741373589258  1.0000
  S   S1        1.0  0.7404350755857101  0.9703046470442074  0.4058578724940005  1.0000
  C   C21       1.0  0.7968500436711228  0.981315129147444  0.2640374819724689  1.0000
  O   O1        1.0  0.8153520583001148  0.876871917487208  0.2191966538224983  1.0000
  C   C22       1.0  0.8221569846534433  0.10860987891484218  0.20060413949752975  1.0000
  C   C23       1.0  0.8764066893290382  0.11335373917233516  0.10352423123619325  1.0000
  C   C24       1.0  0.901068175832554  0.23278890714040787  0.04381278839058167  1.0000
  C   C25       1.0  0.8718950680169107  0.3487388042106354  0.07993293480838481  1.0000
  C   C26       1.0  0.8178761850296385  0.3454781060043512  0.17567859460304036  1.0000
  C   C27       1.0  0.792958954304491  0.22633529972088784  0.2356893353451974  1.0000
  H   H9        1.0  0.04505474342703786  0.2840458757549979  0.802985727860793  1.0000
  H   H10       1.0  0.8298490994748768  0.17373517197440957  0.5245483909243247  1.0000
  H   H11       1.0  0.8303430673509014  0.758350791020295  0.5240461762008635  1.0000
  H   H12       1.0  0.004603758718803026  0.9577704433575247  0.7503071397575982  1.0000
  H   H13       1.0  0.9001415559885212  0.02483634977902249  0.07416390742385914  1.0000
  H   H14       1.0  0.9429239405863866  0.23539745894504827  0.9695305245840901  1.0000
  H   H15       1.0  0.8910750972596719  0.441097951885262  0.03362317982499974  1.0000
  H   H16       1.0  0.795146928827532  0.43542291255333615  0.20336032451697483  1.0000
  H   H17       1.0  0.7506538462733383  0.22709528547008517  0.3088025128860372  1.0000
  C   C28       1.0  0.9216290387880803  0.4618207201825226  0.26150368227858967  1.0000
  C   C29       1.0  0.9807017840981063  0.5574859966473705  0.25789618293855976  1.0000
  C   C30       1.0  0.009900616470401195  0.6067908932392464  0.13877069388291452  1.0000
  C   C31       1.0  0.9805775216833705  0.5572428978300764  0.022660688931306353  1.0000
  C   C32       1.0  0.9215768005594054  0.461533825489333  0.024272937563566847  1.0000
  C   C33       1.0  0.8923064472531465  0.4146217932901481  0.14418914678259265  1.0000
  C   C34       1.0  0.07282805785716562  0.7068312247529165  0.1349444912000819  1.0000
  O   O2        1.0  0.12185516584667244  0.7042858031601683  0.0493133332896345  1.0000
  C   C35       1.0  0.08012591350720057  0.809770454957349  0.22817937107481542  1.0000
  C   C36       1.0  0.15309207429153981  0.8595029750107157  0.26590110486216134  1.0000
  C   C37       1.0  0.16054519199499406  0.9578164032413509  0.35273834376562085  1.0000
  C   C38       1.0  0.23547577421816923  0.007425329742098979  0.39165160758666445  1.0000
  N   N3        1.0  0.2957115196558511  0.047299701954260254  0.42292972563504105  1.0000
  C   C39       1.0  0.09503949433836725  0.0077975763681354905  0.4015878714370147  1.0000
  C   C40       1.0  0.02232929910587122  0.9600873894730007  0.36338633210302573  1.0000
  C   C41       1.0  0.014723649345518506  0.8620372279372237  0.2768122261706374  1.0000
  H   H18       1.0  0.8109583910824892  0.27986103020566455  0.4758120432601469  1.0000
  H   H19       1.0  0.004660454254322042  0.592724149986505  0.34804038767092504  1.0000
  H   H20       1.0  0.0034208471433239095  0.5944664619814926  0.930785630250276  1.0000
  H   H21       1.0  0.8467659317783343  0.3408701971942804  0.14616646710555092  1.0000
  H   H22       1.0  0.20408843675857627  0.8210169782806152  0.2286807355669107  1.0000
  H   H23       1.0  0.10017189328120857  0.08388126240589022  0.46869536604642503  1.0000
  H   H24       1.0  0.9717153531284812  0.9995685300320434  0.400489234463955  1.0000
  H   H25       1.0  0.9577320714205201  0.8281653350634425  0.24685029593544594  1.0000
  Zn  Zn1       1.0  0.8375365525659056  0.4580119558185456  0.636023967445317  1.0000
  Zn  Zn2       1.0  0.00566196576100908  0.46534161998335877  0.6497514230183585  1.0000
  C   C42       1.0  0.921583996534212  0.45641546563617025  0.8800923476636318  1.0000
  C   C43       1.0  0.9216163580204583  0.4669398284018465  0.40568332039731314  1.0000
  C   C44       1.0  0.9216445283615022  0.6988168448169528  0.6377447479711135  1.0000
  C   C45       1.0  0.9215557685216996  0.22453688674863015  0.6480309844355252  1.0000
  O   O3        1.0  0.9854148192741272  0.4714337527915413  0.4592808211277195  1.0000
  O   O4        1.0  0.9853888335773028  0.4574836073931587  0.8369132940871987  1.0000
  O   O5        1.0  0.9854368536097701  0.6532257486606257  0.6412158226415734  1.0000
  O   O6        1.0  0.9853667418802808  0.2756916183476807  0.6549781905116783  1.0000
  O   O7        1.0  0.8578317190736822  0.6476619549543854  0.6307971952606588  1.0000
  O   O8        1.0  0.8577836993397311  0.451921373659514  0.8264945976692528  1.0000
  O   O9        1.0  0.857809685185846  0.46587147440187254  0.4488605632428515  1.0000
  O   O10       1.0  0.8577616077804264  0.27012933063456684  0.6445580299971394  1.0000
