data_image0
_chemical_formula_structural       NC5NC4H6C7NH5C9H8Zn2C4O8
_chemical_formula_sum              "N3 C29 H19 Zn2 O8"
_cell_length_a       13.854160002989762
_cell_length_b       9.275154477615127
_cell_length_c       9.273585224739813
_cell_angle_alpha    86.3668502262391
_cell_angle_beta     90.10207527117831
_cell_angle_gamma    89.43370676253429

_space_group_name_H-M_alt    "P 1"
_space_group_IT_number       1

loop_
  _space_group_symop_operation_xyz
  'x, y, z'

loop_
  _atom_site_type_symbol
  _atom_site_label
  _atom_site_symmetry_multiplicity
  _atom_site_fract_x
  _atom_site_fract_y
  _atom_site_fract_z
  _atom_site_occupancy
  N   N1        1.0  0.8966857666935091  0.5618446715681649  0.4163627693388079  1.0000
  C   C1        1.0  0.8241199748666984  0.5864521292026557  0.3574242783463051  1.0000
  C   C2        1.0  0.7338471045380156  0.6170644672535145  0.2841025376988822  1.0000
  C   C3        1.0  0.6465515021588748  0.5883151498799162  0.3556992261878342  1.0000
  C   C4        1.0  0.5587046920459638  0.6170644813445927  0.28410251458623953  1.0000
  C   C5        1.0  0.46901183457926726  0.5864519828490744  0.35742436937138766  1.0000
  N   N2        1.0  0.39691219651532833  0.5618446080867057  0.41636276900016056  1.0000
  C   C6        1.0  0.5581821315522429  0.6751695560357416  0.14093051331538664  1.0000
  C   C7        1.0  0.645430671527728  0.7060673967013076  0.06923893234352185  1.0000
  C   C8        1.0  0.6448609402384686  0.7642972019484879  0.9145804150053127  1.0000
  C   C9        1.0  0.7332592204950781  0.6751695537965463  0.14093042304388637  1.0000
  H   H1        1.0  0.6469819943560404  0.5432316870407532  0.46651128482585014  1.0000
  H   H2        1.0  0.4901025198841599  0.696386872264243  0.08537478752854843  1.0000
  H   H3        1.0  0.7092378689497262  0.8321993980724973  0.891067446079331  1.0000
  H   H4        1.0  0.5795293913518887  0.8321994006079583  0.891067511162973  1.0000
  H   H5        1.0  0.6453788641128214  0.6730715552027415  0.8426764861744444  1.0000
  H   H6        1.0  0.8009254781264579  0.6963869838537715  0.08537470255995738  1.0000
  C   C10       1.0  0.14959486330172278  0.13843844308494258  0.4146948680660605  1.0000
  C   C11       1.0  0.1229573662484129  0.22033009719982544  0.28761029998816734  1.0000
  C   C12       1.0  0.08847638147061287  0.15307243998876507  0.167257590245155  1.0000
  C   C13       1.0  0.08006578455568603  0.0030057544714214863  0.1725720344435  1.0000
  C   C14       1.0  0.10759461677253186  0.9198770791654237  0.296759811110884  1.0000
  C   C15       1.0  0.14401243544945275  0.9852398820090554  0.41804317048092576  1.0000
  C   C16       1.0  0.06055301080243433  0.2385303896512223  0.03864132165277789  1.0000
  N   N3        1.0  0.038110363165142706  0.3072230088864789  0.9352667864654834  1.0000
  H   H7        1.0  0.16870898521086453  0.2186936953949432  0.7684963505325311  1.0000
  H   H8        1.0  0.12689445913293995  0.33724617179304195  0.2833336058848915  1.0000
  H   H9        1.0  0.0530506696013031  0.9499421222515766  0.08007341821622882  1.0000
  H   H10       1.0  0.10252598817140866  0.8034081987641566  0.29663296320835175  1.0000
  H   H11       1.0  0.1609771861546916  0.688871148518819  0.6551002278168359  1.0000
  C   C17       1.0  0.14632664342627288  0.5575512244215224  0.9931005202357777  1.0000
  C   C18       1.0  0.2326779785424664  0.525438393412887  0.06893032808527733  1.0000
  C   C19       1.0  0.32025006000966494  0.5063026748357313  0.9965943006410082  1.0000
  C   C20       1.0  0.3206805263752101  0.5200904350052573  0.8445895918075603  1.0000
  C   C21       1.0  0.23537859883569529  0.5494923712253368  0.7677453457635672  1.0000
  C   C22       1.0  0.14728065446383565  0.5661270701597907  0.8396374699344198  1.0000
  C   C23       1.0  0.4099325528745825  0.4732376217090668  0.0879787763874944  1.0000
  C   C24       1.0  0.486060560152151  0.3743087970844181  0.02734967671640031  1.0000
  C   C25       1.0  0.5050096167259177  0.5355228481608074  0.03189100254201537  1.0000
  H   H12       1.0  0.23226408850777197  0.5184800642112042  0.18607232346103664  1.0000
  H   H13       1.0  0.3862326026158809  0.5070627092161839  0.7836037598790813  1.0000
  H   H14       1.0  0.003023664600050545  0.6685744486073166  0.5513724145051109  1.0000
  H   H15       1.0  0.4036498447689312  0.46393870372646373  0.20770385677435965  1.0000
  H   H16       1.0  0.47332261579279855  0.3372063397069067  0.9176251360335521  1.0000
  H   H17       1.0  0.5265647937404254  0.30680164680252187  0.11060405184996447  1.0000
  H   H18       1.0  0.5037390833222545  0.5961716165845221  0.9249116586972597  1.0000
  H   H19       1.0  0.5565795724088323  0.5622643407995449  0.11780423458524569  1.0000
  Zn  Zn1       1.0  0.04104034924619304  0.5618408774326407  0.4163710865452368  1.0000
  Zn  Zn2       1.0  0.2525577062597845  0.5618367233851922  0.4163662427164845  1.0000
  C   C26       1.0  0.14713603400671094  0.5587620966604108  0.6796011515935872  1.0000
  C   C27       1.0  0.14646431942854288  0.5649173247857198  0.15313632627923734  1.0000
  C   C28       1.0  0.14505618772757134  0.8251181779890784  0.41166648620510515  1.0000
  C   C29       1.0  0.14854410503810525  0.2985595119461555  0.4210710616654992  1.0000
  O   O1        1.0  0.22678030087504664  0.567381588656932  0.20684394165305897  1.0000
  O   O2        1.0  0.22735683905806417  0.5562935880451171  0.6258894406459028  1.0000
  O   O3        1.0  0.22567625649900572  0.7713795074546907  0.40953030861512807  1.0000
  O   O4        1.0  0.2284608110677708  0.3522956784682023  0.423202965653414  1.0000
  O   O5        1.0  0.06513717225769519  0.7713819223525411  0.4095343636023847  1.0000
  O   O6        1.0  0.06681774330581855  0.5562977344567741  0.6258934256294566  1.0000
  O   O7        1.0  0.06624120356527996  0.5673856672685444  0.20684619349206246  1.0000
  O   O8        1.0  0.06792171394382661  0.3522997478618808  0.4232053255169146  1.0000
