data_image0
_chemical_formula_structural       NC6NC3H6C6BrH3C9H9Zn2C4O8
_chemical_formula_sum              "N2 C28 H18 Br1 Zn2 O8"
_cell_length_a       14.934028789175542
_cell_length_b       9.276564384272257
_cell_length_c       10.297187173949778
_cell_angle_alpha    85.51933545767109
_cell_angle_beta     89.94921482241688
_cell_angle_gamma    90.54840447220178

_space_group_name_H-M_alt    "P 1"
_space_group_IT_number       1

loop_
  _space_group_symop_operation_xyz
  'x, y, z'

loop_
  _atom_site_type_symbol
  _atom_site_label
  _atom_site_symmetry_multiplicity
  _atom_site_fract_x
  _atom_site_fract_y
  _atom_site_fract_z
  _atom_site_occupancy
  N   N1        1.0  0.8536524164111354  0.577174651983366  0.5654959483575728  1.0000
  C   C1        1.0  0.7761595587277212  0.5760764527966551  0.5648850664563803  1.0000
  C   C2        1.0  0.6797545070959409  0.5747052436907487  0.5641224942721929  1.0000
  C   C3        1.0  0.6326550929272584  0.6814959119447905  0.6234156996256717  1.0000
  C   C4        1.0  0.5391365308959469  0.6803949270386414  0.6228042846849347  1.0000
  C   C5        1.0  0.49180517235481386  0.5725577721345299  0.5629301040588393  1.0000
  C   C6        1.0  0.3951737724888243  0.5748715273409071  0.5642159316119187  1.0000
  N   N2        1.0  0.3177050556297911  0.5767077838465626  0.5652366937708957  1.0000
  C   C7        1.0  0.538889841436386  0.4642896782767594  0.5028160901298682  1.0000
  C   C8        1.0  0.4898455489483949  0.34704827529910864  0.4377215190812688  1.0000
  C   C9        1.0  0.6330464480166353  0.46651411364988543  0.5040512068968224  1.0000
  H   H1        1.0  0.6682218682626517  0.7656370527257415  0.6701337765440685  1.0000
  H   H2        1.0  0.5036193370714644  0.7638880589753256  0.669162438787482  1.0000
  H   H3        1.0  0.4474323983408382  0.39610593447392595  0.35783744560304315  1.0000
  H   H4        1.0  0.4466792180692024  0.28421444628290793  0.5099626815523808  1.0000
  H   H5        1.0  0.5368328230197341  0.27110932900062035  0.3955522452788889  1.0000
  H   H6        1.0  0.6700635989606819  0.38413168929017116  0.4583100115410808  1.0000
  C   C10       1.0  0.08298513691433947  0.15346299852272405  0.5656999900537979  1.0000
  C   C11       1.0  0.07154691017890012  0.23695757405421095  0.44698310406178066  1.0000
  C   C12       1.0  0.06844168391092453  0.17195575960057852  0.3293704969820353  1.0000
  C   C13       1.0  0.07675548070207468  0.022540080871684687  0.32824153288749724  1.0000
  C   C14       1.0  0.08661680235695755  0.9373535175234745  0.4451640035057079  1.0000
  C   C15       1.0  0.08838086840353271  0.00040828313226202827  0.5650438297383676  1.0000
  Br  Br1       1.0  0.07316594279611154  0.9341638677642826  0.1668561115207523  1.0000
  H   H7        1.0  0.06042318111393996  0.2381716973939867  0.23889329704788476  1.0000
  H   H8        1.0  0.09076069955810004  0.8211089832736044  0.4423611055921304  1.0000
  H   H9        1.0  0.13771426663687303  0.7024536286853152  0.7673289208887795  1.0000
  C   C16       1.0  0.08580104634812707  0.576883408455386  0.1839187526109261  1.0000
  C   C17       1.0  0.9953095494706145  0.6165842822866703  0.18045685743135964  1.0000
  C   C18       1.0  0.9489480869193098  0.6369239682611607  0.062066822909800035  1.0000
  C   C19       1.0  0.9949587564361313  0.6167376291981297  0.9452342103641344  1.0000
  C   C20       1.0  0.08556496390956214  0.5769879294785376  0.9468251137885991  1.0000
  C   C21       1.0  0.13039440778728872  0.5573189785315222  0.06655649158140076  1.0000
  C   C22       1.0  0.85107500886933  0.6798630057972328  0.06775470609706803  1.0000
  C   C23       1.0  0.7880170757213084  0.6219229301331577  0.967562820362164  1.0000
  C   C24       1.0  0.8156572882153308  0.7809907445341772  0.9563251950829974  1.0000
  H   H10       1.0  0.9603749380094279  0.6319113590165455  0.2705427338460309  1.0000
  H   H11       1.0  0.960993513322782  0.6316356985665541  0.8526346251267675  1.0000
  H   H12       1.0  0.20021031809003673  0.5266882032149502  0.06850006984529002  1.0000
  H   H13       1.0  0.25669106305816225  0.5018934898543075  0.7426147500047575  1.0000
  H   H14       1.0  0.8196171456668332  0.693665557694596  0.16383894526376563  1.0000
  H   H15       1.0  0.8179268266469376  0.5568033523165501  0.8930713191403045  1.0000
  H   H16       1.0  0.7182991260197659  0.6024803515649964  0.002735398110574885  1.0000
  H   H17       1.0  0.8623573948625223  0.8124959852586806  0.8750083792730169  1.0000
  H   H18       1.0  0.762093029794133  0.8545167349841508  0.9849274586654335  1.0000
  Zn  Zn1       1.0  0.9875679705756637  0.577036060600538  0.5654286315862116  1.0000
  Zn  Zn2       1.0  0.18378945298736526  0.5768345639317025  0.5653146397541353  1.0000
  C   C25       1.0  0.0855709824733748  0.5712232154780692  0.8026239245187677  1.0000
  C   C26       1.0  0.08578859537469086  0.5826492264209311  0.328119471661827  1.0000
  C   C27       1.0  0.08735794996108148  0.8403169141599108  0.5599915806355462  1.0000
  C   C28       1.0  0.08400154987090525  0.3135537952321624  0.570751886180084  1.0000
  O   O1        1.0  0.16024940659178355  0.5845015293351292  0.37647129583275296  1.0000
  O   O2        1.0  0.1600377293356352  0.5692168933036446  0.7541852100990305  1.0000
  O   O3        1.0  0.16147972393903942  0.7865134593593386  0.5582578751707981  1.0000
  O   O4        1.0  0.15880734512714112  0.36720497365086513  0.572398533395709  1.0000
  O   O5        1.0  0.012550011475138673  0.7866656509517054  0.5583447379767041  1.0000
  O   O6        1.0  0.011108027927064116  0.5693708174732683  0.7542720023019669  1.0000
  O   O7        1.0  0.011319705405916642  0.5846554030378308  0.37655652632890485  1.0000
  O   O8        1.0  0.00987764384176271  0.36735883705246675  0.5724838612892036  1.0000
