data_image0
_chemical_formula_structural       NC10NC3NCH9C13OH12C12SCH12Zn2C4O8
_chemical_formula_sum              "N3 C44 H33 O9 S1 Zn2"
_cell_length_a       19.437513618241372
_cell_length_b       10.29915010939255
_cell_length_c       10.29978013851609
_cell_angle_alpha    85.5566253413432
_cell_angle_beta     90.33953054960048
_cell_angle_gamma    89.50394211810362

_space_group_name_H-M_alt    "P 1"
_space_group_IT_number       1

loop_
  _space_group_symop_operation_xyz
  'x, y, z'

loop_
  _atom_site_type_symbol
  _atom_site_label
  _atom_site_symmetry_multiplicity
  _atom_site_fract_x
  _atom_site_fract_y
  _atom_site_fract_z
  _atom_site_occupancy
  N   N1        1.0  0.6477082765258042  0.41018818318757483  0.5753028782242222  1.0000
  C   C1        1.0  0.5887721620433484  0.42719882568119916  0.5723223078128874  1.0000
  C   C2        1.0  0.5153282174289018  0.4484520714751303  0.5686226002913883  1.0000
  C   C3        1.0  0.473583275240994  0.3472518843396186  0.5569917353964935  1.0000
  C   C4        1.0  0.3976918426842282  0.3573157814523782  0.5497679334348002  1.0000
  C   C5        1.0  0.35810186155022466  0.4381851021481069  0.6154852261243966  1.0000
  C   C6        1.0  0.28192134875981545  0.42957431025274  0.6070438729078853  1.0000
  C   C7        1.0  0.2488058709912218  0.30822158626320273  0.6117205050293946  1.0000
  C   C8        1.0  0.1770724769092323  0.30184775636548156  0.6045545226152995  1.0000
  C   C9        1.0  0.1374840037046644  0.4163540101406604  0.5930742540366971  1.0000
  C   C10       1.0  0.0636361982358712  0.4096419377912939  0.5857402809712773  1.0000
  N   N2        1.0  0.0042676605556018045  0.4042460218331889  0.5798442248491942  1.0000
  C   C11       1.0  0.16988291700602273  0.5373963029412905  0.5891429505088084  1.0000
  C   C12       1.0  0.2416006714412909  0.5440241565984294  0.5963708815560025  1.0000
  C   C13       1.0  0.3867678440454588  0.5304963585197788  0.7053757212758358  1.0000
  N   N3        1.0  0.4437429974192355  0.5937092091704038  0.684955004897956  1.0000
  C   C14       1.0  0.4875879100478048  0.5844232505210569  0.5718550436646186  1.0000
  H   H1        1.0  0.49598322464685163  0.25218602789551725  0.5448972798328291  1.0000
  H   H2        1.0  0.3729904736485032  0.2877860093000162  0.4914715664538196  1.0000
  H   H3        1.0  0.2782707581776499  0.21830544200252255  0.6227656495850364  1.0000
  H   H4        1.0  0.1524943419340976  0.2076153649979533  0.6084674993419341  1.0000
  H   H5        1.0  0.13973280146878564  0.6266579812312364  0.5804100311190954  1.0000
  H   H6        1.0  0.2656972170296242  0.638669374772572  0.5924423319183716  1.0000
  H   H7        1.0  0.3567593147658086  0.5509013269205092  0.7897329875364225  1.0000
  H   H8        1.0  0.5303288025528593  0.6547421022168953  0.5775988011719007  1.0000
  H   H9        1.0  0.4579182874042342  0.6125148788108495  0.48120576645892066  1.0000
  C   C15       1.0  0.8260561002705579  0.025816336129011574  0.5777185569824121  1.0000
  C   C16       1.0  0.824778862912281  0.014071746906423762  0.7145064688577543  1.0000
  C   C17       1.0  0.8240714316203461  0.8909833144084557  0.7835963996083481  1.0000
  C   C18       1.0  0.8246462406620959  0.7788185106136587  0.7141414021013135  1.0000
  C   C19       1.0  0.8259264321208969  0.7886076686087286  0.5774399226864131  1.0000
  C   C20       1.0  0.82662577283272  0.912567313308172  0.510027397087679  1.0000
  C   C21       1.0  0.8227142671492236  0.8795406956901259  0.9282123063733312  1.0000
  C   C22       1.0  0.7804037423735746  0.7873846229845027  0.9956915654576379  1.0000
  C   C23       1.0  0.7791038581181402  0.7766989193771033  0.1317746988754963  1.0000
  C   C24       1.0  0.8205422554916769  0.8570042105536655  0.2028444013918862  1.0000
  C   C25       1.0  0.8621945045784689  0.9501250682065985  0.13599929890457996  1.0000
  C   C26       1.0  0.8635103593287575  0.9609863026096109  0.9999160801982468  1.0000
  C   C27       1.0  0.8176988223603334  0.847900046115184  0.34888746306331264  1.0000
  O   O1        1.0  0.7662733099461788  0.9319437501564595  0.3884712033342437  1.0000
  H   H10       1.0  0.8280199634217388  0.2552850837635794  0.31951927020353876  1.0000
  H   H11       1.0  0.8233775104715473  0.10088199202825797  0.7674946600927866  1.0000
  H   H12       1.0  0.8250349436371435  0.6837029001921218  0.7669773384131757  1.0000
  H   H13       1.0  0.8276112760023734  0.9208342247968866  0.40458543078675446  1.0000
  H   H14       1.0  0.8263725311299427  0.4648982258349675  0.5248591495143387  1.0000
  H   H15       1.0  0.7475048033037115  0.7249111469093121  0.9431663432438689  1.0000
  H   H16       1.0  0.7456321949182932  0.7059397933793568  0.18172153121641343  1.0000
  H   H17       1.0  0.893826091797181  0.014172823195406137  0.1892545493009098  1.0000
  H   H18       1.0  0.8970050157129449  0.03219068140709847  0.9507761453614292  1.0000
  H   H19       1.0  0.8683034490778379  0.8748959887428115  0.3897000806117917  1.0000
  H   H20       1.0  0.8065152949146004  0.746074640302713  0.38655579392985184  1.0000
  H   H21       1.0  0.7665211177704733  0.9222866863033473  0.48509641463512077  1.0000
  C   C28       1.0  0.8260189385583675  0.4071002521699767  0.19622750249497578  1.0000
  C   C29       1.0  0.7606123278717806  0.3501740821058874  0.19890992560783524  1.0000
  C   C30       1.0  0.7274430402263029  0.32144386811748205  0.0831218256664612  1.0000
  C   C31       1.0  0.7605559633118711  0.3504004784992926  0.9636052293436285  1.0000
  C   C32       1.0  0.8259636003082924  0.4073238077502337  0.9589309820308953  1.0000
  C   C33       1.0  0.8583287928987356  0.4353557202736733  0.07576057026832217  1.0000
  C   C34       1.0  0.6582473851493789  0.26123579628161053  0.0870223961124863  1.0000
  C   C35       1.0  0.6072862249382762  0.30374940776255155  0.9954017152562349  1.0000
  C   C36       1.0  0.5421743607725109  0.24705121793557616  0.9993096435158719  1.0000
  C   C37       1.0  0.5270739144408825  0.14748506065260525  0.0947162915714772  1.0000
  C   C38       1.0  0.5774228969545012  0.10418265441862529  0.18592381501205346  1.0000
  C   C39       1.0  0.642577354879229  0.16070669064121046  0.18237890016054537  1.0000
  S   S1        1.0  0.4435546850796677  0.07459980533555187  0.09928089139503117  1.0000
  C   C40       1.0  0.408253183658683  0.18941253257745053  0.20751874619990196  1.0000
  H   H22       1.0  0.8509518923829968  0.4287440358486103  0.5226625310789785  1.0000
  H   H23       1.0  0.7349037855277589  0.329678530543714  0.2911394292308678  1.0000
  H   H24       1.0  0.7356111169226464  0.3268128681003051  0.8742240223364894  1.0000
  H   H25       1.0  0.9087873689602197  0.47927105098690914  0.07292282527689076  1.0000
  H   H26       1.0  0.8508716539019677  0.42907286317553867  0.6296918214368201  1.0000
  H   H27       1.0  0.6175035020206997  0.38195323152999383  0.9218251331187086  1.0000
  H   H28       1.0  0.5034035624410671  0.28103329950454076  0.928472422669541  1.0000
  H   H29       1.0  0.5661539522560606  0.026692387718157063  0.2596116142029228  1.0000
  H   H30       1.0  0.6809783364667925  0.12467961936352069  0.25311134051525097  1.0000
  H   H31       1.0  0.43734707681488955  0.18289708168960409  0.30090560601227767  1.0000
  H   H32       1.0  0.3536589915291256  0.16519160105386052  0.22760487091031464  1.0000
  H   H33       1.0  0.4108954903637393  0.29009858450814363  0.16092452769470778  1.0000
  Zn  Zn1       1.0  0.7506036182071598  0.40846991647267705  0.5766209226523662  1.0000
  Zn  Zn2       1.0  0.9013723261236862  0.4059536212376216  0.578536853710677  1.0000
  C   C41       1.0  0.8259733983002385  0.40210746113388396  0.8147655410238863  1.0000
  C   C42       1.0  0.8260041921323845  0.4123176878919845  0.3403923831231128  1.0000
  C   C43       1.0  0.8259477757961109  0.6444224508302054  0.5723175886322247  1.0000
  C   C44       1.0  0.8260297634499278  0.17000113864204255  0.582840404666555  1.0000
  O   O2        1.0  0.8832151829769249  0.41310811984087187  0.3895025219459698  1.0000
  O   O3        1.0  0.8831923684075957  0.39940623941101777  0.767109176071409  1.0000
  O   O4        1.0  0.8831709065152622  0.5950786713506682  0.5713307288607059  1.0000
  O   O5        1.0  0.8832365934275975  0.2174356980223202  0.5852808711292223  1.0000
  O   O6        1.0  0.7687392994532881  0.5969878405480794  0.5698769045731757  1.0000
  O   O7        1.0  0.7687607610822457  0.40131696902215  0.7656552819714539  1.0000
  O   O8        1.0  0.7687835758183247  0.41501880373387956  0.3880470665328182  1.0000
  O   O9        1.0  0.7688049862606982  0.21934637265432963  0.5838255130828773  1.0000
