data_image0
_chemical_formula_structural       NC9NC5H8C7F3H5C8H10Zn2C4O8
_chemical_formula_sum              "N2 C33 H23 F3 Zn2 O8"
_cell_length_a       17.807436237873137
_cell_length_b       9.27228830945605
_cell_length_c       9.275657083861812
_cell_angle_alpha    85.55061255966405
_cell_angle_beta     88.90332225934053
_cell_angle_gamma    87.81380667828488

_space_group_name_H-M_alt    "P 1"
_space_group_IT_number       1

loop_
  _space_group_symop_operation_xyz
  'x, y, z'

loop_
  _atom_site_type_symbol
  _atom_site_label
  _atom_site_symmetry_multiplicity
  _atom_site_fract_x
  _atom_site_fract_y
  _atom_site_fract_z
  _atom_site_occupancy
  N   N1        1.0  0.7066867589058378  0.5340198453216223  0.39040392103258026  1.0000
  C   C1        1.0  0.6463580294424894  0.4948372936416183  0.3783679322107476  1.0000
  C   C2        1.0  0.5713157207082333  0.4460985142583014  0.3633964686589881  1.0000
  C   C3        1.0  0.5541667953651677  0.3660874874213387  0.24724590717446213  1.0000
  C   C4        1.0  0.4813056392795541  0.31864145567510077  0.2326184932087394  1.0000
  C   C5        1.0  0.42454703318535575  0.35078659627904263  0.33410777568003147  1.0000
  C   C6        1.0  0.3471133287218077  0.3004919146849485  0.31865307312236046  1.0000
  C   C7        1.0  0.2843340544591009  0.3915265494517028  0.3469793236841041  1.0000
  C   C8        1.0  0.2113316964544468  0.3438549027067914  0.33236825709336926  1.0000
  C   C9        1.0  0.1474849590930439  0.4378834074421288  0.36108307516216054  1.0000
  N   N2        1.0  0.0961652079411239  0.5134758265021386  0.38416901584565766  1.0000
  C   C10       1.0  0.2005266850509607  0.20486170018918437  0.2894042750135444  1.0000
  C   C11       1.0  0.2624487118200156  0.11381161721031742  0.2610687906195437  1.0000
  C   C12       1.0  0.3353349380920876  0.16104348526083423  0.2754572840075349  1.0000
  C   C13       1.0  0.44238340222282513  0.4313484669378312  0.4504988679337067  1.0000
  C   C14       1.0  0.515299314705071  0.47858192848793324  0.464954589532939  1.0000
  H   H1        1.0  0.5970536504773069  0.3406652752086008  0.1677694323347796  1.0000
  H   H2        1.0  0.46912170268058767  0.2584738473611153  0.14087919833704055  1.0000
  H   H3        1.0  0.29212308184541186  0.5000404570375365  0.37847724357247214  1.0000
  H   H4        1.0  0.14431163483680634  0.16696413903476137  0.27783794827243846  1.0000
  H   H5        1.0  0.2539626676716845  0.00620217044877025  0.22823366189140804  1.0000
  H   H6        1.0  0.3824514744137895  0.08784789293141015  0.2546883587894775  1.0000
  H   H7        1.0  0.400210002047889  0.45617919402139595  0.5314153867687939  1.0000
  H   H8        1.0  0.5280098151121323  0.5401001238899139  0.5555306455816067  1.0000
  C   C15       1.0  0.9036309095977764  0.09981834492712016  0.3894728389543658  1.0000
  C   C16       1.0  0.9398560546640209  0.17933208101329035  0.2750353920368229  1.0000
  C   C17       1.0  0.9686823234771044  0.11158433131667  0.15569048757170134  1.0000
  C   C18       1.0  0.9610273906029227  0.9627360605163651  0.14659876518029313  1.0000
  C   C19       1.0  0.9275353008258721  0.8814051408531733  0.26282734548323416  1.0000
  C   C20       1.0  0.899228254349334  0.947665959441519  0.3851125780989151  1.0000
  C   C21       1.0  0.9940870754999726  0.8888002429331915  0.019449448842094215  1.0000
  F   F1        1.0  0.9939979885196888  0.9827702650074386  0.8959637582621122  1.0000
  F   F2        1.0  0.9528284156849268  0.7704822119418984  0.9926312612855646  1.0000
  F   F3        1.0  0.0672296787270441  0.8425452760855702  0.04949526838237017  1.0000
  H   H9        1.0  0.7761027494674339  0.19045435822624862  0.6508033168060341  1.0000
  H   H10       1.0  0.9445896734746897  0.29535432982552967  0.27645122636538866  1.0000
  H   H11       1.0  0.9964543919937872  0.17615708394151275  0.06970542898996412  1.0000
  H   H12       1.0  0.9251486934455407  0.7650755559803164  0.2596241512899917  1.0000
  H   H13       1.0  0.8626402951695801  0.8217027450748307  0.7348066640877611  1.0000
  C   C22       1.0  0.9033552019656436  0.5214649471904114  0.963953363930019  1.0000
  C   C23       1.0  0.9417137998189903  0.6294577305219236  0.02770459916923862  1.0000
  C   C24       1.0  0.9734043376689782  0.743979241233283  0.9428513226239721  1.0000
  C   C25       1.0  0.9678567808376534  0.7494642484886129  0.7922741002853995  1.0000
  C   C26       1.0  0.9311180292120296  0.642032189928492  0.7270409525989074  1.0000
  C   C27       1.0  0.8995039395169141  0.5260193235473231  0.8106320569511944  1.0000
  C   C28       1.0  0.015207794067089822  0.8575076462676731  0.012777043388544355  1.0000
  C   C29       1.0  0.09797063937811457  0.8119595788174389  0.02951204554320763  1.0000
  H   H14       1.0  0.8708169832902305  0.29294366935227156  0.2635048269023599  1.0000
  H   H15       1.0  0.9456134308529308  0.626576348558257  0.14438118561840807  1.0000
  H   H16       1.0  0.9927348550973346  0.8363609865073965  0.7250285162063941  1.0000
  H   H17       1.0  0.9291548543514544  0.6477600575753635  0.6100686590198605  1.0000
  H   H18       1.0  0.8116340066313825  0.36432197892868196  0.5450737802501711  1.0000
  H   H19       1.0  0.01054779894401547  0.962526892311532  0.9464636462063093  1.0000
  H   H20       1.0  0.9901267229279711  0.8751758151155412  0.12096959966960519  1.0000
  H   H21       1.0  0.10385399045597121  0.708980477988524  0.09870273372428784  1.0000
  H   H22       1.0  0.12448694420730998  0.7972782702872874  0.9219821863305468  1.0000
  H   H23       1.0  0.12774323833387657  0.8970240320048686  0.08114917688228718  1.0000
  Zn  Zn1       1.0  0.8190818069855829  0.5280874781043849  0.3886130192571815  1.0000
  Zn  Zn2       1.0  0.9837701488615398  0.5193964898889586  0.3859718297336347  1.0000
  C   C30       1.0  0.9002600996080884  0.5194074934236326  0.6506212347057663  1.0000
  C   C31       1.0  0.9025936445284345  0.5280782019135772  0.12396371757023972  1.0000
  C   C32       1.0  0.90008269698519  0.7873740005014827  0.3801920928674951  1.0000
  C   C33       1.0  0.9027709996116035  0.26010996378382545  0.394392946088024  1.0000
  O   O1        1.0  0.9648364590612252  0.5269931878440891  0.1766623686943516  1.0000
  O   O2        1.0  0.9630119334731826  0.5138951572424524  0.5959175724584813  1.0000
  O   O3        1.0  0.9628678292853232  0.730281553131212  0.3775441328853739  1.0000
  O   O4        1.0  0.9649805074901529  0.31060680466654267  0.39503570102466234  1.0000
  O   O5        1.0  0.8378713921569477  0.7368771662941387  0.37954914885987123  1.0000
  O   O6        1.0  0.8380154876845141  0.5204925044246196  0.5979225026471833  1.0000
  O   O7        1.0  0.8398400214676828  0.5335904753938314  0.1786655659049874  1.0000
  O   O8        1.0  0.8399840694555197  0.31720408247241033  0.39703900637181255  1.0000
