data_image0
_chemical_formula_structural       NC5NC4H6C6ClH5C10H5Zn2C4O8
_chemical_formula_sum              "N2 C29 H16 Cl1 Zn2 O8"
_cell_length_a       13.854160002989762
_cell_length_b       9.276545438789551
_cell_length_c       9.275153671780862
_cell_angle_alpha    85.73418776908572
_cell_angle_beta     89.40940609581031
_cell_angle_gamma    89.40960627284836

_space_group_name_H-M_alt    "P 1"
_space_group_IT_number       1

loop_
  _space_group_symop_operation_xyz
  'x, y, z'

loop_
  _atom_site_type_symbol
  _atom_site_label
  _atom_site_symmetry_multiplicity
  _atom_site_fract_x
  _atom_site_fract_y
  _atom_site_fract_z
  _atom_site_occupancy
  N   N1        1.0  0.9090184058556728  0.5739903736626166  0.41042497519822047  1.0000
  C   C1        1.0  0.8369203148957921  0.5990465201179006  0.35137877849146376  1.0000
  C   C2        1.0  0.7472292824358475  0.6302170442223896  0.27792304876222707  1.0000
  C   C3        1.0  0.6593652340588116  0.6009227871905858  0.3496467118124653  1.0000
  C   C4        1.0  0.5720868701260495  0.6302170584898628  0.2779230255923382  1.0000
  C   C5        1.0  0.4818121739142102  0.5990463730605653  0.3513788700490603  1.0000
  N   N2        1.0  0.4092448356967207  0.573990310177396  0.41042497507397  1.0000
  C   C6        1.0  0.5727008720123845  0.6894119110802901  0.13449503461125745  1.0000
  C   C7        1.0  0.6605180626945322  0.7208556239276429  0.06266917853767517  1.0000
  C   C8        1.0  0.6611772583897705  0.7802621865876391  0.9077494666220898  1.0000
  C   C9        1.0  0.7477779616819417  0.6894119095243385  0.13449494430973385  1.0000
  H   H1        1.0  0.6589160803059381  0.5549958485302557  0.46065727741354495  1.0000
  H   H2        1.0  0.5050626318105917  0.7110519666465813  0.07884446892124353  1.0000
  H   H3        1.0  0.7257256702624131  0.848349170381466  0.8839972278686079  1.0000
  H   H4        1.0  0.5960171921403864  0.8483491724244158  0.8839972929707837  1.0000
  H   H5        1.0  0.6622972924080235  0.6895718518489389  0.8361238956940745  1.0000
  H   H6        1.0  0.8158855907073601  0.7110520788905448  0.07884438354014692  1.0000
  C   C10       1.0  0.16205100188183721  0.15055458669650812  0.4101872984158227  1.0000
  C   C11       1.0  0.16332787208945576  0.23386545493787603  0.27709853903745385  1.0000
  C   C12       1.0  0.15580337480267503  0.16845287763498495  0.14690647950100266  1.0000
  C   C13       1.0  0.14681643220496357  0.01886402356314187  0.1478002064477844  1.0000
  C   C14       1.0  0.14704546810900138  0.9340084880733076  0.2784461200880988  1.0000
  C   C15       1.0  0.15622149578756206  0.9974150637202926  0.41067516364774126  1.0000
  Cl  Cl1       1.0  0.1561829462309312  0.2746530020260163  0.9822906749324876  1.0000
  H   H7        1.0  0.20986410099666855  0.414093764280155  0.6368851375724669  1.0000
  H   H8        1.0  0.16787021536957475  0.3505787139115599  0.2742437342688606  1.0000
  H   H9        1.0  0.14057290460188931  0.9678846521531437  0.04707585519013823  1.0000
  H   H10       1.0  0.1423447316611064  0.8177412376183254  0.2757946659889592  1.0000
  H   H11       1.0  0.12226783861892643  0.6992762073589914  0.6438369393527108  1.0000
  C   C16       1.0  0.16206510190324613  0.5729011157077184  0.9870009766918462  1.0000
  C   C17       1.0  0.18656626557030354  0.7003344450393996  0.05081809416504046  1.0000
  C   C18       1.0  0.20203970686367514  0.8291250089117345  0.9658998950234294  1.0000
  C   C19       1.0  0.19310139204280463  0.8320863610814677  0.8159610805614375  1.0000
  C   C20       1.0  0.1704543319865048  0.7062613470477566  0.7505264868920443  1.0000
  C   C21       1.0  0.15620739937993955  0.5750684725910611  0.8338615017416623  1.0000
  C   C22       1.0  0.22601404321733606  0.9589303480048378  0.033083740207713104  1.0000
  C   C23       1.0  0.24608771437139546  0.06760552098963847  0.08935803457909786  1.0000
  C   C24       1.0  0.2695929817401208  0.19485936229516598  0.15526081245965534  1.0000
  C   C25       1.0  0.28966277229295967  0.30351375715279927  0.21153244375220068  1.0000
  H   H12       1.0  0.1914346020840687  0.7004074498675728  0.1674335288960298  1.0000
  H   H13       1.0  0.20458607877508792  0.9314996452308828  0.7493116770086423  1.0000
  H   H14       1.0  0.16631884364662386  0.7107760812810553  0.6336974106129967  1.0000
  H   H15       1.0  0.1707476486749011  0.22045048345005247  0.7571583958907329  1.0000
  H   H16       1.0  0.30728568814533314  0.39892122445137845  0.26094385884651317  1.0000
  Zn  Zn1       1.0  0.053372922491561996  0.5739865161775541  0.41043330869062644  1.0000
  Zn  Zn2       1.0  0.26489031954872644  0.573982398389967  0.410428476883534  1.0000
  C   C26       1.0  0.1573519965683347  0.5689144525757746  0.6737833956209527  1.0000
  C   C27       1.0  0.16091354173245587  0.5790562816762758  0.147078532473308  1.0000
  C   C28       1.0  0.1573581541697895  0.8373256682851478  0.4048369925646751  1.0000
  C   C29       1.0  0.1609073233485469  0.3106433337535155  0.416025011408228  1.0000
  O   O1        1.0  0.2407968607737844  0.5811141582242898  0.2008001852505939  1.0000
  O   O2        1.0  0.23800549807308702  0.5668523618692913  0.6200576599095721  1.0000
  O   O3        1.0  0.23800937796876065  0.7835978169360098  0.4028815374896324  1.0000
  O   O4        1.0  0.2407929093783714  0.36436871319725794  0.4179761995639652  1.0000
  O   O5        1.0  0.07747026048145167  0.7836002013732191  0.4028855860042606  1.0000
  O   O6        1.0  0.07746636918776706  0.5668564785228434  0.6200616325396231  1.0000
  O   O7        1.0  0.08025774428991062  0.5811182201930822  0.20080242424349323  1.0000
  O   O8        1.0  0.08025379221377205  0.3643727651293195  0.4179785466574988  1.0000
