data_image0
_chemical_formula_structural       NC10NC3NH7C13OH12C12ClH9Zn2C4O8
_chemical_formula_sum              "N3 C42 H28 O9 Cl1 Zn2"
_cell_length_a       19.210446455230148
_cell_length_b       10.299150109392551
_cell_length_c       10.299771906710086
_cell_angle_alpha    85.52403423523229
_cell_angle_beta     89.99986541556282
_cell_angle_gamma    89.9285097185194

_space_group_name_H-M_alt    "P 1"
_space_group_IT_number       1

loop_
  _space_group_symop_operation_xyz
  'x, y, z'

loop_
  _atom_site_type_symbol
  _atom_site_label
  _atom_site_symmetry_multiplicity
  _atom_site_fract_x
  _atom_site_fract_y
  _atom_site_fract_z
  _atom_site_occupancy
  N   N1        1.0  0.6550960096485948  0.42071254285914517  0.5668752594808988  1.0000
  C   C1        1.0  0.5948669213998666  0.42292013107846377  0.5671057099786196  1.0000
  C   C2        1.0  0.5200618136646648  0.4256571362841919  0.567391208733907  1.0000
  C   C3        1.0  0.4844228039793649  0.5418905780468413  0.5824662456820999  1.0000
  C   C4        1.0  0.4117572798132241  0.5420421410328158  0.5824136006665508  1.0000
  C   C5        1.0  0.3748948867078759  0.4263661227566289  0.5674774677614076  1.0000
  C   C6        1.0  0.2975730905098895  0.4250096048672267  0.5673273045415876  1.0000
  C   C7        1.0  0.2597854140037055  0.5286061544848308  0.5039330724094546  1.0000
  C   C8        1.0  0.1870074079353116  0.5272038658580176  0.5038244412240387  1.0000
  C   C9        1.0  0.1510155955534628  0.42246256958661266  0.5670589642597947  1.0000
  C   C10       1.0  0.0760863960866117  0.4211604450699468  0.5669225471042518  1.0000
  N   N2        1.0  0.0158488015364356  0.4201134927363033  0.5668129026009092  1.0000
  C   C11       1.0  0.18807957950868665  0.31899172823818306  0.6304281483455834  1.0000
  C   C12       1.0  0.2608595105491545  0.32011971578087994  0.6305871117733854  1.0000
  C   C13       1.0  0.4131433206683506  0.3119529670747374  0.5526900196137166  1.0000
  N   N3        1.0  0.4839126556807822  0.31439804970875856  0.5528548098331945  1.0000
  H   H1        1.0  0.5125020135170317  0.6313262985965311  0.5944863888732062  1.0000
  H   H2        1.0  0.38446667390020234  0.6320593380094879  0.5958282778772561  1.0000
  H   H3        1.0  0.2864860024619412  0.6098803555173807  0.4529169969119409  1.0000
  H   H4        1.0  0.1588346651281642  0.6076499015394285  0.4541390150906612  1.0000
  H   H5        1.0  0.1607392285139656  0.2375822637698544  0.6800143944028954  1.0000
  H   H6        1.0  0.2883875092436226  0.23979243397746083  0.6817102206934162  1.0000
  H   H7        1.0  0.3868999505651324  0.2210728075875683  0.5392293680155478  1.0000
  C   C14       1.0  0.8355413505901137  0.03901323356436537  0.5669881962839625  1.0000
  C   C15       1.0  0.8342710278562231  0.02717139343598585  0.703798775757023  1.0000
  C   C16       1.0  0.8335663563288215  0.9040329064175906  0.77290096024622  1.0000
  C   C17       1.0  0.8341367876107441  0.7919163772182041  0.70343540495473  1.0000
  C   C18       1.0  0.8354101130403812  0.8018027810587796  0.5667112237006451  1.0000
  C   C19       1.0  0.8361068678163417  0.9258114012325899  0.49928662456190515  1.0000
  C   C20       1.0  0.8322164218243238  0.892487368927082  0.9175409200589526  1.0000
  C   C21       1.0  0.7894192022845725  0.7996584182660261  0.9855695448853743  1.0000
  C   C22       1.0  0.7881258533490882  0.7888755266211467  0.12167560650119569  1.0000
  C   C23       1.0  0.8300629060327371  0.8697615130382739  0.19221345954745425  1.0000
  C   C24       1.0  0.8721942111330308  0.9635450172269637  0.12482751969308413  1.0000
  C   C25       1.0  0.8735037183411728  0.974503679157137  0.9887211665717659  1.0000
  C   C26       1.0  0.8272094551899078  0.860531331772721  0.3382998296004741  1.0000
  O   O1        1.0  0.7751855951532766  0.9437814269769303  0.3785493701219106  1.0000
  H   H8        1.0  0.8374869052429104  0.26865884861714173  0.3087518945894443  1.0000
  H   H9        1.0  0.8328616937751004  0.11393037387361682  0.756807453767903  1.0000
  H   H10       1.0  0.8345385331694382  0.696776426825442  0.756268707732797  1.0000
  H   H11       1.0  0.8370870521164303  0.9341532921779874  0.3938271727894629  1.0000
  H   H12       1.0  0.8358530265252003  0.47813004850931107  0.5141223165073654  1.0000
  H   H13       1.0  0.7561249939250425  0.7367216882411356  0.933466746762087  1.0000
  H   H14       1.0  0.7542686172443702  0.7175860516206327  0.17205688445941425  1.0000
  H   H15       1.0  0.9042062823491471  0.028036608304365936  0.1776767431755123  1.0000
  H   H16       1.0  0.9073843473807829  0.046238290974052854  0.939146525656594  1.0000
  H   H17       1.0  0.8784156681490001  0.8882626721087125  0.37846087604116896  1.0000
  H   H18       1.0  0.8159004644617115  0.758516747137147  0.3761142643332358  1.0000
  H   H19       1.0  0.7754518102012629  0.9340729084339161  0.4751757441561089  1.0000
  C   C27       1.0  0.8354425818478998  0.42051441201748685  0.18548039797219373  1.0000
  C   C28       1.0  0.8985687967516856  0.48929822526035804  0.1791167775687066  1.0000
  C   C29       1.0  0.9305893266725621  0.5240433176253085  0.05876197587989096  1.0000
  C   C30       1.0  0.8986359821116332  0.48908293375482964  0.9438470678273094  1.0000
  C   C31       1.0  0.835508871771487  0.42030168210013397  0.9482190314951788  1.0000
  C   C32       1.0  0.8042660011648712  0.38640176525037373  0.06950351903978191  1.0000
  C   C33       1.0  0.9973720608456881  0.596809459791062  0.053083544007728405  1.0000
  C   C34       1.0  0.00835592441135802  0.6998048540563424  0.1328463366999666  1.0000
  C   C35       1.0  0.0712447812409327  0.7681934100623588  0.12731432492469463  1.0000
  C   C36       1.0  0.12386333539545615  0.7346324655113071  0.042329319557861345  1.0000
  C   C37       1.0  0.11354386319044263  0.6324955058259284  0.9626948950484978  1.0000
  C   C38       1.0  0.0507174339705847  0.5639065077899601  0.9678513375577323  1.0000
  Cl  Cl1       1.0  0.20272515537421223  0.8205588613190042  0.03562483077117617  1.0000
  H   H20       1.0  0.8113699581357238  0.3943616755619117  0.5153541766577259  1.0000
  H   H21       1.0  0.9234694883416136  0.5144584716815062  0.26808412636752976  1.0000
  H   H22       1.0  0.9226192337050529  0.5171865246943452  0.8507231355872348  1.0000
  H   H23       1.0  0.755566608914589  0.33333934026168993  0.07364455642854016  1.0000
  H   H24       1.0  0.8114678127824795  0.3940469154598307  0.622435089223313  1.0000
  H   H25       1.0  0.9679969397111716  0.7285273662995848  0.19821684342395215  1.0000
  H   H26       1.0  0.07892804045374979  0.8474611536526994  0.1889178228544004  1.0000
  H   H27       1.0  0.15422014351869406  0.6059197910093314  0.8969799785581065  1.0000
  H   H28       1.0  0.044189643895207416  0.48409652304636536  0.9064673711738628  1.0000
  Zn  Zn1       1.0  0.7592014731065108  0.4205362035081465  0.5668647649651397  1.0000
  Zn  Zn2       1.0  0.9117433248838966  0.42027924571624714  0.566834036747855  1.0000
  C   C39       1.0  0.835495685377328  0.4151677721625968  0.8040469504457401  1.0000
  C   C40       1.0  0.8354507780944894  0.4256493129725112  0.32965197780319655  1.0000
  C   C41       1.0  0.8354308863494484  0.6576208079737367  0.5615883827895365  1.0000
  C   C42       1.0  0.8355155253449879  0.1831947168008421  0.5721106152752307  1.0000
  O   O2        1.0  0.8933423675755663  0.4272694522979359  0.3780256178774011  1.0000
  O   O3        1.0  0.8933798319531784  0.41335162812118353  0.7556496148750051  1.0000
  O   O4        1.0  0.8933267256668261  0.6091355217136676  0.5598626057248295  1.0000
  O   O5        1.0  0.8933954217996549  0.23148556811127086  0.5738125296599221  1.0000
  O   O6        1.0  0.7775493241357043  0.6093298812022255  0.559886272056727  1.0000
  O   O7        1.0  0.7776024301443895  0.4135475480593749  0.7556732113947264  1.0000
  O   O8        1.0  0.7775649656851398  0.42746532741196347  0.3780476530112822  1.0000
  O   O9        1.0  0.7776180199164436  0.23168143390858287  0.5738346621651127  1.0000
