data_image0
_chemical_formula_structural       NC9NC3NH7C7F3H5C12H10Zn2C4O8
_chemical_formula_sum              "N3 C35 H22 F3 Zn2 O8"
_cell_length_a       16.053384444249904
_cell_length_b       9.272718291674593
_cell_length_c       10.299141136925906
_cell_angle_alpha    85.97515333800408
_cell_angle_beta     89.82059794555093
_cell_angle_gamma    88.75080299671951

_space_group_name_H-M_alt    "P 1"
_space_group_IT_number       1

loop_
  _space_group_symop_operation_xyz
  'x, y, z'

loop_
  _atom_site_type_symbol
  _atom_site_label
  _atom_site_symmetry_multiplicity
  _atom_site_fract_x
  _atom_site_fract_y
  _atom_site_fract_z
  _atom_site_occupancy
  N   N1        1.0  0.7774167191553991  0.5592399733968176  0.5750772058295877  1.0000
  C   C1        1.0  0.7267457906322433  0.5361567831993941  0.5000698280533444  1.0000
  C   C2        1.0  0.663775663966844  0.5074756625037038  0.4068923378751177  1.0000
  C   C3        1.0  0.6774243373590731  0.4941079672815074  0.27606374744830825  1.0000
  C   C4        1.0  0.6009102936316666  0.46600463032417183  0.22361703216748552  1.0000
  C   C5        1.0  0.5438444671759831  0.463790838451974  0.3252770622313661  1.0000
  C   C6        1.0  0.4533033806399373  0.43734583380538705  0.3148498953496224  1.0000
  C   C7        1.0  0.39722285978389704  0.48473865337231037  0.40908266954638295  1.0000
  C   C8        1.0  0.3117799065547106  0.4596580627986335  0.39909710720782243  1.0000
  C   C9        1.0  0.2549114833327149  0.5089873946055223  0.49571505157872786  1.0000
  N   N2        1.0  0.2092059608534422  0.5486412216131622  0.573380753334495  1.0000
  C   C10       1.0  0.2816919800560503  0.38706031511021965  0.29489163483008674  1.0000
  C   C11       1.0  0.33676342183364827  0.3398002322528173  0.2008714402576985  1.0000
  C   C12       1.0  0.422001119107618  0.36469694852307644  0.2104591544741048  1.0000
  N   N3        1.0  0.5829459640671832  0.4892605276265714  0.43700917358951963  1.0000
  H   H1        1.0  0.7361074111960972  0.5037118028379328  0.2245113808061081  1.0000
  H   H2        1.0  0.5886953273396924  0.4507447914850471  0.12233436859627767  1.0000
  H   H3        1.0  0.4193068134245857  0.5429567012901366  0.48928008621802993  1.0000
  H   H4        1.0  0.2157535527747659  0.367115045967086  0.2863230334948861  1.0000
  H   H5        1.0  0.3133812710785838  0.2834050652912674  0.12045257308038447  1.0000
  H   H6        1.0  0.4632744467076795  0.32536754795656986  0.13694114495775334  1.0000
  H   H7        1.0  0.5567892048750367  0.49185960601288214  0.5297892085243214  1.0000
  C   C13       1.0  0.9951290464831184  0.1305141029658523  0.5713529177005878  1.0000
  C   C14       1.0  0.9443200244467225  0.21309843734391087  0.48179954058450875  1.0000
  C   C15       1.0  0.8876183127275311  0.1469802988371538  0.402516730605752  1.0000
  C   C16       1.0  0.8839330462277587  0.9957800077565853  0.4101240600180642  1.0000
  C   C17       1.0  0.9348036484884372  0.9122358650559875  0.4968668744429803  1.0000
  C   C18       1.0  0.9915016232152578  0.9773558322792275  0.5771161886765817  1.0000
  C   C19       1.0  0.8352917594799953  0.23720147108334236  0.3047069608360766  1.0000
  F   F1        1.0  0.813894911395465  0.36913300169771435  0.35199106464115854  1.0000
  F   F2        1.0  0.7625568569263657  0.16759381430586218  0.2778588471141911  1.0000
  F   F3        1.0  0.8802085888320036  0.26091221230736106  0.19076714362231506  1.0000
  H   H8        1.0  0.09412562509087996  0.20670062814871137  0.8512469854488733  1.0000
  H   H9        1.0  0.947644158415673  0.3299873264063966  0.47574181197206306  1.0000
  H   H10       1.0  0.8422726627559819  0.9417270796844835  0.3478346099587916  1.0000
  H   H11       1.0  0.931403594464851  0.7955497554896199  0.49862760478484236  1.0000
  H   H12       1.0  0.17039890562020932  0.8570081321568671  0.7327269617865273  1.0000
  C   C20       1.0  0.9932201134040063  0.5540603532374659  0.19284274273573995  1.0000
  C   C21       1.0  0.08018087840492116  0.5674531698829004  0.19079125071678216  1.0000
  C   C22       1.0  0.12437149904451261  0.5741150342947103  0.07261610153287479  1.0000
  C   C23       1.0  0.08042590908784386  0.5672033515482977  0.9555229281188415  1.0000
  C   C24       1.0  0.9934105957592079  0.5538095828371623  0.9556263518261221  1.0000
  C   C25       1.0  0.9503434989802164  0.5473181780558498  0.0747306645674095  1.0000
  C   C26       1.0  0.21636723101334998  0.5882851031669889  0.07149060537222551  1.0000
  C   C27       1.0  0.26628949225017906  0.5082203180302772  0.9885358047559674  1.0000
  C   C28       1.0  0.3528731409935639  0.5217374290365266  0.9877156094204509  1.0000
  C   C29       1.0  0.3905362863618538  0.6151079872974112  0.0693659402485922  1.0000
  C   C30       1.0  0.34169193824435995  0.69515587748795  0.15207188992038456  1.0000
  C   C31       1.0  0.2550849082524971  0.6820008140617173  0.1533644477299718  1.0000
  H   H13       1.0  0.9597646310564094  0.5489821096738874  0.5211030246194224  1.0000
  H   H14       1.0  0.11387701089599944  0.5707417859798252  0.28143919292172925  1.0000
  H   H15       1.0  0.11404131480825574  0.574273082866338  0.8640186233955838  1.0000
  H   H16       1.0  0.8832684357465796  0.5369920041072955  0.0755971410916123  1.0000
  H   H17       1.0  0.8291156813483087  0.5294455788979759  0.7484726994544405  1.0000
  H   H18       1.0  0.2384857858625271  0.43385845537478485  0.9256241673795447  1.0000
  H   H19       1.0  0.3908119901206657  0.4594584453659789  0.9239214181813282  1.0000
  H   H20       1.0  0.45756676837281085  0.6254308288777746  0.06854840167270537  1.0000
  H   H21       1.0  0.37093386136372963  0.7677806975503043  0.2150465337229272  1.0000
  H   H22       1.0  0.21833822606089126  0.7464210727361178  0.2170645666737281  1.0000
  Zn  Zn1       1.0  0.9020217832217652  0.5561775546280472  0.5745951134017351  1.0000
  Zn  Zn2       1.0  0.08460092629631344  0.5516918896812089  0.5738733807007601  1.0000
  C   C32       1.0  0.9933973154413818  0.5481128003823121  0.8114048065625538  1.0000
  C   C33       1.0  0.9932273800740847  0.5597584142288288  0.33706381951427233  1.0000
  C   C34       1.0  0.9921817143587879  0.8172865311841062  0.5708513086335397  1.0000
  C   C35       1.0  0.9944429262930106  0.290582952561631  0.5776173751425824  1.0000
  O   O1        1.0  0.06251767905787253  0.559962158518547  0.38519179374750623  1.0000
  O   O2        1.0  0.06268036602342653  0.5445034525454377  0.7627286726377229  1.0000
  O   O3        1.0  0.061697819079916665  0.7618646668380018  0.5684800349997989  1.0000
  O   O4        1.0  0.06350016363099154  0.3426009561034016  0.5794403343213976  1.0000
  O   O5        1.0  0.9231224835817778  0.7652684897381631  0.5690281600205687  1.0000
  O   O6        1.0  0.9241050230836457  0.5479090078433125  0.7632767401986676  1.0000
  O   O7        1.0  0.9239423359988498  0.5633676640815919  0.38573829947193494  1.0000
  O   O8        1.0  0.9249248206370505  0.34600645132133745  0.5799869373493303  1.0000
