data_image0
_chemical_formula_structural       NC8NH4C6H5C12H8Zn2C4O8
_chemical_formula_sum              "N2 C30 H17 Zn2 O8"
_cell_length_a       13.859017981522156
_cell_length_b       10.302888698854451
_cell_length_c       13.024585202197207
_cell_angle_alpha    85.80961696087208
_cell_angle_beta     93.99278861396841
_cell_angle_gamma    90.01758701231647

_space_group_name_H-M_alt    "P 1"
_space_group_IT_number       1

loop_
  _space_group_symop_operation_xyz
  'x, y, z'

loop_
  _atom_site_type_symbol
  _atom_site_label
  _atom_site_symmetry_multiplicity
  _atom_site_fract_x
  _atom_site_fract_y
  _atom_site_fract_z
  _atom_site_occupancy
  N   N1        1.0  0.8346353194794025  0.41498104629925375  0.8649339885223692  1.0000
  C   C1        1.0  0.7594145676913036  0.40842599959490317  0.8211574229716702  1.0000
  C   C2        1.0  0.6658446002840301  0.40027271431585043  0.7667050717167845  1.0000
  C   C3        1.0  0.6587099354726509  0.3843730146471046  0.6605203153949476  1.0000
  C   C4        1.0  0.567815085397265  0.3764558906276039  0.6076400843041904  1.0000
  C   C5        1.0  0.4838446482828659  0.38437456431903294  0.6605201382694009  1.0000
  C   C6        1.0  0.49061435501229095  0.400273589844998  0.7667049405826758  1.0000
  C   C7        1.0  0.5817051169495038  0.4082216476138571  0.819789360070135  1.0000
  C   C8        1.0  0.4041747398813461  0.40842681233573797  0.8211572513959173  1.0000
  N   N2        1.0  0.334686399506446  0.4149813281749994  0.8649339217199787  1.0000
  H   H1        1.0  0.7232697958981027  0.3781163610039397  0.6187377338654729  1.0000
  H   H2        1.0  0.5624447716458006  0.36417428984841904  0.5256169290421642  1.0000
  H   H3        1.0  0.41381350720214044  0.3781191482648712  0.6187374343049818  1.0000
  H   H4        1.0  0.5870863409321411  0.42052801484503965  0.9019792738233112  1.0000
  C   C9        1.0  0.08456834297471062  0.03373384332043554  0.8649046023580714  1.0000
  C   C10       1.0  0.18299203711196246  0.029562559687442473  0.8990560156819938  1.0000
  C   C11       1.0  0.2318264919421598  0.9106136776153623  0.9160006318232681  1.0000
  C   C12       1.0  0.18324701394692489  0.7945474647157312  0.8991443845644116  1.0000
  C   C13       1.0  0.08476319133970467  0.7962186167449522  0.8649721944038256  1.0000
  C   C14       1.0  0.03593974121453589  0.9163868319439598  0.8480312995084908  1.0000
  H   H5        1.0  0.222363228437084  0.1181505861836747  0.912717182930985  1.0000
  H   H6        1.0  0.30767644495640845  0.9083705466397918  0.9423190874003521  1.0000
  H   H7        1.0  0.22279221732447566  0.7035949110420898  0.9128657367358158  1.0000
  H   H8        1.0  0.9600484481508457  0.9186740492803169  0.8216984079698917  1.0000
  H   H9        1.0  0.8992653651647787  0.59220245016259  0.8006067657566112  1.0000
  C   C15       1.0  0.06488798440618537  0.41341804942669724  0.5627193829506594  1.0000
  C   C16       1.0  0.043583553849431356  0.517162251159619  0.48829879288631894  1.0000
  C   C17       1.0  0.07654998212510722  0.51517458952881  0.3894185127056048  1.0000
  C   C18       1.0  0.13074176728306108  0.4090947651034204  0.3629618587868939  1.0000
  C   C19       1.0  0.15296294717926728  0.30608926324667135  0.43730932824408764  1.0000
  C   C20       1.0  0.12004506691947392  0.3079679724910209  0.5362328624460249  1.0000
  C   C21       1.0  0.16702774140689303  0.40789657589748723  0.2587616761870333  1.0000
  C   C22       1.0  0.26765856886833816  0.40366392731683143  0.2510790747373808  1.0000
  C   C23       1.0  0.3064479624546329  0.41054844709943783  0.15485535097717787  1.0000
  C   C24       1.0  0.24542175824049983  0.42202226863406594  0.0650077902636088  1.0000
  C   C25       1.0  0.1452863891162937  0.4250410522668773  0.07094765903303178  1.0000
  C   C26       1.0  0.1044435172342082  0.41653441151148535  0.16715738830010157  1.0000
  H   H10       1.0  0.0016176595618619858  0.6000381736434488  0.5064889319558746  1.0000
  H   H11       1.0  0.05995986676852261  0.5964503552272651  0.33342831031462383  1.0000
  H   H12       1.0  0.1953335501552098  0.22388416615785367  0.41843788724633546  1.0000
  H   H13       1.0  0.13788246881213784  0.2268300662766347  0.5919049304367694  1.0000
  H   H14       1.0  0.3164029623121103  0.3973289115427343  0.3200253557944973  1.0000
  H   H15       1.0  0.38406252127918616  0.40797309540976046  0.14997391443798835  1.0000
  H   H16       1.0  0.2757369916821508  0.4277473488223409  0.9904413474102655  1.0000
  H   H17       1.0  0.8669126861411909  0.46178152744077344  0.08262690650644598  1.0000
  Zn  Zn1       1.0  0.9789396533365955  0.4149776914202068  0.8649399093637302  1.0000
  Zn  Zn2       1.0  0.19038261670116244  0.41497413375616105  0.8649364204736454  1.0000
  C   C27       1.0  0.09696322973908948  0.41077331531534744  0.0529052297536051  1.0000
  C   C28       1.0  0.072361356278279  0.4191801484403219  0.6769712012027642  1.0000
  C   C29       1.0  0.08445301444857643  0.6520716130069935  0.860858314631029  1.0000
  C   C30       1.0  0.08487150261019118  0.1778802912274704  0.8690181710569835  1.0000
  O   O1        1.0  0.15511098935381207  0.42110694745600935  0.715313830593677  1.0000
  O   O2        1.0  0.1746938937621863  0.40884283517726283  0.014559656031566946  1.0000
  O   O3        1.0  0.16459072503871663  0.6036942677322558  0.8594804134438266  1.0000
  O   O4        1.0  0.16521408087864597  0.22625552379164374  0.8703929960180525  1.0000
  O   O5        1.0  0.004108117003651192  0.6036963013873237  0.8594833338151004  1.0000
  O   O6        1.0  0.014211282530261384  0.40884642835613594  0.014562521666975576  1.0000
  O   O7        1.0  0.9946282972002857  0.4211104890138522  0.7153154588799082  1.0000
  O   O8        1.0  0.004731393768295327  0.22625905646145889  0.8703947014634258  1.0000
