data_image0
_chemical_formula_structural       NC8NC6H8C12NCOCH12C12NCOH10Zn2C4O8
_chemical_formula_sum              "N4 C45 H30 O10 Zn2"
_cell_length_a       17.457602349358154
_cell_length_b       10.299155265289647
_cell_length_c       10.299148425239203
_cell_angle_alpha    85.52041506248939
_cell_angle_beta     92.86184502014838
_cell_angle_gamma    91.66712233072684

_space_group_name_H-M_alt    "P 1"
_space_group_IT_number       1

loop_
  _space_group_symop_operation_xyz
  'x, y, z'

loop_
  _atom_site_type_symbol
  _atom_site_label
  _atom_site_symmetry_multiplicity
  _atom_site_fract_x
  _atom_site_fract_y
  _atom_site_fract_z
  _atom_site_occupancy
  N   N1        1.0  0.7223062627552262  0.4534917827687437  0.6259654141237316  1.0000
  C   C1        1.0  0.66124025200094  0.4075682770587435  0.6153635111023312  1.0000
  C   C2        1.0  0.5852715488630734  0.35044514669129095  0.6021842844803139  1.0000
  C   C3        1.0  0.5267225737477557  0.3905781176650908  0.6770738384326439  1.0000
  C   C4        1.0  0.4521913845881466  0.3355731190200206  0.6645084199108846  1.0000
  C   C5        1.0  0.3900503406733654  0.37794752599605297  0.7438193381326491  1.0000
  C   C6        1.0  0.315507958980744  0.39644029816185755  0.6880466453165284  1.0000
  C   C7        1.0  0.2569590060201674  0.43638928770810637  0.76304421738918  1.0000
  C   C8        1.0  0.1809786678603082  0.45548887357878853  0.7050557390411  1.0000
  N   N2        1.0  0.11990339389746033  0.4708385604808009  0.6584331555151772  1.0000
  C   C9        1.0  0.27246014054287193  0.45808844870664883  0.8943229540160651  1.0000
  C   C10       1.0  0.34621767223649297  0.43998452447640224  0.9504831458576722  1.0000
  C   C11       1.0  0.4047549106240617  0.40021540885276685  0.8759432660341755  1.0000
  C   C12       1.0  0.4374981852083475  0.23975828796477525  0.5756206545433373  1.0000
  C   C13       1.0  0.4960353190936141  0.1999038465225418  0.5011310403036888  1.0000
  C   C14       1.0  0.5697816342010247  0.2550209978683524  0.5142464064440536  1.0000
  H   H1        1.0  0.5390396472145015  0.4657490940185507  0.7436848939093528  1.0000
  H   H2        1.0  0.30318174631802747  0.3815117235593711  0.5860207188919666  1.0000
  H   H3        1.0  0.22758333527368171  0.48894848869864593  0.9531526175542671  1.0000
  H   H4        1.0  0.35802988037651007  0.456471007630189  0.052135298696245884  1.0000
  H   H5        1.0  0.4612369219633018  0.3852034636651165  0.9220572236139427  1.0000
  H   H6        1.0  0.3810253254690886  0.19442450042114134  0.5649824467610303  1.0000
  H   H7        1.0  0.4842319857834841  0.1258498981252849  0.43332123966105146  1.0000
  H   H8        1.0  0.6146586014809281  0.22329099502004968  0.455928172599138  1.0000
  C   C15       1.0  0.9211941643346008  0.08077151722224851  0.6423252940511397  1.0000
  C   C16       1.0  0.9081093583418769  0.08996857419187719  0.5063226044103759  1.0000
  C   C17       1.0  0.9014008020304353  0.9774908108764286  0.43724257798806754  1.0000
  C   C18       1.0  0.9079259665966741  0.8547009581879423  0.5059998233160515  1.0000
  C   C19       1.0  0.9210228505263724  0.8435491533288223  0.6420850952476279  1.0000
  C   C20       1.0  0.927579733255478  0.9570987192332334  0.7094103115646562  1.0000
  C   C21       1.0  0.8875596043217422  0.9881938972595241  0.2933682319212331  1.0000
  C   C22       1.0  0.926479481789546  0.08404377398409492  0.2151233979583036  1.0000
  C   C23       1.0  0.9134603154987713  0.09398548162452824  0.07972856758200009  1.0000
  C   C24       1.0  0.8617380096242132  0.007414596633128713  0.019750649891931316  1.0000
  C   C25       1.0  0.8218810250149016  0.9133401547426763  0.09785079578231226  1.0000
  C   C26       1.0  0.8349281391941584  0.9031436657894791  0.23321057042458393  1.0000
  N   N3        1.0  0.8462504434273842  0.017049045283042515  0.8809157060903461  1.0000
  C   C27       1.0  0.9022831219824238  0.05647958228008675  0.7872670501831398  1.0000
  O   O1        1.0  0.9726599499854722  0.06207035838973484  0.8208742887371963  1.0000
  C   C28       1.0  0.8778292256973137  0.08192907410418161  0.6467210188200809  1.0000
  H   H9        1.0  0.9020473467110289  0.18477523247250582  0.4540144880426688  1.0000
  H   H10       1.0  0.9038069823598787  0.7677486217515949  0.4530315086753254  1.0000
  H   H11       1.0  0.9376749003142231  0.949290084799855  0.8143117936372679  1.0000
  H   H12       1.0  0.9462019432601121  0.6152374971804007  0.8988456157542508  1.0000
  H   H13       1.0  0.9674400343905102  0.15085905381126707  0.25856322585392455  1.0000
  H   H14       1.0  0.9429011153506056  0.17075553412896283  0.02254829262358515  1.0000
  H   H15       1.0  0.7808469780401786  0.8472261545222873  0.053537872587578805  1.0000
  H   H16       1.0  0.8030220239396149  0.8298819836665925  0.29102253095509245  1.0000
  H   H17       1.0  0.7922196304077528  0.9858387775666378  0.8454280399314971  1.0000
  H   H18       1.0  0.8224501866120277  0.13296085217105813  0.6377448353160861  1.0000
  H   H19       1.0  0.8707368699586134  0.9880327391132947  0.6009147733245208  1.0000
  H   H20       1.0  0.9215120334291486  0.14395402310039507  0.5948891690573856  1.0000
  C   C29       1.0  0.9211661633981701  0.4623186846689196  0.2608136514810002  1.0000
  C   C30       1.0  0.9989964430827266  0.5012759061161036  0.2631892877433606  1.0000
  C   C31       1.0  0.03833620917453362  0.5208084984356196  0.1472517641327273  1.0000
  C   C32       1.0  0.998834788622508  0.5009286773775805  0.027919032937985696  1.0000
  C   C33       1.0  0.9210508156550634  0.4620019520486485  0.02359671347918191  1.0000
  C   C34       1.0  0.8826728410623744  0.44291622045193946  0.14058704200103733  1.0000
  C   C35       1.0  0.12062495283110097  0.5619942746677831  0.15085378649512715  1.0000
  C   C36       1.0  0.17218980519549731  0.5068687543940107  0.07148353965917907  1.0000
  C   C37       1.0  0.24958631888639854  0.545761497047643  0.07501908304176297  1.0000
  C   C38       1.0  0.2772304750530102  0.6392474544314044  0.15875812378833465  1.0000
  C   C39       1.0  0.22558907065017975  0.6962159885686379  0.2365531752223737  1.0000
  C   C40       1.0  0.14815786239661222  0.6574284087695188  0.23311160829423438  1.0000
  N   N4        1.0  0.35689771319229696  0.6789329328182179  0.15871760580236294  1.0000
  C   C41       1.0  0.4010186866803256  0.7175336648608583  0.2710397426202553  1.0000
  O   O2        1.0  0.3750632841603885  0.7022376534921768  0.3832846030729422  1.0000
  H   H21       1.0  0.7743875769466138  0.3880302398573936  0.4636928331941034  1.0000
  H   H22       1.0  0.02943216680201188  0.5148001143173231  0.3555974535512374  1.0000
  H   H23       1.0  0.028597835589939904  0.5176200408956873  0.9381120183151248  1.0000
  H   H24       1.0  0.8226770164484227  0.4128875677454669  0.13796829891322826  1.0000
  H   H25       1.0  0.15286396682782177  0.43251031346510005  0.007754349148891836  1.0000
  H   H26       1.0  0.2883608872791663  0.501911841326248  0.013244001768083486  1.0000
  H   H27       1.0  0.24447906318565527  0.7727201137343565  0.29783952404981506  1.0000
  H   H28       1.0  0.10947322124079674  0.7039484407146079  0.29300066826077864  1.0000
  H   H29       1.0  0.38640629733815857  0.6712803751803171  0.07394685073528118  1.0000
  H   H30       1.0  0.4586153547184253  0.757089088300698  0.2599082247703284  1.0000
  Zn  Zn1       1.0  0.8370442059128802  0.4584942020619421  0.635342402957777  1.0000
  Zn  Zn2       1.0  0.005165437274012641  0.4658254882578694  0.6490668031926874  1.0000
  C   C42       1.0  0.9210720762181649  0.4568877292040554  0.8794159014646717  1.0000
  C   C43       1.0  0.9211394024599704  0.46743367984671486  0.4049935815138266  1.0000
  C   C44       1.0  0.9210520448935805  0.6993698913555149  0.6369547076496407  1.0000
  C   C45       1.0  0.9211593767565673  0.22494995476048693  0.6474548403797628  1.0000
  O   O3        1.0  0.9849315536477932  0.47192683774747374  0.45859002328076337  1.0000
  O   O4        1.0  0.9848800498495657  0.457957868260422  0.8362355883553215  1.0000
  O   O5        1.0  0.9848630140276691  0.6537652427372689  0.640446388259371  1.0000
  O   O6        1.0  0.9849485321139394  0.2761194701002194  0.6543791213101326  1.0000
  O   O7        1.0  0.8572610537014287  0.6482002177192008  0.6300300801500354  1.0000
  O   O8        1.0  0.8572780891797882  0.45239440367673045  0.825819210504785  1.0000
  O   O9        1.0  0.8573295932753163  0.4663633285554764  0.44817208395528396  1.0000
  O   O10       1.0  0.857346571725688  0.2705559515782377  0.643961279360939  1.0000
