data_image0
_chemical_formula_structural       NC6NC3H6C9H9C6ClH3Zn2C4O8
_chemical_formula_sum              "N2 C28 H18 Cl1 Zn2 O8"
_cell_length_a       14.934028789175542
_cell_length_b       10.297183801781406
_cell_length_c       10.302974078461048
_cell_angle_alpha    85.53397833117516
_cell_angle_beta     89.97499619632823
_cell_angle_gamma    89.9601079490019

_space_group_name_H-M_alt    "P 1"
_space_group_IT_number       1

loop_
  _space_group_symop_operation_xyz
  'x, y, z'

loop_
  _atom_site_type_symbol
  _atom_site_label
  _atom_site_symmetry_multiplicity
  _atom_site_fract_x
  _atom_site_fract_y
  _atom_site_fract_z
  _atom_site_occupancy
  N   N1        1.0  0.8431480905468746  0.4209196538825104  0.5668452767836942  1.0000
  C   C1        1.0  0.7656620475813024  0.4199304549752664  0.5662343445096865  1.0000
  C   C2        1.0  0.6692655048452114  0.41869534335880015  0.5654717093342063  1.0000
  C   C3        1.0  0.6215033823559424  0.5148866614015098  0.6247698737499714  1.0000
  C   C4        1.0  0.5279916526443037  0.513894953142184  0.6241584077471336  1.0000
  C   C5        1.0  0.48132949660096447  0.416761015929928  0.5642792194275912  1.0000
  C   C6        1.0  0.38468373868064015  0.41884512263336204  0.5655651537814764  1.0000
  N   N2        1.0  0.3072036269868458  0.42049912405824075  0.5665860005369344  1.0000
  C   C7        1.0  0.5290860422730372  0.31923891204360905  0.5041601781049816  1.0000
  C   C8        1.0  0.4807693123482479  0.2136341313871093  0.43906016204006904  1.0000
  C   C9        1.0  0.6232288447420282  0.3212425643600317  0.5053953981424647  1.0000
  H   H1        1.0  0.6565480051717255  0.5906764973362646  0.6714918576560955  1.0000
  H   H2        1.0  0.49195632759302366  0.589101097410432  0.6705204388174528  1.0000
  H   H3        1.0  0.43801848404639315  0.25783586696572924  0.3592375380632711  1.0000
  H   H4        1.0  0.4380261514788958  0.1570235586367423  0.5112392319635092  1.0000
  H   H5        1.0  0.5282278371343138  0.1452323938761917  0.3968873650578937  1.0000
  H   H6        1.0  0.6607572343026041  0.24703688599462442  0.45965037725217384  1.0000
  C   C10       1.0  0.07518329562897796  0.03923381275610228  0.5668995804373849  1.0000
  C   C11       1.0  0.07257293316069946  0.049096167020206576  0.4302855578928893  1.0000
  C   C12       1.0  0.07123536101483197  0.9375324523108252  0.3602941992423183  1.0000
  C   C13       1.0  0.07256244314200483  0.8139250837163237  0.42975606237871916  1.0000
  C   C14       1.0  0.07517704126281301  0.8021749450189082  0.5665428811764618  1.0000
  C   C15       1.0  0.07646954991298127  0.9153054541638516  0.6342217275901686  1.0000
  C   C16       1.0  0.06841182193609274  0.9576314798765412  0.21253648747635073  1.0000
  C   C17       1.0  0.015980043133561495  0.8589620841917015  0.14029539667911275  1.0000
  C   C18       1.0  0.11799342411333397  0.8591778479100858  0.1361141750197257  1.0000
  H   H7        1.0  0.07156537726463848  0.14432594505943805  0.3775450078749614  1.0000
  H   H8        1.0  0.07158069451588407  0.7263262701196033  0.3784801084440903  1.0000
  H   H9        1.0  0.07848305056687566  0.906968998287955  0.7396223150305874  1.0000
  H   H10       1.0  0.08010338616199059  0.5727658024361273  0.8248946724817471  1.0000
  H   H11       1.0  0.06750510891877343  0.05834786783830494  0.16504456095732017  1.0000
  H   H12       1.0  0.9861000919498819  0.7753516514983025  0.19939399405324656  1.0000
  H   H13       1.0  0.9843896655210524  0.8998636871721611  0.0484593725369209  1.0000
  H   H14       1.0  0.15008112373599997  0.7756992798027622  0.19267358250421032  1.0000
  H   H15       1.0  0.14602537827218753  0.9002031879609508  0.04183321296819332  1.0000
  C   C19       1.0  0.0751801685732576  0.4207043949864851  0.1854787509412459  1.0000
  C   C20       1.0  0.05960546382043061  0.2857953127337545  0.19478419900419588  1.0000
  C   C21       1.0  0.05187776604361491  0.21885710059915642  0.08244451731163704  1.0000
  C   C22       1.0  0.059605503867799586  0.2857953860620863  0.9596762999764153  1.0000
  C   C23       1.0  0.07518016628979152  0.4207043279329324  0.9479637700472903  1.0000
  C   C24       1.0  0.08289161501693448  0.48750127204663585  0.061518009442452795  1.0000
  Cl  Cl1       1.0  0.03242126270415201  0.05032360713010475  0.09557277535034615  1.0000
  H   H16       1.0  0.05341105221862305  0.23213882030907465  0.2890104227087447  1.0000
  H   H17       1.0  0.05341111479071345  0.23213880171598267  0.8738094566085421  1.0000
  H   H18       1.0  0.09490325462262045  0.5915472055679118  0.053413043588988796  1.0000
  Zn  Zn1       1.0  0.9770645077539666  0.420794816993896  0.5667779482554791  1.0000
  Zn  Zn2       1.0  0.1732872399324018  0.4206133198406976  0.5666639482348187  1.0000
  C   C25       1.0  0.0751781992780176  0.4155292421275579  0.8038401683396224  1.0000
  C   C26       1.0  0.07517569114101175  0.42588053180287644  0.3296018535637314  1.0000
  C   C27       1.0  0.07517360190005612  0.6579628319403102  0.5614368729745143  1.0000
  C   C28       1.0  0.07518022157469485  0.18344538131316646  0.5720052189130584  1.0000
  O   O1        1.0  0.14963969275877598  0.4275431460535651  0.377927623620371  1.0000
  O   O2        1.0  0.14964271110678629  0.41372789574070584  0.7554275016411203  1.0000
  O   O3        1.0  0.14963799483529702  0.6094960864341414  0.559685125542007  1.0000
  O   O4        1.0  0.1496443420726643  0.23177496471488704  0.573669902411652  1.0000
  O   O5        1.0  0.000707338652515382  0.6096331721830569  0.5597719941107184  1.0000
  O   O6        1.0  0.0007120549070951385  0.41386654222992947  0.7555143002576867  1.0000
  O   O7        1.0  0.0007090366190434233  0.4276817472741874  0.3780128613749747  1.0000
  O   O8        1.0  0.0007136859293443994  0.2319135566441022  0.5737552375061616  1.0000
