data_image0
_chemical_formula_structural       NC10NC5H10C13OH12C12NH11Zn2C4O8
_chemical_formula_sum              "N3 C44 H33 O9 Zn2"
_cell_length_a       19.4436361288709
_cell_length_b       10.299150109392551
_cell_length_c       10.299774167527174
_cell_angle_alpha    85.55710761189597
_cell_angle_beta     89.69810155224394
_cell_angle_gamma    89.39953782186458

_space_group_name_H-M_alt    "P 1"
_space_group_IT_number       1

loop_
  _space_group_symop_operation_xyz
  'x, y, z'

loop_
  _atom_site_type_symbol
  _atom_site_label
  _atom_site_symmetry_multiplicity
  _atom_site_fract_x
  _atom_site_fract_y
  _atom_site_fract_z
  _atom_site_occupancy
  N   N1        1.0  0.6474919668496555  0.4090040790882765  0.5616840335408948  1.0000
  C   C1        1.0  0.5886542914721662  0.41890840455128076  0.5760641095345428  1.0000
  C   C2        1.0  0.5153228374286674  0.4312604322213214  0.5940515621177602  1.0000
  C   C3        1.0  0.47314479976752294  0.39925017837581556  0.4993924275517858  1.0000
  C   C4        1.0  0.39723829707751185  0.4096898991196507  0.504716805884143  1.0000
  C   C5        1.0  0.3575029184407378  0.3849522783667216  0.6117930293262059  1.0000
  C   C6        1.0  0.2813817399551254  0.3888677260885054  0.5988328844144399  1.0000
  C   C7        1.0  0.24080839148182806  0.44654430082357954  0.6925804546545005  1.0000
  C   C8        1.0  0.1691444020775714  0.4501811369044235  0.6820357805420717  1.0000
  C   C9        1.0  0.1370590733164544  0.395745388329652  0.5780301828195913  1.0000
  C   C10       1.0  0.0632658292018181  0.3994434547700785  0.5673302127639297  1.0000
  N   N2        1.0  0.003941066032998804  0.4024165061541056  0.55872814621758  1.0000
  C   C11       1.0  0.1769076524649222  0.33736171110827273  0.4846660670840821  1.0000
  C   C12       1.0  0.2485880814660454  0.33367061805000353  0.4949589922950726  1.0000
  C   C13       1.0  0.3856421893452406  0.3445032756652606  0.7428956842683996  1.0000
  C   C14       1.0  0.4442980381614771  0.38763392549697495  0.7901218579750429  1.0000
  C   C15       1.0  0.4884887248570298  0.485491331078369  0.7157249347485195  1.0000
  H   H1        1.0  0.4952493226419831  0.37012050439227884  0.4090990599086217  1.0000
  H   H2        1.0  0.3725363864476203  0.4321757137042477  0.4115548383305869  1.0000
  H   H3        1.0  0.2646709051992249  0.48984779797686695  0.7734110047489029  1.0000
  H   H4        1.0  0.1387913339568058  0.4955076162291356  0.7549385209524533  1.0000
  H   H5        1.0  0.1525732204881716  0.29425392490226265  0.40416992090206416  1.0000
  H   H6        1.0  0.2782759213096994  0.2861006527492269  0.42275330287185886  1.0000
  H   H7        1.0  0.35468761574162133  0.28028848747453106  0.807161302950552  1.0000
  H   H8        1.0  0.45945344586682024  0.35357518006034794  0.8880635658276961  1.0000
  H   H9        1.0  0.4583640206581859  0.5762098313478239  0.6904438729529372  1.0000
  H   H10       1.0  0.5317690529143037  0.5110865140822574  0.7787987728593682  1.0000
  C   C16       1.0  0.8257846213469586  0.024309435054860277  0.5603496684312266  1.0000
  C   C17       1.0  0.8245093013651279  0.012568283483810776  0.6971644131490363  1.0000
  C   C18       1.0  0.8238028578023145  0.8894817000933076  0.7662692070968223  1.0000
  C   C19       1.0  0.8243767160974199  0.7773152842381503  0.6968021350455654  1.0000
  C   C20       1.0  0.8256549902272886  0.7871009999460001  0.560073760659004  1.0000
  C   C21       1.0  0.8263533643790161  0.9110588239877355  0.49264654169720307  1.0000
  C   C22       1.0  0.8224477225489357  0.8780427281242706  0.9109136259766185  1.0000
  C   C23       1.0  0.7801510431485663  0.7859637945709003  0.979282518994539  1.0000
  C   C24       1.0  0.7788530754361426  0.7752815638063416  0.11539296156041537  1.0000
  C   C25       1.0  0.8202794390308968  0.855512434710489  0.18559134461460425  1.0000
  C   C26       1.0  0.8619180535259136  0.9485573499363651  0.11787044936822534  1.0000
  C   C27       1.0  0.8632319867896007  0.9594150825885855  0.9817595857091195  1.0000
  C   C28       1.0  0.8174385109768936  0.8464146189742244  0.3316941692958819  1.0000
  O   O1        1.0  0.7660293544939759  0.9305517310809484  0.3723592051566433  1.0000
  H   H11       1.0  0.827745003631568  0.2537725029702953  0.302109131909732  1.0000
  H   H12       1.0  0.8231089722422955  0.09938150121732024  0.7501820610816619  1.0000
  H   H13       1.0  0.8247658866993526  0.6821994051016644  0.749629889350593  1.0000
  H   H14       1.0  0.8273373892577264  0.9193230838609153  0.3871838714345979  1.0000
  H   H15       1.0  0.8261003660893426  0.4633903169615066  0.5074836164262011  1.0000
  H   H16       1.0  0.7472617013672584  0.7235494346251173  0.9274490575739762  1.0000
  H   H17       1.0  0.7453923270192185  0.7045834339634534  0.1660435798289247  1.0000
  H   H18       1.0  0.8935404438068263  0.012548288762777474  0.1704605869138457  1.0000
  H   H19       1.0  0.896715730253446  0.03055843025358461  0.9319153813406948  1.0000
  H   H20       1.0  0.868027930415601  0.8733193010557821  0.37144273810115536  1.0000
  H   H21       1.0  0.8062588638240579  0.7446097658239504  0.3695976450578039  1.0000
  H   H22       1.0  0.7662781608096275  0.9208950139358618  0.4689791896038109  1.0000
  C   C29       1.0  0.8257432261440918  0.4055902785906116  0.1788594596999029  1.0000
  C   C30       1.0  0.7583908648950317  0.35752915864323653  0.18225664668190866  1.0000
  C   C31       1.0  0.7242387889832119  0.3332924811992102  0.06683036672250808  1.0000
  C   C32       1.0  0.7583435737008456  0.3577613524285009  0.9469522438011939  1.0000
  C   C33       1.0  0.8256963728346761  0.4058202376056325  0.9415639096348172  1.0000
  C   C34       1.0  0.8590189310638879  0.42946608084177135  0.05803994173732163  1.0000
  C   C35       1.0  0.6529838942147403  0.2824471685783494  0.0714777421024344  1.0000
  C   C36       1.0  0.6336708660008404  0.18434225063327836  0.16697239098815955  1.0000
  C   C37       1.0  0.566602555114448  0.13654223017358946  0.17121280266063743  1.0000
  C   C38       1.0  0.5177863645200355  0.18597401641388323  0.0802953850193473  1.0000
  C   C39       1.0  0.5366455918917827  0.28369712879031406  0.9849640056473598  1.0000
  C   C40       1.0  0.6036932328628255  0.3315988013081947  0.9804574485006654  1.0000
  N   N3        1.0  0.44919105780450014  0.1370260696819321  0.08476908654381976  1.0000
  H   H23       1.0  0.8514192657926843  0.42384987892185655  0.5050224989918584  1.0000
  H   H24       1.0  0.7319878391903729  0.34051255598865415  0.27476763331779863  1.0000
  H   H25       1.0  0.7325887958275852  0.3375601056950837  0.8578429081762852  1.0000
  H   H26       1.0  0.9109783262856682  0.46654213248807186  0.054651180351291684  1.0000
  H   H27       1.0  0.8513505093685036  0.42418812686713214  0.6120531691986382  1.0000
  H   H28       1.0  0.6706754109323314  0.1433869199058615  0.23732997596067024  1.0000
  H   H29       1.0  0.5527409359154163  0.06074560084994851  0.2451737164274832  1.0000
  H   H30       1.0  0.4993542036862921  0.32299231551045876  0.914339351001856  1.0000
  H   H31       1.0  0.6167506548724753  0.40827685804477803  0.9068349066585375  1.0000
  H   H32       1.0  0.41244263466205155  0.17326452288612249  0.017396367462130916  1.0000
  H   H33       1.0  0.43464792701486354  0.06418754476206501  0.15548744711094156  1.0000
  Zn  Zn1       1.0  0.750355478545228  0.4070995784437226  0.5608385413767505  1.0000
  Zn  Zn2       1.0  0.9010775469994957  0.40431040144856745  0.5595843229321518  1.0000
  C   C41       1.0  0.8257045826809698  0.4006026607112887  0.7973983514124527  1.0000
  C   C42       1.0  0.8257300884577301  0.41080892751827625  0.3230246260685019  1.0000
  C   C43       1.0  0.8256762702988363  0.6429157013764264  0.5549509786848213  1.0000
  C   C44       1.0  0.8257583496698905  0.16849432739273662  0.5654720690241816  1.0000
  O   O2        1.0  0.8829239197768446  0.41149620942251564  0.3709318055532336  1.0000
  O   O3        1.0  0.8829053140368467  0.3977974780877842  0.7485388756736491  1.0000
  O   O4        1.0  0.8828816802876575  0.5934683375673961  0.5527609127685731  1.0000
  O   O5        1.0  0.8829475020992027  0.21582536015630646  0.5667096715125175  1.0000
  O   O6        1.0  0.7684854720114764  0.5955846206892046  0.5537131932175559  1.0000
  O   O7        1.0  0.7685091054965943  0.3999153216232158  0.749491086315757  1.0000
  O   O8        1.0  0.7685277113859175  0.41361400722667047  0.3718824548789024  1.0000
  O   O9        1.0  0.7685512937010617  0.2179431487002801  0.5676604182051506  1.0000
