data_image0
_chemical_formula_structural       NC8NH4C9H6C9H8Zn2C4O8
_chemical_formula_sum              "N2 C30 H18 Zn2 O8"
_cell_length_a       13.859017124695912
_cell_length_b       9.275152443626249
_cell_length_c       9.275155815604961
_cell_angle_alpha    85.85171904572837
_cell_angle_beta     90.3574901998649
_cell_angle_gamma    90.57357307376715

_space_group_name_H-M_alt    "P 1"
_space_group_IT_number       1

loop_
  _space_group_symop_operation_xyz
  'x, y, z'

loop_
  _atom_site_type_symbol
  _atom_site_label
  _atom_site_symmetry_multiplicity
  _atom_site_fract_x
  _atom_site_fract_y
  _atom_site_fract_z
  _atom_site_occupancy
  N   N1        1.0  0.9124137497033469  0.5650507572847229  0.4048500574079532  1.0000
  C   C1        1.0  0.8396686451994692  0.5417011247384254  0.3487722590712632  1.0000
  C   C2        1.0  0.749178084035962  0.5126575901308914  0.27901868369383953  1.0000
  C   C3        1.0  0.6620365381379931  0.5409720836252039  0.34701964121585815  1.0000
  C   C4        1.0  0.573947769921087  0.5126588113231942  0.2790181002348886  1.0000
  C   C5        1.0  0.5731828179014309  0.456023363447845  0.14299472485872222  1.0000
  C   C6        1.0  0.6601436256576468  0.4278176986233053  0.07525552177969286  1.0000
  C   C7        1.0  0.7480481660532902  0.4560210234526611  0.14299591117339716  1.0000
  C   C8        1.0  0.48442881056902687  0.5417020472731189  0.3487717579174565  1.0000
  N   N2        1.0  0.4124648765345595  0.5650510781284256  0.4048498403113192  1.0000
  H   H1        1.0  0.6627698379779113  0.5848101152133365  0.4523049897087536  1.0000
  H   H2        1.0  0.5055145984905202  0.43373877203662903  0.08947052033263381  1.0000
  H   H3        1.0  0.6594118819244749  0.38406919757808433  0.9701833913100368  1.0000
  H   H4        1.0  0.8149707945702633  0.4337343393059081  0.0894727130031203  1.0000
  C   C9        1.0  0.15960378173574566  0.14143131375817486  0.40632134036697365  1.0000
  C   C10       1.0  0.12427760223809695  0.2231157857327455  0.2838821484226599  1.0000
  C   C11       1.0  0.09791079511149192  0.15659976775343742  0.15915058555916903  1.0000
  C   C12       1.0  0.1064539945034213  0.007216806316575842  0.1543885664661102  1.0000
  C   C13       1.0  0.13988896469719947  0.9238352708903953  0.27579298924164775  1.0000
  C   C14       1.0  0.1652840616660607  0.9886595897606061  0.4033910426049929  1.0000
  C   C15       1.0  0.07976529987800184  0.9389544072017812  0.025221188313589774  1.0000
  C   C16       1.0  0.05741971259409229  0.881767181897459  0.9170637611188804  1.0000
  C   C17       1.0  0.03030774915335677  0.8123685980420036  0.7858336918920821  1.0000
  H   H5        1.0  0.29946910445269914  0.2255627218093581  0.6941508867004398  1.0000
  H   H6        1.0  0.11919294206016251  0.3396293622850184  0.28342880922042446  1.0000
  H   H7        1.0  0.0717177705094465  0.2220353122237353  0.06580950656642437  1.0000
  H   H8        1.0  0.14393444651281095  0.8074906043585842  0.27177250092350036  1.0000
  H   H9        1.0  0.2563711002060869  0.6950563965410218  0.6002567904697613  1.0000
  H   H10       1.0  0.07066066759697898  0.8639134114725927  0.6925452129039771  1.0000
  C   C18       1.0  0.1606515667283928  0.5613991057001904  0.9816375869432186  1.0000
  C   C19       1.0  0.08564021984336279  0.631689843340977  0.04920937606199649  1.0000
  C   C20       1.0  0.017156024801298526  0.7115678896565296  0.9676483632610288  1.0000
  C   C21       1.0  0.022414419806187524  0.7228278573282347  0.8170276194859225  1.0000
  C   C22       1.0  0.09547887545195954  0.6517620567866872  0.747750147007435  1.0000
  C   C23       1.0  0.16423624901349343  0.5686917194793686  0.8280747885100364  1.0000
  C   C24       1.0  0.952002401351944  0.8060761336285072  0.733142332609698  1.0000
  C   C25       1.0  0.893045044785442  0.8757851963771563  0.6628732108174571  1.0000
  C   C26       1.0  0.8215108992157897  0.960365357565388  0.5776020361015872  1.0000
  H   H11       1.0  0.3838318028615899  0.44501113325131575  0.09499789316771134  1.0000
  H   H12       1.0  0.08127845270593226  0.6276910326236784  0.16601474633997815  1.0000
  H   H13       1.0  0.9605796524794517  0.7657880178461591  0.0222738871211825  1.0000
  H   H14       1.0  0.09730714546212574  0.6585454346355737  0.6305803890959552  1.0000
  H   H15       1.0  0.31311139844493097  0.4851519797646781  0.5547812778242238  1.0000
  H   H16       1.0  0.8411460459804322  0.9645101191971717  0.4615887052973168  1.0000
  H   H17       1.0  0.7493032548231693  0.9089958658476962  0.5928060140649686  1.0000
  H   H18       1.0  0.8198157787350503  0.07175456646032384  0.6137215078125622  1.0000
  Zn  Zn1       1.0  0.05671771566011264  0.5650470701496002  0.40485833515323155  1.0000
  Zn  Zn2       1.0  0.26816087410647516  0.5650430995061082  0.404853423810666  1.0000
  C   C27       1.0  0.1635179996019909  0.5615664395628654  0.6680999444790425  1.0000
  C   C28       1.0  0.1613629119196882  0.5685255514256813  0.14161194958999035  1.0000
  C   C29       1.0  0.16418107301343898  0.8284659026094202  0.39820188886015195  1.0000
  C   C30       1.0  0.1606997550628151  0.301624355878529  0.41151008804152095  1.0000
  O   O1        1.0  0.24184318035467411  0.5709094514411361  0.1952989650159362  1.0000
  O   O2        1.0  0.2435181869128482  0.5591784340833705  0.6144087903514299  1.0000
  O   O3        1.0  0.24405255172996212  0.7747031388293828  0.3964641957029593  1.0000
  O   O4        1.0  0.24130874299788044  0.35538475608492315  0.4132434515702658  1.0000
  O   O5        1.0  0.08356977461351311  0.7747054135736455  0.39646830738772104  1.0000
  O   O6        1.0  0.08303542108662998  0.5591824413310909  0.614412819197642  1.0000
  O   O7        1.0  0.08136040691734903  0.5709133934903132  0.19530126129424374  1.0000
  O   O8        1.0  0.08082596994504065  0.35538868874716134  0.41324585593680485  1.0000
