data_image0
_chemical_formula_structural       NC6NC3H6C10H5C6IH3Zn2C4O8
_chemical_formula_sum              "N2 C29 H14 I1 Zn2 O8"
_cell_length_a       14.934028789175542
_cell_length_b       9.275150299802176
_cell_length_c       9.275433903346869
_cell_angle_alpha    85.8435202653109
_cell_angle_beta     89.94113207268822
_cell_angle_gamma    89.44625895822752

_space_group_name_H-M_alt    "P 1"
_space_group_IT_number       1

loop_
  _space_group_symop_operation_xyz
  'x, y, z'

loop_
  _atom_site_type_symbol
  _atom_site_label
  _atom_site_symmetry_multiplicity
  _atom_site_fract_x
  _atom_site_fract_y
  _atom_site_fract_z
  _atom_site_occupancy
  N   N1        1.0  0.8350480873055025  0.5612104696907336  0.4011756007675811  1.0000
  C   C1        1.0  0.7575684523561068  0.5601046030583665  0.4005032717417207  1.0000
  C   C2        1.0  0.6611799105721924  0.5587238224225062  0.3996639957803192  1.0000
  C   C3        1.0  0.6127947146541256  0.6662588026610083  0.464920408044778  1.0000
  C   C4        1.0  0.5192894087284612  0.6651501427213768  0.46424750116839913  1.0000
  C   C5        1.0  0.47325643184194877  0.556561382750911  0.39835168462714265  1.0000
  C   C6        1.0  0.3765971736901153  0.558891278015029  0.3997668399044767  1.0000
  N   N2        1.0  0.2991063477191881  0.56074034714395  0.4008902722430019  1.0000
  C   C7        1.0  0.5216446712663396  0.4475386736802658  0.3321919094936833  1.0000
  C   C8        1.0  0.4740119893404326  0.3294801327040411  0.2605506896810643  1.0000
  C   C9        1.0  0.6157744951764101  0.4497786135236026  0.3335512442227273  1.0000
  H   H1        1.0  0.6473484131503785  0.7509863984410279  0.5163369968885074  1.0000
  H   H2        1.0  0.4827669402471129  0.7492252116343762  0.5152679680891725  1.0000
  H   H3        1.0  0.431026034912881  0.37762974550484574  0.17170284398933908  1.0000
  H   H4        1.0  0.4315843292156607  0.26745840272113464  0.3409870174524958  1.0000
  H   H5        1.0  0.5219135850132698  0.25301183754454915  0.2141403380378275  1.0000
  H   H6        1.0  0.6537835475844471  0.3668219966841719  0.2832097867961443  1.0000
  C   C10       1.0  0.0694431253268124  0.13729312430948995  0.4034437194091385  1.0000
  C   C11       1.0  0.116580076190909  0.21813801936851807  0.2944026151685222  1.0000
  C   C12       1.0  0.15604006894704037  0.15073014995838063  0.1798263777403075  1.0000
  C   C13       1.0  0.1487636574906825  0.0014953960453878456  0.1728155166817853  1.0000
  C   C14       1.0  0.10358190572022052  0.9191977919761842  0.2812078312693691  1.0000
  C   C15       1.0  0.06471994222454013  0.9846466647433211  0.3986346594225971  1.0000
  C   C16       1.0  0.2031889696767284  0.2352906612935204  0.06829281498107731  1.0000
  C   C17       1.0  0.24266451302681735  0.3061127754474817  0.9749159749592451  1.0000
  C   C18       1.0  0.2888885425497747  0.3890504580011173  0.865575767726301  1.0000
  C   C19       1.0  0.328356474550044  0.4598672880416932  0.7722168274155159  1.0000
  H   H7        1.0  0.12088144458313538  0.33460570077438634  0.2966259584539992  1.0000
  H   H8        1.0  0.17881842762856281  0.9483770645096637  0.0841578766132771  1.0000
  H   H9        1.0  0.10084612470737662  0.8031343401595853  0.2749886016694434  1.0000
  H   H10       1.0  0.006387523450591455  0.857876061873977  0.7410230430810252  1.0000
  H   H11       1.0  0.3630126111623986  0.5220504789155134  0.6902399668455979  1.0000
  C   C20       1.0  0.06726381746935584  0.5564666023859005  0.9779123196399153  1.0000
  C   C21       1.0  0.1497637010104777  0.5536820035146983  0.051331792210401725  1.0000
  C   C22       1.0  0.23037249734078166  0.564194336834064  0.9751033206075527  1.0000
  C   C23       1.0  0.22977168145724094  0.5778267985209404  0.824480633137088  1.0000
  C   C24       1.0  0.14880112496869202  0.5784290402524929  0.7495520831848057  1.0000
  C   C25       1.0  0.06689926875853724  0.5654731685722283  0.8241660223761578  1.0000
  I   I1        1.0  0.35303669376484725  0.5621547815985561  0.08782316087959763  1.0000
  H   H12       1.0  0.8533335748434862  0.6421579490911833  0.07504808419124043  1.0000
  H   H13       1.0  0.2921741853524964  0.5865831204848795  0.7651812434259031  1.0000
  H   H14       1.0  0.9224556416401302  0.6170991247832635  0.5394869733733437  1.0000
  Zn  Zn1       1.0  0.9689653085328358  0.5610710247555158  0.4011015974524858  1.0000
  Zn  Zn2       1.0  0.16518921735879943  0.5608680990095603  0.4009761229327739  1.0000
  C   C26       1.0  0.06699822248421139  0.5580230677543165  0.6642385991359867  1.0000
  C   C27       1.0  0.06715843595841385  0.5639178757266909  0.13783925097083394  1.0000
  C   C28       1.0  0.06561061129901354  0.82441772519174  0.3938018461175503  1.0000
  C   C29       1.0  0.06854598981511284  0.2975214857557687  0.40827609068983617  1.0000
  O   O1        1.0  0.14158905481545697  0.5663352875017029  0.19146460887272543  1.0000
  O   O2        1.0  0.14149701635944686  0.5554505471949496  0.6105176003738813  1.0000
  O   O3        1.0  0.14037549829663098  0.7705676190797088  0.39213800105439756  1.0000
  O   O4        1.0  0.14271050590935408  0.35121822485734766  0.40984410013975237  1.0000
  O   O5        1.0  0.9914439530206859  0.7707208989784673  0.3922336202807377  1.0000
  O   O6        1.0  0.9925654614504047  0.5556055596979452  0.6106131329348858  1.0000
  O   O7        1.0  0.9926575009924639  0.5664902312900244  0.19155840935293234  1.0000
  O   O8        1.0  0.9937789520936843  0.35137315947600345  0.40993800870764674  1.0000
