data_image0
_chemical_formula_structural       NC6NC3H6C6BrH5C9H8Zn2C4O8
_chemical_formula_sum              "N2 C28 H19 Br1 Zn2 O8"
_cell_length_a       14.934028789175542
_cell_length_b       9.276564384272257
_cell_length_c       9.275155815604963
_cell_angle_alpha    86.0004437210585
_cell_angle_beta     90.33293635745233
_cell_angle_gamma    90.54840447220178

_space_group_name_H-M_alt    "P 1"
_space_group_IT_number       1

loop_
  _space_group_symop_operation_xyz
  'x, y, z'

loop_
  _atom_site_type_symbol
  _atom_site_label
  _atom_site_symmetry_multiplicity
  _atom_site_fract_x
  _atom_site_fract_y
  _atom_site_fract_z
  _atom_site_occupancy
  N   N1        1.0  0.8469514104170615  0.5636695631583517  0.40839976947560097  1.0000
  C   C1        1.0  0.7694556991179489  0.5625656128450907  0.4077219883472394  1.0000
  C   C2        1.0  0.6730470852788871  0.5611872245297065  0.4068759049480637  1.0000
  C   C3        1.0  0.6262246477587038  0.6685361066166766  0.4726624596817912  1.0000
  C   C4        1.0  0.5327032296217032  0.6674293655656955  0.47198408713937207  1.0000
  C   C5        1.0  0.4850921805193576  0.5590285272570275  0.405552933056646  1.0000
  C   C6        1.0  0.3884667871460865  0.5613543878424712  0.40697957484796965  1.0000
  N   N2        1.0  0.3110028385784623  0.5632002542782002  0.40811212326125457  1.0000
  C   C7        1.0  0.5318960387052022  0.4501944920923573  0.3388556809174468  1.0000
  C   C8        1.0  0.4825476696199521  0.33234025852490756  0.2666324382098253  1.0000
  C   C9        1.0  0.6260584148926198  0.4524305554296065  0.3402260584557735  1.0000
  H   H1        1.0  0.662009657481866  0.7531170731184362  0.5244967517549592  1.0000
  H   H2        1.0  0.4974025888757287  0.7513589347422758  0.5234190403357895  1.0000
  H   H3        1.0  0.4397613561380236  0.3806458518503515  0.1780000571317799  1.0000
  H   H4        1.0  0.4397187992464889  0.2701865414365032  0.34678491370177555  1.0000
  H   H5        1.0  0.5293379581504059  0.2560043110553625  0.21984510022491774  1.0000
  H   H6        1.0  0.6628618947606569  0.3696175021667989  0.28947562872411403  1.0000
  C   C10       1.0  0.07628508406126805  0.13995983064120798  0.4086261562957543  1.0000
  C   C11       1.0  0.06429229453897564  0.22233675015177545  0.2769082828636811  1.0000
  C   C12       1.0  0.06063766390778655  0.15622767587288466  0.14641562072977285  1.0000
  C   C13       1.0  0.06894618696328164  0.006801368550534146  0.1451630209123913  1.0000
  C   C14       1.0  0.079353689143453  0.9227155677617124  0.2748899679895773  1.0000
  C   C15       1.0  0.0816777504254782  0.9868989378521298  0.4078981381991136  1.0000
  Br  Br1       1.0  0.06460276852648539  0.916905797970335  0.9661038725213515  1.0000
  H   H7        1.0  0.050948813549794386  0.4045558878398492  0.6429533271632186  1.0000
  H   H8        1.0  0.059863726963015985  0.3389763712463627  0.2744436652924031  1.0000
  H   H9        1.0  0.05219651451151817  0.22159181919394524  0.04603003303657571  1.0000
  H   H10       1.0  0.08348449315346951  0.8064446457262889  0.2717801176128707  1.0000
  H   H11       1.0  0.13195608402289727  0.6908486894058733  0.6323359829985216  1.0000
  C   C16       1.0  0.07731757687967541  0.559785974306384  0.9850350867353382  1.0000
  C   C17       1.0  0.007716509798135983  0.6301236240563837  0.05283298331825481  1.0000
  C   C18       1.0  0.9441740650029822  0.7100392405994396  0.9715192839524143  1.0000
  C   C19       1.0  0.9490555102730392  0.721290497843659  0.8209248298963665  1.0000
  C   C20       1.0  0.016849735646623502  0.6501798734336792  0.7514203514837954  1.0000
  C   C21       1.0  0.08064523516334421  0.567072778539508  0.8314892121374227  1.0000
  C   C22       1.0  0.8837245124779458  0.804577026276946  0.737296738307287  1.0000
  C   C23       1.0  0.829021594147621  0.8743181170578395  0.6672429806664075  1.0000
  C   C24       1.0  0.7626494440980683  0.958937138248559  0.5822331135674794  1.0000
  H   H12       1.0  0.284413962892041  0.44322736015955205  0.09796410351241658  1.0000
  H   H13       1.0  0.0036681822025723706  0.626130249544087  0.16963045112120834  1.0000
  H   H14       1.0  0.8916785011534029  0.7642943483214146  0.02631848143685377  1.0000
  H   H15       1.0  0.018547356298944648  0.6569592620314748  0.6342672014530302  1.0000
  H   H16       1.0  0.21879060740624823  0.483421186875997  0.5578926408043454  1.0000
  H   H17       1.0  0.7808716116461749  0.9630620690851479  0.4662192848807871  1.0000
  H   H18       1.0  0.6956328135638321  0.9076526741407952  0.5973448737558189  1.0000
  H   H19       1.0  0.7610923097444654  0.07029063057233075  0.6186435350622976  1.0000
  Zn  Zn1       1.0  0.9808666501244174  0.5635303380241052  0.40832508067378565  1.0000
  Zn  Zn2       1.0  0.17708760004550006  0.5633277681831059  0.40819860530691354  1.0000
  C   C25       1.0  0.07997767358744068  0.5599505597906858  0.6714962320403632  1.0000
  C   C26       1.0  0.07797873145068035  0.5669093649585892  0.1450275924521558  1.0000
  C   C27       1.0  0.08063123138637263  0.82676000465518  0.4022926044764936  1.0000
  C   C28       1.0  0.07732509596562681  0.30009818825215895  0.4142312983864833  1.0000
  O   O1        1.0  0.1526654087873025  0.5692168744506512  0.1986745475852627  1.0000
  O   O2        1.0  0.15421814843931525  0.5574882130131522  0.6177528710868065  1.0000
  O   O3        1.0  0.15474490669727028  0.772940227944418  0.4003690365268624  1.0000
  O   O4        1.0  0.15213858321328622  0.3537648689741737  0.41605827411721075  1.0000
  O   O5        1.0  0.005815599996031655  0.7730932373036692  0.40046541189906604  1.0000
  O   O6        1.0  0.005288852463598112  0.5576429542849719  0.6178491681241292  1.0000
  O   O7        1.0  0.0037361057390810103  0.5693715505529136  0.198769111889328  1.0000
  O   O8        1.0  0.003209280520525939  0.35391953569227996  0.41615294648484946  1.0000
