data_image0
_chemical_formula_structural       NC9NC5H8C8NH7C7OCH10Zn2C4O8
_chemical_formula_sum              "N3 C34 H25 O9 Zn2"
_cell_length_a       17.807436237873137
_cell_length_b       9.27426342843186
_cell_length_c       10.300835455316061
_cell_angle_alpha    85.53020100870764
_cell_angle_beta     89.41013499251636
_cell_angle_gamma    89.00683889979415

_space_group_name_H-M_alt    "P 1"
_space_group_IT_number       1

loop_
  _space_group_symop_operation_xyz
  'x, y, z'

loop_
  _atom_site_type_symbol
  _atom_site_label
  _atom_site_symmetry_multiplicity
  _atom_site_fract_x
  _atom_site_fract_y
  _atom_site_fract_z
  _atom_site_occupancy
  N   N1        1.0  0.7158003366506708  0.5406565060370969  0.5562201455664202  1.0000
  C   C1        1.0  0.6549915423841938  0.5015812217487029  0.5452258938665648  1.0000
  C   C2        1.0  0.5793520858131729  0.4529758712863406  0.5315502384515698  1.0000
  C   C3        1.0  0.5607968101104447  0.3736607697023583  0.4266190619548081  1.0000
  C   C4        1.0  0.4873540981018686  0.3263449040947877  0.41325835371892367  1.0000
  C   C5        1.0  0.4314155848718836  0.3579249397147122  0.5047966766937122  1.0000
  C   C6        1.0  0.3533656449858997  0.30776797413583545  0.49067967502390974  1.0000
  C   C7        1.0  0.29170341397490696  0.3985515019181596  0.516549619326403  1.0000
  C   C8        1.0  0.21811713431416  0.3510101929171899  0.5032027526556702  1.0000
  C   C9        1.0  0.155421650190578  0.4447821602661446  0.5294343974566744  1.0000
  N   N2        1.0  0.105027432710387  0.5201683346885  0.5505239181613992  1.0000
  C   C10       1.0  0.2056079286454726  0.21239890049119617  0.4639608017196186  1.0000
  C   C11       1.0  0.26641270200796935  0.12159999016299029  0.4380824799587871  1.0000
  C   C12       1.0  0.3398770547389912  0.1687031800076844  0.4512271517977877  1.0000
  C   C13       1.0  0.45066538505429116  0.43778900567879725  0.6099466571419689  1.0000
  C   C14       1.0  0.5241597540293758  0.4848934371055089  0.6231518884341545  1.0000
  H   H1        1.0  0.6030387507882833  0.3486813760860773  0.35493422954143156  1.0000
  H   H2        1.0  0.47409214945719547  0.26672351379813697  0.330392320192642  1.0000
  H   H3        1.0  0.30081341629206015  0.5067778949699233  0.5453447088628991  1.0000
  H   H4        1.0  0.1489289060161009  0.17460469862126657  0.45339460746029203  1.0000
  H   H5        1.0  0.2566092502162071  0.014283992489201529  0.40808648976501055  1.0000
  H   H6        1.0  0.3861047780284942  0.09569903854090402  0.43223397083402104  1.0000
  H   H7        1.0  0.4091371977605309  0.46217008792858927  0.6829262395083058  1.0000
  H   H8        1.0  0.5379574715328742  0.5458699353932766  0.7049754635238001  1.0000
  C   C15       1.0  0.9080408690815804  0.10695395189009636  0.5536827271397481  1.0000
  C   C16       1.0  0.8983133009120782  0.19080387807229424  0.43515299260267615  1.0000
  C   C17       1.0  0.8959522858756943  0.12599519019141692  0.317589697227721  1.0000
  C   C18       1.0  0.9038709562753288  0.9757961996272156  0.3156392993296544  1.0000
  C   C19       1.0  0.9115827887850566  0.8905476283354092  0.43340255651909576  1.0000
  C   C20       1.0  0.9127940182756574  0.9538594954135536  0.5530725300256962  1.0000
  C   C21       1.0  0.9002049289189601  0.9059780376467628  0.18899810540965634  1.0000
  C   C22       1.0  0.8222749743745303  0.871138457866671  0.1612792886279466  1.0000
  N   N3        1.0  0.7607665244456023  0.8436389759592822  0.13941000437836504  1.0000
  H   H9        1.0  0.972904448548072  0.1818614921756596  0.8521057265704409  1.0000
  H   H10       1.0  0.894161167567795  0.30764094647069395  0.43308703253580194  1.0000
  H   H11       1.0  0.8886483549117783  0.19329097688764563  0.22770877014429683  1.0000
  H   H12       1.0  0.914825394577435  0.7738870658840104  0.4316446843999003  1.0000
  H   H13       1.0  0.9535419202170257  0.6542570975164397  0.755794150185422  1.0000
  H   H14       1.0  0.934905053778709  0.8050371348899796  0.193515385150407  1.0000
  H   H15       1.0  0.9223709948065448  0.9796093774991382  0.10786582634976427  1.0000
  C   C23       1.0  0.9103487853091612  0.5303367205997134  0.17206213146459426  1.0000
  C   C24       1.0  0.979697579370371  0.6004832014389307  0.16506376604486905  1.0000
  C   C25       1.0  0.01419879309809024  0.6373632949701242  0.04432096280668031  1.0000
  C   C26       1.0  0.979878031293848  0.6006653810201799  0.9297622179180484  1.0000
  C   C27       1.0  0.9104861113625169  0.5304766640819201  0.9346931316911493  1.0000
  C   C28       1.0  0.8760469759907827  0.49603839336672567  0.056269359202256064  1.0000
  C   C29       1.0  0.0894248434320168  0.7085870186721508  0.038206816257729814  1.0000
  O   O1        1.0  0.14623134119213876  0.6003120958449573  0.04495073739652433  1.0000
  C   C30       1.0  0.21716675623884615  0.6658102849848708  0.03932854789856634  1.0000
  H   H16       1.0  0.8841987917718281  0.5019543403664793  0.5022402073171899  1.0000
  H   H17       1.0  0.007169344449847956  0.6266954143139205  0.25338258154329707  1.0000
  H   H18       1.0  0.0074735715431009046  0.6270039801246814  0.8369043074396338  1.0000
  H   H19       1.0  0.8225657276713051  0.44192728003719167  0.06090442124132368  1.0000
  H   H20       1.0  0.7799923362693885  0.3966122206438194  0.7368398880729685  1.0000
  H   H21       1.0  0.09379433041741113  0.7787640081687529  0.12078057071267902  1.0000
  H   H22       1.0  0.09396847319396781  0.7787768429461528  0.9456639602442931  1.0000
  H   H23       1.0  0.26118818250818765  0.5795007723675978  0.04471546616235078  1.0000
  H   H24       1.0  0.22513984302465698  0.7323675190162067  0.1233120057879156  1.0000
  H   H25       1.0  0.22532356360939773  0.7324180155573357  0.9457982626573679  1.0000
  Zn  Zn1       1.0  0.8281228473697896  0.5347402160042516  0.5545838498951396  1.0000
  Zn  Zn2       1.0  0.9927048397455409  0.5260728721745532  0.5521708974183194  1.0000
  C   C31       1.0  0.9104262242855488  0.5247056488890842  0.7905436862407776  1.0000
  C   C32       1.0  0.9104032702944672  0.5361091641300875  0.3162111608609419  1.0000
  C   C33       1.0  0.9118907702651569  0.7937755382292295  0.5480134650640673  1.0000
  C   C34       1.0  0.9089386584435473  0.2670375452564815  0.5587414533382649  1.0000
  O   O2        1.0  0.9728795290260042  0.5347509460626947  0.3636731935870972  1.0000
  O   O3        1.0  0.9728638834264232  0.5194844656212791  0.7412499054067945  1.0000
  O   O4        1.0  0.9740456811059427  0.7367618487045775  0.5454050471289968  1.0000
  O   O5        1.0  0.9716976752261642  0.31747357623463324  0.5595179553198133  1.0000
  O   O6        1.0  0.8491299557254173  0.7433395149034792  0.5472367928102366  1.0000
  O   O7        1.0  0.8479481677534605  0.5260638643129493  0.743081580604013  1.0000
  O   O8        1.0  0.8479638128398773  0.5413302942146254  0.3655033076378452  1.0000
  O   O9        1.0  0.8467819589966087  0.32405291409063497  0.5613481667322344  1.0000
