data_image0
_chemical_formula_structural       NC5NC4H6C6BrH5C6ClH5Zn2C4O8
_chemical_formula_sum              "N2 C25 H16 Br1 Cl1 Zn2 O8"
_cell_length_a       13.854160002989762
_cell_length_b       9.276564384272257
_cell_length_c       10.302974078461048
_cell_angle_alpha    85.51203645114332
_cell_angle_beta     89.99987288003342
_cell_angle_gamma    90.58592978602583

_space_group_name_H-M_alt    "P 1"
_space_group_IT_number       1

loop_
  _space_group_symop_operation_xyz
  'x, y, z'

loop_
  _atom_site_type_symbol
  _atom_site_label
  _atom_site_symmetry_multiplicity
  _atom_site_fract_x
  _atom_site_fract_y
  _atom_site_fract_z
  _atom_site_occupancy
  N   N1        1.0  0.919717856549507  0.5782294316525167  0.56676475079971  1.0000
  C   C1        1.0  0.8475578836757376  0.6034394261887446  0.513569018114929  1.0000
  C   C2        1.0  0.7577898638746949  0.6348013431666858  0.4473914900209226  1.0000
  C   C3        1.0  0.6700166772674443  0.6053203297564391  0.512007097883306  1.0000
  C   C4        1.0  0.5826474516015897  0.6348013574950095  0.4473914691410523  1.0000
  C   C5        1.0  0.4924497413025524  0.6034392788811411  0.5135691007402661  1.0000
  N   N2        1.0  0.41994428551693136  0.5782293681607447  0.5667647507696998  1.0000
  C   C6        1.0  0.5830881987009113  0.6943697389657089  0.3181768803312727  1.0000
  C   C7        1.0  0.6708433741756641  0.7260007023691075  0.25346648930978527  1.0000
  C   C8        1.0  0.6712531419824463  0.7858102314202433  0.113904826775026  1.0000
  C   C9        1.0  0.7581652877276416  0.6943697376407277  0.3181767990284965  1.0000
  H   H1        1.0  0.6697000902206064  0.5591042747354962  0.6120169011452155  1.0000
  H   H2        1.0  0.5153644815924834  0.7161545813716688  0.2680428768284826  1.0000
  H   H3        1.0  0.7365741277586882  0.8539653802081761  0.09243122854045026  1.0000
  H   H4        1.0  0.6068656501127665  0.8539653820847092  0.09243128715386216  1.0000
  H   H5        1.0  0.6706334905301713  0.6952934179873556  0.04953225287682982  1.0000
  H   H6        1.0  0.8261874414447613  0.716154693846323  0.26804279980917256  1.0000
  C   C10       1.0  0.1669275961337142  0.1547484314420755  0.5670967552499768  1.0000
  C   C11       1.0  0.15455813677966534  0.23824773102354824  0.4484390310363433  1.0000
  C   C12       1.0  0.15117162053951946  0.1732588716528991  0.33088962973567515  1.0000
  C   C13       1.0  0.16013311808303404  0.023851709942275038  0.32976593200519577  1.0000
  C   C14       1.0  0.1708021508533739  0.9386590816778351  0.44662935097982803  1.0000
  C   C15       1.0  0.17274371697255875  0.0016992332110359358  0.566443970587815  1.0000
  Br  Br1       1.0  0.15620993611315145  0.9354939488461382  0.16846761516057063  1.0000
  H   H7        1.0  0.13862328298896884  0.4173008193838357  0.7781637495153314  1.0000
  H   H8        1.0  0.14979479790018405  0.3549041244643534  0.4462164384232618  1.0000
  H   H9        1.0  0.14249787927640356  0.23947911274050895  0.24045790881321927  1.0000
  H   H10       1.0  0.17526813830719742  0.8224190988684937  0.44383031493174346  1.0000
  H   H11       1.0  0.22599022866495666  0.7037665482704204  0.7686449209780835  1.0000
  C   C16       1.0  0.1698356631070614  0.5782238663352357  0.18552789141592171  1.0000
  C   C17       1.0  0.15201723318681856  0.4284438791251692  0.19487699398176936  1.0000
  C   C18       1.0  0.14317626371977862  0.3541271290320194  0.08255897249052291  1.0000
  C   C19       1.0  0.15201727691561362  0.42844396056818335  0.959769094947899  1.0000
  C   C20       1.0  0.1698356601338324  0.578223791895921  0.9480129105467116  1.0000
  C   C21       1.0  0.17865803572715208  0.6523837021833379  0.061545535486099194  1.0000
  Cl  Cl1       1.0  0.12091681484137329  0.16701634246111152  0.09574176537577615  1.0000
  H   H12       1.0  0.1765481146713914  0.6346434023172034  0.5093091849332301  1.0000
  H   H13       1.0  0.14493044063970803  0.368872880544086  0.2891205801083483  1.0000
  H   H14       1.0  0.14493050794751494  0.36887285996659347  0.8739196140503056  1.0000
  H   H15       1.0  0.1924001003956175  0.7678985239166177  0.05340690194727759  1.0000
  H   H16       1.0  0.17654793091511695  0.6346433895557073  0.6162815544616754  1.0000
  Zn  Zn1       1.0  0.06407237750362094  0.5782255524193298  0.5667722590002906  1.0000
  Zn  Zn2       1.0  0.2755896846996581  0.5782214465537996  0.5667679138958595  1.0000
  C   C22       1.0  0.169794042797911  0.5724788600842097  0.8038913159723515  1.0000
  C   C23       1.0  0.16987034166293746  0.5839699584055646  0.3296489828982194  1.0000
  C   C24       1.0  0.17163937471509527  0.8416075259878554  0.5613939398217904  1.0000
  C   C25       1.0  0.16802492567172345  0.31483955990686074  0.5721464296012452  1.0000
  O   O1        1.0  0.25015165264863626  0.5858905498692912  0.37801569366635257  1.0000
  O   O2        1.0  0.25004946632588543  0.5705540644568017  0.7555209344868312  1.0000
  O   O3        1.0  0.2515385131122252  0.7878788657914488  0.5597025864026813  1.0000
  O   O4        1.0  0.24866253375661118  0.3685657588521303  0.573833944401646  1.0000
  O   O5        1.0  0.09099945626620265  0.7878812401239708  0.5597062284891567  1.0000
  O   O6        1.0  0.08951042137342677  0.5705581713873529  0.7555245060154946  1.0000
  O   O7        1.0  0.08961260741531403  0.5858946065466417  0.37801770435065446  1.0000
  O   O8        1.0  0.0881234884485087  0.3685698052149662  0.5738360524294572  1.0000
