data_image0
_chemical_formula_structural       NC8NH4C9H10C6NH7Zn2C4O8
_chemical_formula_sum              "N3 C27 H21 Zn2 O8"
_cell_length_a       13.859017124695912
_cell_length_b       10.297183801781406
_cell_length_c       9.274774538082513
_cell_angle_alpha    85.03689992379437
_cell_angle_beta     90.34965622944028
_cell_angle_gamma    89.9976557662862

_space_group_name_H-M_alt    "P 1"
_space_group_IT_number       1

loop_
  _space_group_symop_operation_xyz
  'x, y, z'

loop_
  _atom_site_type_symbol
  _atom_site_label
  _atom_site_symmetry_multiplicity
  _atom_site_fract_x
  _atom_site_fract_y
  _atom_site_fract_z
  _atom_site_occupancy
  N   N1        1.0  0.9020412886808221  0.4341701258713484  0.4073199913537966  1.0000
  C   C1        1.0  0.8294577660782032  0.4140199289482345  0.35109427289700623  1.0000
  C   C2        1.0  0.7391681892979963  0.38895604053626426  0.28115670511927515  1.0000
  C   C3        1.0  0.6518307042039039  0.4133908099159118  0.34933703418011786  1.0000
  C   C4        1.0  0.5639378670330547  0.38895714928299224  0.2811561245070282  1.0000
  C   C5        1.0  0.5635648386239369  0.3400821276975077  0.14477395685886174  1.0000
  C   C6        1.0  0.6507208324375355  0.31574126894693944  0.07685607220739721  1.0000
  C   C7        1.0  0.7384302023867544  0.3400800020992749  0.14477513781380136  1.0000
  C   C8        1.0  0.4742179252960583  0.4140207674798684  0.35109377380973794  1.0000
  N   N2        1.0  0.40209241337622514  0.43417041816814916  0.4073197749163554  1.0000
  H   H1        1.0  0.6522606401524662  0.45122200225937076  0.45490009899382633  1.0000
  H   H2        1.0  0.496050831283249  0.3208511034645214  0.09110857332083186  1.0000
  H   H3        1.0  0.6502918331892318  0.27798736755881337  0.9715067900857369  1.0000
  H   H4        1.0  0.8055070569400187  0.3208470777253918  0.09111075576226546  1.0000
  C   C9        1.0  0.15207568032911967  0.05269312141242734  0.40752439021799414  1.0000
  C   C10       1.0  0.14864230309238782  0.06374370812719832  0.25565227175637073  1.0000
  C   C11       1.0  0.14688306034752996  0.9527887594620451  0.17784374425787505  1.0000
  C   C12       1.0  0.14862859428560515  0.8285772298983892  0.2550636379136979  1.0000
  C   C13       1.0  0.15206732061038528  0.8156373566568991  0.40712785241167365  1.0000
  C   C14       1.0  0.15376750037871445  0.9281792125831866  0.48236558812606556  1.0000
  C   C15       1.0  0.14316935346526827  0.9741729441013561  0.013583324222003814  1.0000
  C   C16       1.0  0.08634231451744578  0.8760858307156836  0.9332421083986041  1.0000
  C   C17       1.0  0.19624986787426324  0.8764300559551049  0.9286572681964391  1.0000
  H   H5        1.0  0.15340783266356528  0.37597342989627003  0.4660455887813805  1.0000
  H   H6        1.0  0.1473170326740172  0.15943220961957638  0.19702125500624423  1.0000
  H   H7        1.0  0.14733778550364263  0.7414243991230955  0.19806079315541347  1.0000
  H   H8        1.0  0.156415939396499  0.9189260100125347  0.5995381167250475  1.0000
  H   H9        1.0  0.15854928898795848  0.5839811297347834  0.6943343357871654  1.0000
  H   H10       1.0  0.1419765886337021  0.07530240488448574  0.9607871376156151  1.0000
  H   H11       1.0  0.05441301762517736  0.7919334019576271  0.9989220395642215  1.0000
  H   H12       1.0  0.051884337207862785  0.9177592854749581  0.8311306168891095  1.0000
  H   H13       1.0  0.23108351066718424  0.7924875193522953  0.9915529085687522  1.0000
  H   H14       1.0  0.22602801324227295  0.9183023383297753  0.8238648077302344  1.0000
  C   C18       1.0  0.15033981798213095  0.43748777204508144  0.9835080955416045  1.0000
  C   C19       1.0  0.21870925987751333  0.5141477460363053  0.05020473491915988  1.0000
  C   C20       1.0  0.2914076096970699  0.5801068365668383  0.9694055075868392  1.0000
  C   C21       1.0  0.29632531200823475  0.5697051015465453  0.820433496238422  1.0000
  C   C22       1.0  0.22826540453775682  0.4959068243456118  0.7520328069154183  1.0000
  C   C23       1.0  0.15380315760017327  0.43084266722870335  0.8311441740085415  1.0000
  N   N3        1.0  0.36088475465307734  0.656586083850909  0.03910748557272492  1.0000
  H   H15       1.0  0.0061150784367163275  0.1835444765724417  0.10956044753170224  1.0000
  H   H16       1.0  0.21697234229453155  0.5203088265948814  0.16622166301380137  1.0000
  H   H17       1.0  0.3524539075097619  0.6198955706472922  0.7568766173203181  1.0000
  H   H18       1.0  0.23256807893573073  0.49229334199795005  0.6358616335434525  1.0000
  H   H19       1.0  0.053699322010152706  0.2637576374370627  0.5651492705630714  1.0000
  H   H20       1.0  0.35808272750188536  0.6647324345637327  0.1504731758789455  1.0000
  H   H21       1.0  0.4156206739547921  0.7057549958254574  0.979839822797726  1.0000
  Zn  Zn1       1.0  0.046345278687763614  0.4341666765336372  0.4073282695648557  1.0000
  Zn  Zn2       1.0  0.25778846421589074  0.434163177772319  0.4073233394990958  1.0000
  C   C24       1.0  0.15314642207814755  0.426923615986436  0.6709254965680349  1.0000
  C   C25       1.0  0.15098963033930635  0.4414078762552663  0.14372625324462684  1.0000
  C   C26       1.0  0.15204042190564437  0.6714697391859147  0.4014516246985067  1.0000
  C   C27       1.0  0.15209555869255564  0.19686019170853133  0.4132002028723604  1.0000
  O   O1        1.0  0.23144930032720779  0.4427165039283365  0.19749506259180993  1.0000
  O   O2        1.0  0.2331672357570611  0.4256113560910286  0.6171525304665183  1.0000
  O   O3        1.0  0.232273051067156  0.6230854315356507  0.39955047168275515  1.0000
  O   O4        1.0  0.23234341242362722  0.24524243862610676  0.4150970131592515  1.0000
  O   O5        1.0  0.07179025832481423  0.6230874156825175  0.39955459589879067  1.0000
  O   O6        1.0  0.07268444267876029  0.4256149015878188  0.6171565769184386  1.0000
  O   O7        1.0  0.07096650022375695  0.44272001775944536  0.1974973738713494  1.0000
  O   O8        1.0  0.0718606127584489  0.24524594231749133  0.4150994326492034  1.0000
