data_image0
_chemical_formula_structural       NC8NH4C7NH5C6OCH6Zn2C4O8
_chemical_formula_sum              "N3 C26 H15 O9 Zn2"
_cell_length_a       13.859017981522156
_cell_length_b       9.275154477615127
_cell_length_c       9.273891588657152
_cell_angle_alpha    86.29931945807607
_cell_angle_beta     89.6801234817753
_cell_angle_gamma    89.43373755438122

_space_group_name_H-M_alt    "P 1"
_space_group_IT_number       1

loop_
  _space_group_symop_operation_xyz
  'x, y, z'

loop_
  _atom_site_type_symbol
  _atom_site_label
  _atom_site_symmetry_multiplicity
  _atom_site_fract_x
  _atom_site_fract_y
  _atom_site_fract_z
  _atom_site_occupancy
  N   N1        1.0  0.9041640383485606  0.5636014019301165  0.4162803824490102  1.0000
  C   C1        1.0  0.8320887665310708  0.5560190600214678  0.35493955707404856  1.0000
  C   C2        1.0  0.7424313643319052  0.5465879907628777  0.278639553543073  1.0000
  C   C3        1.0  0.7429263966083067  0.5281965061486065  0.12985080178144237  1.0000
  C   C4        1.0  0.6558311443817991  0.5190385741285783  0.0557536958075815  1.0000
  C   C5        1.0  0.5680611101827013  0.5281982259531448  0.12985056031477393  1.0000
  C   C6        1.0  0.5672011216885245  0.5465889621984361  0.27863937361460334  1.0000
  C   C7        1.0  0.6544776114932748  0.5557826592919923  0.3530225950400203  1.0000
  C   C8        1.0  0.4768489446859108  0.5560199614464141  0.35493932023563346  1.0000
  N   N2        1.0  0.4042151209602903  0.5636017145129795  0.4162802900893552  1.0000
  H   H1        1.0  0.8104884645539484  0.5209593293976029  0.0713039962163946  1.0000
  H   H2        1.0  0.6563544415654342  0.5048322024693739  0.9408207882592703  1.0000
  H   H3        1.0  0.5010321758874253  0.5209624227927667  0.07130358855020669  1.0000
  H   H4        1.0  0.6539532439801844  0.570017688158792  0.468189167913478  1.0000
  C   C9        1.0  0.15699268926326693  0.1401972303463497  0.41461232579954754  1.0000
  C   C10       1.0  0.1309898734082091  0.22222977861866244  0.2875211731403775  1.0000
  C   C11       1.0  0.09711319383360961  0.15510554460045523  0.1671622301310003  1.0000
  C   C12       1.0  0.08867939437087835  0.005032959333861383  0.17247695227787263  1.0000
  C   C13       1.0  0.1155874871625695  0.921766602669705  0.29667116302822993  1.0000
  C   C14       1.0  0.15139574227339225  0.9869949519710468  0.4179608034097533  1.0000
  C   C15       1.0  0.06983249212934318  0.24070608577095262  0.03853929785867404  1.0000
  N   N3        1.0  0.04790638551409222  0.3095133120546709  0.9351594067794262  1.0000
  H   H5        1.0  0.17435916329603662  0.22006019033495994  0.7684321546266941  1.0000
  H   H6        1.0  0.13494663050269878  0.33915059859617247  0.2832442561343922  1.0000
  H   H7        1.0  0.06212890620212841  0.9520718707955023  0.07997354553395764  1.0000
  H   H8        1.0  0.11052125946107494  0.8052978587640611  0.2965443099262488  1.0000
  H   H9        1.0  0.16718806176274614  0.6903633748772372  0.6550301521970994  1.0000
  C   C16       1.0  0.15580015049529175  0.5597774882075193  0.9929961109006274  1.0000
  C   C17       1.0  0.23441580907591392  0.6206771841004128  0.06181060802771077  1.0000
  C   C18       1.0  0.30748718358349514  0.6923433370828327  0.9822842332659834  1.0000
  C   C19       1.0  0.302203500412217  0.7034710819861756  0.8308876230930817  1.0000
  C   C20       1.0  0.22562075454206743  0.6416983594641497  0.7607274755534852  1.0000
  C   C21       1.0  0.1525882547943167  0.56741461724156  0.8395769511381421  1.0000
  O   O1        1.0  0.3834794987364737  0.7514678073300176  0.0577246189661369  1.0000
  C   C22       1.0  0.46243434584282267  0.8273486297869035  0.9909482834907205  1.0000
  H   H10       1.0  0.9268783433371557  0.47122093331763315  0.10366321922043209  1.0000
  H   H11       1.0  0.3574223984940379  0.7585286908965208  0.7661831874950322  1.0000
  H   H12       1.0  0.22479308604967452  0.6491293569445464  0.6436756834184827  1.0000
  H   H13       1.0  0.4358888507385488  0.9249185695586926  0.9269385240647359  1.0000
  H   H14       1.0  0.5031392659072929  0.7557907798712205  0.9202526521760421  1.0000
  H   H15       1.0  0.511598477599484  0.8618121647718867  0.07592809615232365  1.0000
  Zn  Zn1       1.0  0.048467978966580304  0.5635977169909694  0.4162886607813314  1.0000
  Zn  Zn2       1.0  0.25991121605511536  0.563593741829161  0.4162837591084301  1.0000
  C   C23       1.0  0.15323119991809242  0.5602271441456463  0.6795323505973452  1.0000
  C   C24       1.0  0.1551502914961094  0.5669661351398811  0.15304021791060207  1.0000
  C   C25       1.0  0.15247050637472717  0.8268803195076366  0.4115837880932438  1.0000
  C   C26       1.0  0.15591092404672763  0.30031122818932765  0.42098885041613143  1.0000
  O   O2        1.0  0.23517384098447547  0.5693709119320938  0.20675059721176225  1.0000
  O   O3        1.0  0.23368818367998645  0.5578182588442655  0.625817831798205  1.0000
  O   O4        1.0  0.23307282664177076  0.7731440837802415  0.40944747774884926  1.0000
  O   O5        1.0  0.2357891262133076  0.35404509633669057  0.42312084322511456  1.0000
  O   O6        1.0  0.07258999665320644  0.7731463624862969  0.4094515766587439  1.0000
  O   O7        1.0  0.07320534252898847  0.5578222691417415  0.6258218607007691  1.0000
  O   O8        1.0  0.07469100680477128  0.5693748563512975  0.20675289287987875  1.0000
  O   O9        1.0  0.07530629168780578  0.3540490314181792  0.42312324692333125  1.0000
