data_image0
_chemical_formula_structural       NC6NCNCH5C6BrH5C7OH6Zn2C4O8
_chemical_formula_sum              "N3 C25 H16 Br1 O9 Zn2"
_cell_length_a       14.933214217465613
_cell_length_b       9.276564384272257
_cell_length_c       9.274074313596556
_cell_angle_alpha    86.07032153844699
_cell_angle_beta     90.19933690330467
_cell_angle_gamma    90.62004099175812

_space_group_name_H-M_alt    "P 1"
_space_group_IT_number       1

loop_
  _space_group_symop_operation_xyz
  'x, y, z'

loop_
  _atom_site_type_symbol
  _atom_site_label
  _atom_site_symmetry_multiplicity
  _atom_site_fract_x
  _atom_site_fract_y
  _atom_site_fract_z
  _atom_site_occupancy
  N   N1        1.0  0.8491336403255328  0.5634891553496038  0.4080113456169483  1.0000
  C   C1        1.0  0.7716471380892528  0.5644761400157012  0.40702013171629003  1.0000
  C   C2        1.0  0.6752533820060155  0.5657066564920474  0.4057842105975873  1.0000
  C   C3        1.0  0.6270679862360569  0.4708755990208494  0.5010410904132634  1.0000
  C   C4        1.0  0.5335386436806376  0.47194793420519193  0.4999639699071863  1.0000
  C   C5        1.0  0.4872921361156146  0.5677969934778397  0.4036845541285816  1.0000
  C   C6        1.0  0.39070865933879284  0.5657087928932553  0.4057821382176563  1.0000
  N   N2        1.0  0.31321638520406747  0.5639667685999312  0.4075316136222975  1.0000
  C   C7        1.0  0.5355808566257533  0.6638255098718535  0.307224967677618  1.0000
  N   N3        1.0  0.4906484281803577  0.7634495058267541  0.2071539015920083  1.0000
  C   C8        1.0  0.6295869155109889  0.6617964456269003  0.309263260497338  1.0000
  H   H1        1.0  0.661780946440814  0.3961076873950559  0.5761446909802004  1.0000
  H   H2        1.0  0.49717299204045834  0.39780898064531417  0.5744356591948014  1.0000
  H   H3        1.0  0.5272718665814287  0.8338135429915108  0.1364738658426199  1.0000
  H   H4        1.0  0.42092713175619173  0.7687503526196622  0.20182932436205658  1.0000
  H   H5        1.0  0.6670741634192057  0.7351894377360576  0.23554071642263086  1.0000
  C   C9        1.0  0.07848227631051002  0.1402478241957359  0.40814283854478894  1.0000
  C   C10       1.0  0.06666462040636012  0.22244225679408558  0.2764267869774144  1.0000
  C   C11       1.0  0.06318404191058916  0.1561691857007177  0.1459325255561923  1.0000
  C   C12       1.0  0.07149479105363413  0.006758335641898314  0.14467645776698213  1.0000
  C   C13       1.0  0.08172971332161016  0.922849397499562  0.2744021915048789  1.0000
  C   C14       1.0  0.08387627401031184  0.9871970659260346  0.4074125715793606  1.0000
  Br  Br1       1.0  0.06739024780041336  0.9166391027272909  0.9656148370471369  1.0000
  H   H6        1.0  0.05283133515161188  0.4050732583214589  0.6424860811905428  1.0000
  H   H7        1.0  0.06223904998035157  0.33906988151514483  0.27396394319836803  1.0000
  H   H8        1.0  0.054876412877793906  0.22139567760559342  0.04554803715973521  1.0000
  H   H9        1.0  0.08586494602280359  0.806583176988422  0.2712905576289719  1.0000
  H   H10       1.0  0.1338581788530682  0.6915186804533733  0.6318349626883921  1.0000
  C   C15       1.0  0.08008061657391186  0.5595679428608409  0.9845412412307417  1.0000
  C   C16       1.0  0.0022733765676898874  0.6020622383640508  0.054474092047637424  1.0000
  C   C17       1.0  0.9289496048559083  0.6561505638686962  0.9753213080297449  1.0000
  C   C18       1.0  0.9317190006603683  0.6691835129333235  0.8240272952555747  1.0000
  C   C19       1.0  0.00830606806524825  0.6249469405345484  0.7529573093390796  1.0000
  C   C20       1.0  0.08227789915627803  0.5678769314983143  0.8310142687627193  1.0000
  C   C21       1.0  0.8550605831920796  0.7272341054791853  0.7386660895124422  1.0000
  O   O1        1.0  0.7851436891487742  0.767342021990713  0.7994102576151145  1.0000
  H   H11       1.0  0.29864703914133983  0.5230521907862763  0.09113532779716293  1.0000
  H   H12       1.0  0.9989149345601561  0.5966668845741374  0.17140176049998823  1.0000
  H   H13       1.0  0.8704042849156214  0.6891027262887177  0.03275523021248716  1.0000
  H   H14       1.0  0.009388225913697486  0.6319365666869633  0.6357935484292172  1.0000
  H   H15       1.0  0.22916186639398006  0.5380555393781905  0.5534222634757713  1.0000
  H   H16       1.0  0.8582961682157029  0.7359906859860866  0.6217857384508814  1.0000
  Zn  Zn1       1.0  0.9830578933486361  0.5636231965232428  0.40788124031451956  1.0000
  Zn  Zn2       1.0  0.1792920728967513  0.5638210130596104  0.40767356483317996  1.0000
  C   C22       1.0  0.08182400342618791  0.5605614253201975  0.6710176544006035  1.0000
  C   C23       1.0  0.0805281176458264  0.5668846073695231  0.14453728837052493  1.0000
  C   C24       1.0  0.08283717246797333  0.8270492722088187  0.40180733724734297  1.0000
  C   C25       1.0  0.07951487080807129  0.30039502857440037  0.4137476839282588  1.0000
  O   O2        1.0  0.15514811148102825  0.569408925801695  0.1981546170339732  1.0000
  O   O3        1.0  0.15614120331261117  0.5581861530846378  0.6172422909023376  1.0000
  O   O4        1.0  0.15695835012815584  0.7733784733446538  0.399853054863057  1.0000
  O   O5        1.0  0.1543308974892319  0.35421661472946764  0.41554374507053815  1.0000
  O   O6        1.0  0.008019001791050641  0.7732275947873752  0.4000110601404483  1.0000
  O   O7        1.0  0.007201865806371056  0.5580370063678513  0.6174002178385427  1.0000
  O   O8        1.0  0.006208769216176522  0.5692597118223577  0.1983108111985301  1.0000
  O   O9        1.0  0.005391555435527497  0.35406739149633126  0.41570004730109833  1.0000
