data_image0
_chemical_formula_structural       NC8NC6H8C12NCOCH13C12IH9Zn2C4O8
_chemical_formula_sum              "N3 C44 H30 O9 I1 Zn2"
_cell_length_a       17.457602349358154
_cell_length_b       10.299155265289647
_cell_length_c       10.29977335064465
_cell_angle_alpha    85.52787819197465
_cell_angle_beta     92.88561579931032
_cell_angle_gamma    91.66712233072684

_space_group_name_H-M_alt    "P 1"
_space_group_IT_number       1

loop_
  _space_group_symop_operation_xyz
  'x, y, z'

loop_
  _atom_site_type_symbol
  _atom_site_label
  _atom_site_symmetry_multiplicity
  _atom_site_fract_x
  _atom_site_fract_y
  _atom_site_fract_z
  _atom_site_occupancy
  N   N1        1.0  0.7219666404127162  0.45329767351564426  0.6260350691887671  1.0000
  C   C1        1.0  0.6608980091689775  0.40737267007953304  0.6154337036183536  1.0000
  C   C2        1.0  0.5849260485004314  0.3502476778886137  0.602255145101708  1.0000
  C   C3        1.0  0.5263955839568304  0.3903912284762985  0.6771409026163032  1.0000
  C   C4        1.0  0.45186128898247924  0.3353844547201579  0.6645761210836363  1.0000
  C   C5        1.0  0.38973984847514515  0.3777700659142331  0.7438830187318117  1.0000
  C   C6        1.0  0.31518368135617625  0.39625495909659936  0.688113153246666  1.0000
  C   C7        1.0  0.2566532656663288  0.4362145435164045  0.7631069234057313  1.0000
  C   C8        1.0  0.18065859440084212  0.4553059373806143  0.705121384715264  1.0000
  N   N2        1.0  0.11957179665890331  0.4706490379310466  0.658501164666302  1.0000
  C   C9        1.0  0.2721868485658889  0.457932250203517  0.8943790050116786  1.0000
  C   C10       1.0  0.3459582614646159  0.4398362596985235  0.9505363498785047  1.0000
  C   C11       1.0  0.4044770757099859  0.40005661385931135  0.8760002487664242  1.0000
  C   C12       1.0  0.4371461190704932  0.23955706652994513  0.5756928617766653  1.0000
  C   C13       1.0  0.4956648412377867  0.1996921019731315  0.5012070237002788  1.0000
  C   C14       1.0  0.5694143980913782  0.2548111061208669  0.5143217249726042  1.0000
  H   H1        1.0  0.5387291217854856  0.4655716149438554  0.7437485813240069  1.0000
  H   H2        1.0  0.3028322507808353  0.38131197133699263  0.5860923989062806  1.0000
  H   H3        1.0  0.22732458431942515  0.488800601035843  0.9532056862493758  1.0000
  H   H4        1.0  0.3577955951310373  0.45633710320660237  0.05218334958091274  1.0000
  H   H5        1.0  0.46097048511042243  0.3850511831698809  0.9221118686534238  1.0000
  H   H6        1.0  0.3806706298682759  0.19422177613144265  0.5650551932857719  1.0000
  H   H7        1.0  0.48384474726997284  0.12562857411558248  0.4334006605956209  1.0000
  H   H8        1.0  0.6142769507594568  0.22307286468168022  0.4560064475018679  1.0000
  C   C15       1.0  0.920858585689972  0.0805797191220894  0.6423941197713301  1.0000
  C   C16       1.0  0.9077401636933143  0.089757563052413  0.5063983246267383  1.0000
  C   C17       1.0  0.9010145327604367  0.9772700408324428  0.437321800135009  1.0000
  C   C18       1.0  0.9075566921657888  0.8544899014493366  0.5060755598954214  1.0000
  C   C19       1.0  0.9206872125114184  0.8433573212958856  0.6421539331444137  1.0000
  C   C20       1.0  0.9272607361227189  0.9569163982035775  0.7094757364888945  1.0000
  C   C21       1.0  0.8871377733978076  0.9879528021508399  0.2934547476086975  1.0000
  C   C22       1.0  0.9260383109639287  0.08379162526261541  0.21521388017547127  1.0000
  C   C23       1.0  0.9129856789147746  0.09371420573575051  0.07982591348062984  1.0000
  C   C24       1.0  0.8612485482016613  0.007134847690670076  0.01985103630045848  1.0000
  C   C25       1.0  0.8214108677312485  0.9130714389729936  0.09794722299592751  1.0000
  C   C26       1.0  0.8344914390041027  0.9028940722347872  0.23330013573384623  1.0000
  N   N3        1.0  0.8457266659480741  0.016749683189996496  0.8810231305728335  1.0000
  C   C27       1.0  0.9017361972139418  0.05616699048318962  0.7873792220739424  1.0000
  O   O1        1.0  0.9721213319722931  0.061762514272438965  0.8209847569486217  1.0000
  C   C28       1.0  0.8772475619398039  0.08159662743212028  0.6468403155264122  1.0000
  H   H9        1.0  0.9259283053184496  0.40452675598177934  0.6947001699232832  1.0000
  H   H10       1.0  0.9016652229810628  0.18455683178877244  0.4540928599573837  1.0000
  H   H11       1.0  0.9034246156653184  0.7675300822028047  0.45310993042102077  1.0000
  H   H12       1.0  0.9373818318498108  0.9491225831557829  0.8143719007044224  1.0000
  H   H13       1.0  0.9459297691567184  0.6150819375916755  0.8989014374788542  1.0000
  H   H14       1.0  0.9670096006571467  0.15061304181489965  0.2586515059401788  1.0000
  H   H15       1.0  0.9424123454259157  0.17047618040824553  0.022648537208909126  1.0000
  H   H16       1.0  0.7803658678598999  0.8469511786857092  0.05363654619264467  1.0000
  H   H17       1.0  0.8025996132249928  0.8296405571817793  0.2911091655551048  1.0000
  H   H18       1.0  0.7916870813848186  0.985534402146822  0.845537263419425  1.0000
  H   H19       1.0  0.8218663041967785  0.13262713743755672  0.6378645870594689  1.0000
  H   H20       1.0  0.8701438841975992  0.987693821413363  0.6010363921245183  1.0000
  H   H21       1.0  0.9209175583098187  0.14361425416603615  0.5950110933182952  1.0000
  C   C29       1.0  0.9207362859061351  0.4620729905891767  0.2609018174845781  1.0000
  C   C30       1.0  0.9902672324479793  0.5341159902226089  0.26022162843315216  1.0000
  C   C31       1.0  0.02553602131462451  0.5705145173507522  0.14274998130567695  1.0000
  C   C32       1.0  0.990341078990153  0.5339050402439174  0.024958108443910994  1.0000
  C   C33       1.0  0.9208094894777501  0.46186401764846585  0.02364628619777109  1.0000
  C   C34       1.0  0.8863967385250736  0.42635034874372235  0.1421180198865739  1.0000
  C   C35       1.0  0.09909366141633912  0.6467276665581432  0.14308439199281706  1.0000
  C   C36       1.0  0.11113916930897519  0.7502801781654862  0.22384802980938634  1.0000
  C   C37       1.0  0.1804117976198363  0.8219006043723969  0.22396425756829827  1.0000
  C   C38       1.0  0.23840880939421072  0.7910694534309948  0.1437204957901792  1.0000
  C   C39       1.0  0.22710315836426576  0.6884354929924559  0.06315974812909642  1.0000
  C   C40       1.0  0.15790841068792938  0.6165924765533854  0.06264400500790511  1.0000
  I   I1        1.0  0.3428468600133301  0.8992736893587717  0.14419931647433537  1.0000
  H   H22       1.0  0.8942195243534009  0.4346853724495557  0.5886076481484668  1.0000
  H   H23       1.0  0.01769600545044803  0.5605618557738619  0.3514306804159668  1.0000
  H   H24       1.0  0.016756551917305174  0.5632476319912227  0.9339938805203215  1.0000
  H   H25       1.0  0.8327563478198107  0.3707735716404261  0.14187435979915938  1.0000
  H   H26       1.0  0.8943267278234845  0.43437788575689734  0.6956966546605198  1.0000
  H   H27       1.0  0.06664575945116691  0.7769185654137809  0.28559718606540135  1.0000
  H   H28       1.0  0.18888478898708216  0.9015532721257573  0.28621846848466914  1.0000
  H   H29       1.0  0.27197286279263655  0.6640499237122359  0.0011495140459245592  1.0000
  H   H30       1.0  0.15076877945940217  0.5364570687739811  0.0006597387875311126  1.0000
  Zn  Zn1       1.0  0.8367069012958084  0.45830141749187286  0.6354115826674074  1.0000
  Zn  Zn2       1.0  0.004831524939060467  0.4656346425277001  0.649135287160012  1.0000
  C   C41       1.0  0.9207950996409838  0.45672942478825873  0.8794727081557574  1.0000
  C   C42       1.0  0.9207451621535518  0.467208354001381  0.4050744384856623  1.0000
  C   C43       1.0  0.9207151387924575  0.699177334555011  0.6370238056253836  1.0000
  C   C44       1.0  0.9208250659901696  0.22475888130905  0.6475234060636433  1.0000
  O   O2        1.0  0.9845505608602438  0.471709083447563  0.4586681632441078  1.0000
  O   O3        1.0  0.9845924003248188  0.4577934637810517  0.8362945840215235  1.0000
  O   O4        1.0  0.9845269709708683  0.6535731792049271  0.6405153092284779  1.0000
  O   O5        1.0  0.9846159328332161  0.27592937483886115  0.654447335975747  1.0000
  O   O6        1.0  0.8569224360289696  0.648006682679658  0.630099529161614  1.0000
  O   O7        1.0  0.8569878650221449  0.45222852768030686  0.8258787342169946  1.0000
  O   O8        1.0  0.8569460254689175  0.4661441025179233  0.44825075204379283  1.0000
  O   O9        1.0  0.8570113974501842  0.2703643845929935  0.6440300221467811  1.0000
