data_image0
_chemical_formula_structural       NC10NC2NH7C10IC2H9C10FC2H9Zn2C4O8
_chemical_formula_sum              "N3 C40 H25 I1 F1 Zn2 O8"
_cell_length_a       18.145345255705053
_cell_length_b       10.299770258652044
_cell_length_c       10.299768337626492
_cell_angle_alpha    85.54416727294225
_cell_angle_beta     90.54611468595617
_cell_angle_gamma    91.04748074238529

_space_group_name_H-M_alt    "P 1"
_space_group_IT_number       1

loop_
  _space_group_symop_operation_xyz
  'x, y, z'

loop_
  _atom_site_type_symbol
  _atom_site_label
  _atom_site_symmetry_multiplicity
  _atom_site_fract_x
  _atom_site_fract_y
  _atom_site_fract_z
  _atom_site_occupancy
  N   N1        1.0  0.6942713511963416  0.44295324122530305  0.5774451718518501  1.0000
  C   C1        1.0  0.6362803657229305  0.39990331601300855  0.5575075594856604  1.0000
  C   C2        1.0  0.5642205548546556  0.34643447255097715  0.5327442340417052  1.0000
  C   C3        1.0  0.5502006758987708  0.22944951618538978  0.4800208967252817  1.0000
  C   C4        1.0  0.4744394490668625  0.21566238721663367  0.4741336108998107  1.0000
  C   C5        1.0  0.4456142714550719  0.3254713717128286  0.5235402793515156  1.0000
  C   C6        1.0  0.3661116064835686  0.35321079122991444  0.5363317848294661  1.0000
  C   C7        1.0  0.31297331646103743  0.2517107182923164  0.5393128873498689  1.0000
  C   C8        1.0  0.238136569270315  0.278031122297302  0.5514261156568989  1.0000
  C   C9        1.0  0.21529982337375214  0.4059691776753447  0.5605370375867118  1.0000
  C   C10       1.0  0.1382320540960901  0.4329477439513054  0.5729333582283112  1.0000
  N   N2        1.0  0.07627590394189239  0.45463637307512506  0.5828989988810758  1.0000
  C   C11       1.0  0.2676056966460901  0.5076152268614098  0.5574637849017369  1.0000
  C   C12       1.0  0.3424891256962601  0.4815613765504423  0.5454635269142718  1.0000
  N   N3        1.0  0.5010133960408706  0.4048696440049997  0.5591366439153176  1.0000
  H   H1        1.0  0.590289433312544  0.16187228948465585  0.4492541253579583  1.0000
  H   H2        1.0  0.4442701233883798  0.1350049669955458  0.43646636589989174  1.0000
  H   H3        1.0  0.32906511267974736  0.15166420693823593  0.5339324554368501  1.0000
  H   H4        1.0  0.1981180305504237  0.19851554881376487  0.5539619488146557  1.0000
  H   H5        1.0  0.2505092921942629  0.6071320605319506  0.5639668769531978  1.0000
  H   H6        1.0  0.3814891861038732  0.5624147053919042  0.541496110850173  1.0000
  H   H7        1.0  0.4965988927715678  0.4933495009450575  0.6012902112068514  1.0000
  C   C13       1.0  0.885207692565741  0.06742750656919916  0.5801680605268333  1.0000
  C   C14       1.0  0.890671832039838  0.07719821266639838  0.4438496805484089  1.0000
  C   C15       1.0  0.8935111916394464  0.9650119803195821  0.37478621960884545  1.0000
  C   C16       1.0  0.8908122621461361  0.8419147072729325  0.443869301715266  1.0000
  C   C17       1.0  0.8853466093946569  0.8301522420404266  0.5801874920792451  1.0000
  C   C18       1.0  0.8825753361399215  0.9434668058214952  0.6475735733476844  1.0000
  C   C19       1.0  0.8992922314611772  0.9764019197817972  0.23057457358233413  1.0000
  C   C20       1.0  0.9464562262475947  0.8950282401818648  0.16730094916671703  1.0000
  C   C21       1.0  0.9518231818901319  0.9059582106925714  0.03155667370367588  1.0000
  C   C22       1.0  0.9102404335918081  0.9979722101969597  0.9574447106177391  1.0000
  I   I1        1.0  0.9184474373043303  0.014142026664180301  0.7526929429117035  1.0000
  C   C23       1.0  0.863211668162976  0.07925621295449181  0.01920148236647323  1.0000
  C   C24       1.0  0.857697007245146  0.068747078136421  0.15492511928931263  1.0000
  H   H8        1.0  0.8830921234565596  0.3911571185852136  0.6321070628263039  1.0000
  H   H9        1.0  0.8937493190186527  0.17231823440529295  0.3912023148365431  1.0000
  H   H10       1.0  0.8919667631282265  0.7551322470736433  0.39095387608639975  1.0000
  H   H11       1.0  0.8783593331472577  0.935160901672744  0.7527368677100266  1.0000
  H   H12       1.0  0.8832966658517144  0.49821728270905263  0.6321354974212566  1.0000
  H   H13       1.0  0.9798723501102883  0.8241664828233108  0.222856952233961  1.0000
  H   H14       1.0  0.9884560450633991  0.8430860048223872  0.9840824755036679  1.0000
  H   H15       1.0  0.8307707201769633  0.1503874819748683  0.9620962309825907  1.0000
  H   H16       1.0  0.8202231866614842  0.1316145396373214  0.2005969245429231  1.0000
  C   C25       1.0  0.8852596524668175  0.4489084428056778  0.19880712833405736  1.0000
  C   C26       1.0  0.9601749287054236  0.48558768145488296  0.19621970943368505  1.0000
  C   C27       1.0  0.9981538906206707  0.5040532662156807  0.07777962585182241  1.0000
  C   C28       1.0  0.9602102982903199  0.48534790078183115  0.9609526389389789  1.0000
  C   C29       1.0  0.885294662618565  0.44867137463672624  0.9615483927607187  1.0000
  C   C30       1.0  0.8482391319380557  0.43065639385080084  0.08096459996934535  1.0000
  C   C31       1.0  0.0774094777812433  0.5428564611896081  0.07609581969186263  1.0000
  C   C32       1.0  0.12676243526585584  0.48583204343142805  0.9935051809511256  1.0000
  C   C33       1.0  0.2013433620110392  0.522501385336986  0.9921403697993109  1.0000
  C   C34       1.0  0.22747985758352776  0.6163307209611315  0.07290698830241449  1.0000
  F   F1        1.0  0.2998171773122249  0.6517470714802516  0.07136981866803582  1.0000
  C   C35       1.0  0.17903865457800675  0.6736469881696476  0.1552583199186293  1.0000
  C   C36       1.0  0.1044151770148054  0.6372657992100861  0.1570640582266616  1.0000
  H   H17       1.0  0.8567035378342416  0.43498793625111265  0.5272420493935939  1.0000
  H   H18       1.0  0.9894226479750158  0.4981466900618652  0.2866667789598747  1.0000
  H   H19       1.0  0.9889734582467007  0.5011905173009983  0.8692730577142506  1.0000
  H   H20       1.0  0.7904453392251408  0.4023611864875669  0.08219248503736631  1.0000
  H   H21       1.0  0.8567549358799508  0.4346388746951795  0.6343264904613939  1.0000
  H   H22       1.0  0.10787526425133431  0.41174829708140237  0.9312956361444563  1.0000
  H   H23       1.0  0.2388928696029693  0.4777992323503977  0.9285734036339619  1.0000
  H   H24       1.0  0.19922323824788513  0.7466156441981897  0.21759839574478845  1.0000
  H   H25       1.0  0.06768134954620209  0.6841176929796224  0.22045533105393947  1.0000
  Zn  Zn1       1.0  0.8045096169158639  0.4463212474031724  0.5790265346852825  1.0000
  Zn  Zn2       1.0  0.9660376362790221  0.4512576873099984  0.5813282961776018  1.0000
  C   C37       1.0  0.8852854537787099  0.4435424431044478  0.8173738122957833  1.0000
  C   C38       1.0  0.8852635636014387  0.45403818408782365  0.34298117121098587  1.0000
  C   C39       1.0  0.8853163268974283  0.6859825454699753  0.575008550505364  1.0000
  C   C40       1.0  0.8852326350834763  0.21159651972004093  0.5853465014152157  1.0000
  O   O1        1.0  0.9465639167199391  0.4576274596225436  0.3922408033930687  1.0000
  O   O2        1.0  0.946581129657286  0.4436988316352415  0.769860789954584  1.0000
  O   O3        1.0  0.9466052338126707  0.6394722546954845  0.5741491145432871  1.0000
  O   O4        1.0  0.9465397574432065  0.2618540441982833  0.5879523806440594  1.0000
  O   O5        1.0  0.8240074406300938  0.6357248888317384  0.5724024494265154  1.0000
  O   O6        1.0  0.8239833367523679  0.4399530260906011  0.7681140556316932  1.0000
  O   O7        1.0  0.8239661237841409  0.4538816093090084  0.3904925076619921  1.0000
  O   O8        1.0  0.8239419645071708  0.258108184565617  0.5862041822809798  1.0000
