data_image0
_chemical_formula_structural       NC2NC6H6C6H6Zn2C4O8
_chemical_formula_sum              "N2 C18 H12 Zn2 O8"
_cell_length_a       10.656472472196224
_cell_length_b       10.302277161923591
_cell_length_c       10.302280534092331
_cell_angle_alpha    85.56070437420854
_cell_angle_beta     89.99987102951367
_cell_angle_gamma    89.9983056240043

_space_group_name_H-M_alt    "P 1"
_space_group_IT_number       1

loop_
  _space_group_symop_operation_xyz
  'x, y, z'

loop_
  _atom_site_type_symbol
  _atom_site_label
  _atom_site_symmetry_multiplicity
  _atom_site_fract_x
  _atom_site_fract_y
  _atom_site_fract_z
  _atom_site_occupancy
  N   N1        1.0  0.18160748906815738  0.42092904471574805  0.5678846532083146  1.0000
  C   C1        1.0  0.07302183794555939  0.42092912239638886  0.5678846591310895  1.0000
  C   C2        1.0  0.9405224572941682  0.4209289763337465  0.5678846527601645  1.0000
  N   N2        1.0  0.8319369000119351  0.42092895709761624  0.5678846569310947  1.0000
  C   C3        1.0  0.5067781933561695  0.03965589865268294  0.5678902634164715  1.0000
  C   C4        1.0  0.44776883952540847  0.9186945088899964  0.5967173233291929  1.0000
  C   C5        1.0  0.5067781329429362  0.802192132815643  0.5678902957645439  1.0000
  C   C6        1.0  0.6261065269951023  0.8079310229478148  0.5095963205868108  1.0000
  C   C7        1.0  0.6851272431921107  0.9276623413113124  0.4807636327411858  1.0000
  C   C8        1.0  0.626106508504864  0.042933966348615  0.5095962324467215  1.0000
  H   H1        1.0  0.2817524676952101  0.24066977932033318  0.6778192531628926  1.0000
  H   H2        1.0  0.35583032105490564  0.9152209529144253  0.6416307487924408  1.0000
  H   H3        1.0  0.28175288560578915  0.5841742696937093  0.6778202685094856  1.0000
  H   H4        1.0  0.6738969149101781  0.7199442647357652  0.48624993488791235  1.0000
  H   H5        1.0  0.7770278494571761  0.9311346277948683  0.4358686115653223  1.0000
  H   H6        1.0  0.6738969327083102  0.1345319146208317  0.48624979566735205  1.0000
  C   C9        1.0  0.5067781870132742  0.4209240029678163  0.18662211214876745  1.0000
  C   C10       1.0  0.463616380533372  0.4716584897202454  0.06396340427245217  1.0000
  C   C11       1.0  0.5067781773192943  0.4209240013357076  0.9491584271840289  1.0000
  C   C12       1.0  0.5940597265072036  0.31832907328682647  0.9583297393329643  1.0000
  C   C13       1.0  0.6372299503300507  0.267584818857447  0.0797587608409136  1.0000
  C   C14       1.0  0.5940598673795272  0.3183290900169182  0.19333264988934667  1.0000
  H   H7        1.0  0.3421851631553232  0.6143943483709491  0.38116309097026485  1.0000
  H   H8        1.0  0.3963690208368782  0.5507044923137385  0.05784524764586975  1.0000
  H   H9        1.0  0.3421844065418056  0.6143936787065383  0.7246679613460096  1.0000
  H   H10       1.0  0.6290155583431032  0.27724035855243656  0.871717748331642  1.0000
  H   H11       1.0  0.7044497210853204  0.1885715618667873  0.08587458429100693  1.0000
  H   H12       1.0  0.6290156976070433  0.2772403459821735  0.28630523760976284  1.0000
  Zn  Zn1       1.0  0.36927850353723235  0.42092555286647587  0.5678921501400052  1.0000
  Zn  Zn2       1.0  0.6442658425057941  0.42092185731849896  0.5678877887070997  1.0000
  C   C15       1.0  0.5067753753716826  0.4157516472956424  0.8050227325430686  1.0000
  C   C16       1.0  0.506771973524478  0.42609740105691785  0.330757333689202  1.0000
  C   C17       1.0  0.5067717135918397  0.6580565552338744  0.5627164662594316  1.0000
  C   C18       1.0  0.5067755414704138  0.18379093320934325  0.5730636691946462  1.0000
  O   O1        1.0  0.6111261502510748  0.4278265739559055  0.37912877558855673  1.0000
  O   O2        1.0  0.61113022614836  0.41401869008485453  0.7566476066697806  1.0000
  O   O3        1.0  0.6111258624424765  0.6096829676277329  0.5609835823110372  1.0000
  O   O4        1.0  0.6111304201224086  0.232162305702173  0.5747927025998473  1.0000
  O   O5        1.0  0.4024138320809356  0.6096851044854766  0.5609872362419162  1.0000
  O   O6        1.0  0.4024181957810433  0.4140223868546155  0.7566511913735118  1.0000
  O   O7        1.0  0.4024141199672458  0.4278302254810099  0.3791307993041282  1.0000
  O   O8        1.0  0.4024183898334466  0.2321659479408067  0.5747948236575307  1.0000
