data_image0
_chemical_formula_structural       NC11NC3H8C7OC4NC3H8C7OC3OC4H12Zn2C4O8
_chemical_formula_sum              "N3 C46 H28 O11 Zn2"
_cell_length_a       17.807433833752565
_cell_length_b       10.299371701877257
_cell_length_c       10.299374482448636
_cell_angle_alpha    85.56746279880974
_cell_angle_beta     88.50658755346606
_cell_angle_gamma    90.69533246875125

_space_group_name_H-M_alt    "P 1"
_space_group_IT_number       1

loop_
  _space_group_symop_operation_xyz
  'x, y, z'

loop_
  _atom_site_type_symbol
  _atom_site_label
  _atom_site_symmetry_multiplicity
  _atom_site_fract_x
  _atom_site_fract_y
  _atom_site_fract_z
  _atom_site_occupancy
  N   N1        1.0  0.7078267024330828  0.43882811642696207  0.5351127488047976  1.0000
  C   C1        1.0  0.6569915906195738  0.40408553701232924  0.601665202556497  1.0000
  C   C2        1.0  0.5937475877324612  0.36086863270969016  0.684447961439369  1.0000
  C   C3        1.0  0.605445928100069  0.29728919169680124  0.807148305199596  1.0000
  C   C4        1.0  0.5441099052935074  0.25575260825000795  0.8876476487244683  1.0000
  C   C5        1.0  0.4709210461313201  0.2774820447132478  0.8460873563807519  1.0000
  C   C6        1.0  0.4582460117340734  0.3412161464473605  0.7229268534710228  1.0000
  C   C7        1.0  0.3804895743136951  0.3642763640557613  0.6785862809596891  1.0000
  C   C8        1.0  0.36172772998420494  0.34743466681793556  0.5489950611974095  1.0000
  C   C9        1.0  0.2885089322872806  0.3691253855591152  0.5073906818706575  1.0000
  C   C10       1.0  0.2331090866066769  0.407976523864131  0.5945573311876664  1.0000
  C   C11       1.0  0.15775388209591482  0.43032603143044534  0.5515918416204189  1.0000
  N   N2        1.0  0.0971736703736296  0.44829337514391643  0.5170507150161208  1.0000
  C   C12       1.0  0.2511794854100765  0.42502892421522986  0.7236174721704354  1.0000
  C   C13       1.0  0.32434547150496257  0.4033032150590985  0.7654772778901808  1.0000
  C   C14       1.0  0.5204393429805368  0.3827481610716979  0.64244392475879  1.0000
  H   H1        1.0  0.6619038755182578  0.27986678137631515  0.8405088789576947  1.0000
  H   H2        1.0  0.5532857317158122  0.2062778073853999  0.9823696859453437  1.0000
  H   H3        1.0  0.4242667212062626  0.24291093053161794  0.9095164705365133  1.0000
  H   H4        1.0  0.4034152646436372  0.3158089755649929  0.48026469628869095  1.0000
  H   H5        1.0  0.2750841403942468  0.35526823871872626  0.40734747365961277  1.0000
  H   H6        1.0  0.20877513428969682  0.45543170744531886  0.7918326131042643  1.0000
  H   H7        1.0  0.33724202359170524  0.41870581779126126  0.8653382761972479  1.0000
  H   H8        1.0  0.5119620921936755  0.43358526230809125  0.5479566982932607  1.0000
  C   C15       1.0  0.9024645036048878  0.06218947237197335  0.5259563667380158  1.0000
  C   C16       1.0  0.9061397614847978  0.07165215170952743  0.38911899946539985  1.0000
  C   C17       1.0  0.9071404168217063  0.9592352294102658  0.32007919837445975  1.0000
  C   C18       1.0  0.9061489966697943  0.8363839851293443  0.38943597150090214  1.0000
  C   C19       1.0  0.902543046998365  0.8249221768328068  0.5262179389409092  1.0000
  C   C20       1.0  0.9005240066284179  0.9384224168972425  0.593680055874552  1.0000
  C   C21       1.0  0.9118102265593565  0.9691025751810683  0.17561048983612682  1.0000
  O   O1        1.0  0.9479786914982471  0.8842480731557488  0.11898594625333248  1.0000
  C   C22       1.0  0.8754365186597532  0.07515103001884182  0.09538452301890453  1.0000
  C   C23       1.0  0.9076341587369705  0.12060654043255738  0.9739188458326766  1.0000
  C   C24       1.0  0.8732412647806453  0.21969234907010526  0.8967224364733548  1.0000
  C   C25       1.0  0.9068967718947436  0.26636787115720173  0.7730029470523139  1.0000
  N   N3        1.0  0.9339542988695811  0.30388532077360586  0.673550261769778  1.0000
  C   C26       1.0  0.8060900270616728  0.2732287567300465  0.9400100521110634  1.0000
  C   C27       1.0  0.7732585109969146  0.22754762248579816  0.05976556027401125  1.0000
  C   C28       1.0  0.8074357016971364  0.12875404711703098  0.13696057848407706  1.0000
  H   H9        1.0  0.9090698758302728  0.16665967084366295  0.33609568025867564  1.0000
  H   H10       1.0  0.9074772078286684  0.7495913344085818  0.33636132759424314  1.0000
  H   H11       1.0  0.8976910623443655  0.9303235008368597  0.6991718932870732  1.0000
  H   H12       1.0  0.9017901227644703  0.4930740203870995  0.5787788974458276  1.0000
  H   H13       1.0  0.9597399597621927  0.07978961040278446  0.9399242737684026  1.0000
  H   H14       1.0  0.7790182585772418  0.34980115537263456  0.8810255704436694  1.0000
  H   H15       1.0  0.7210246412457505  0.26837789807622414  0.09261305068643243  1.0000
  H   H16       1.0  0.7802774109485618  0.09336252654128585  0.22837810793694333  1.0000
  C   C29       1.0  0.9025733789654772  0.4436450171122623  0.14470142039556233  1.0000
  C   C30       1.0  0.9810475354354294  0.46021713383649043  0.13869467383662526  1.0000
  C   C31       1.0  0.0205329794104443  0.4700447389888702  0.018382156498876426  1.0000
  C   C32       1.0  0.9808679540895635  0.4601488971507581  0.9034641317837048  1.0000
  C   C33       1.0  0.9024341592402557  0.44346663904845895  0.9074728454594054  1.0000
  C   C34       1.0  0.8637194839903543  0.4356517412396776  0.02857777441253328  1.0000
  C   C35       1.0  0.10348429955174843  0.48618737014567825  0.011999884776280995  1.0000
  O   O2        1.0  0.1403367666471571  0.4335411079471043  0.9244245234690731  1.0000
  C   C36       1.0  0.1446251754672494  0.5620690974563232  0.10488519130514981  1.0000
  C   C37       1.0  0.21791822713168885  0.5271329637600879  0.13963658882825203  1.0000
  C   C38       1.0  0.2580539049031836  0.5983729141130798  0.226002437447808  1.0000
  O   O3        1.0  0.3307362574164043  0.558247565187608  0.2579093218806341  1.0000
  C   C39       1.0  0.377813017484004  0.6212628712527675  0.34413923797114676  1.0000
  C   C40       1.0  0.2244812252967361  0.7069436150990005  0.2775125898930797  1.0000
  C   C41       1.0  0.15206545811931305  0.7432342921976223  0.24221040383805345  1.0000
  C   C42       1.0  0.11236336714371542  0.6717718728287212  0.15606539234534367  1.0000
  H   H17       1.0  0.7546112120590468  0.41038697869504404  0.36350617694395204  1.0000
  H   H18       1.0  0.01164586479843188  0.46405298966890207  0.22786755105697498  1.0000
  H   H19       1.0  0.01129326355273719  0.46674414761775895  0.8106611039061272  1.0000
  H   H20       1.0  0.8032216426808283  0.42287499859179584  0.03240482141749257  1.0000
  H   H21       1.0  0.8723741280976969  0.43597628235464864  0.5816362217481892  1.0000
  H   H22       1.0  0.24396351060993868  0.44345385608902355  0.10052050274310308  1.0000
  H   H23       1.0  0.4318854715231059  0.5692200819055759  0.3515709106885534  1.0000
  H   H24       1.0  0.350684406144953  0.6188024172931167  0.44263183220852403  1.0000
  H   H25       1.0  0.38937356987230687  0.7235498895021546  0.30597686496646936  1.0000
  H   H26       1.0  0.2539269902571202  0.7640973135579594  0.3443571557893046  1.0000
  H   H27       1.0  0.12672579499392356  0.8274196047434474  0.2813228567687318  1.0000
  H   H28       1.0  0.05681216255880494  0.7031482411955117  0.12842966263052946  1.0000
  Zn  Zn1       1.0  0.8201838250982757  0.4415561092205493  0.5299079196721135  1.0000
  Zn  Zn2       1.0  0.9848165299222279  0.4455547602150063  0.5222661269872694  1.0000
  C   C43       1.0  0.902458273041508  0.4383266140444375  0.7632910524595073  1.0000
  C   C44       1.0  0.9025438799084837  0.448785937656516  0.2888830387857732  1.0000
  C   C45       1.0  0.9025252762889004  0.6807505918845818  0.5209932793982235  1.0000
  C   C46       1.0  0.9024768203101489  0.20636039812316365  0.5311808831612463  1.0000
  O   O4        1.0  0.9650112326621935  0.452023078989662  0.3343716845914557  1.0000
  O   O5        1.0  0.9649433338750399  0.43812337665225515  0.7120020886265568  1.0000
  O   O6        1.0  0.9649965973749575  0.6338837838558469  0.5163449621399596  1.0000
  O   O7        1.0  0.9649579130030146  0.25626267973465455  0.5300287163099024  1.0000
  O   O8        1.0  0.8400423858364281  0.6308481883377737  0.5221453329504184  1.0000
  O   O9        1.0  0.839989122506392  0.4350893414642623  0.7178023907237645  1.0000
  O   O10       1.0  0.8400570216238278  0.44898899891175964  0.3401704252012734  1.0000
  O   O11       1.0  0.8400037019428495  0.2532285903450404  0.5358275542888085  1.0000
