data_image0
_chemical_formula_structural       NC6NCNCH5C6ClH5C7OH5Zn2C4O8
_chemical_formula_sum              "N3 C25 H15 Cl1 O9 Zn2"
_cell_length_a       14.933214217465613
_cell_length_b       10.30297070629231
_cell_length_c       9.274074313596557
_cell_angle_alpha    86.12141784095925
_cell_angle_beta     90.19933690330467
_cell_angle_gamma    90.03245333812676

_space_group_name_H-M_alt    "P 1"
_space_group_IT_number       1

loop_
  _space_group_symop_operation_xyz
  'x, y, z'

loop_
  _atom_site_type_symbol
  _atom_site_label
  _atom_site_symmetry_multiplicity
  _atom_site_fract_x
  _atom_site_fract_y
  _atom_site_fract_z
  _atom_site_occupancy
  N   N1        1.0  0.8391762480377868  0.4075658647533223  0.40935940348337585  1.0000
  C   C1        1.0  0.7616834599929557  0.40845441963730084  0.40836904057195467  1.0000
  C   C2        1.0  0.6652818671202972  0.40956221944658977  0.4071341804183437  1.0000
  C   C3        1.0  0.6177004218395837  0.32418845208900837  0.5023092958338209  1.0000
  C   C4        1.0  0.524164249903828  0.32515384567417677  0.5012330999071535  1.0000
  C   C5        1.0  0.47730730850220093  0.411444091781275  0.4050363262613068  1.0000
  C   C6        1.0  0.3807371308469781  0.4095641427892647  0.40713210988044235  1.0000
  N   N2        1.0  0.3032559511411488  0.4079958466981375  0.40888008329222103  1.0000
  C   C7        1.0  0.5249844522672922  0.4978958981507882  0.3086595366730418  1.0000
  N   N3        1.0  0.4794175485486901  0.5875846149139605  0.20867436751289037  1.0000
  C   C8        1.0  0.6190034336525618  0.49606918796299154  0.31069608001083693  1.0000
  H   H1        1.0  0.6528895563907033  0.2568769777348241  0.577348430669685  1.0000
  H   H2        1.0  0.48827076696521793  0.25840860479907657  0.5756408657583871  1.0000
  H   H3        1.0  0.5155928595555916  0.6509314033969287  0.1380550004246757  1.0000
  H   H4        1.0  0.4096624926252697  0.592356820064508  0.2033543607324324  1.0000
  H   H5        1.0  0.6560232636633784  0.5621428604611293  0.23703681619619152  1.0000
  C   C9        1.0  0.0712203807918122  0.02653344873267471  0.4091259729936756  1.0000
  C   C10       1.0  0.1637571961961366  0.02372141472852252  0.43679106421584857  1.0000
  C   C11       1.0  0.20967149389797324  0.90536931370962  0.4505176433407927  1.0000
  C   C12       1.0  0.16375719530952026  0.788613445458844  0.43679099643334185  1.0000
  C   C13       1.0  0.07122039055742602  0.7890183912834436  0.4091260554887912  1.0000
  C   C14       1.0  0.025403057966632007  0.9085723701494621  0.3954283330633752  1.0000
  Cl  Cl1       1.0  0.32527202353886964  0.9033599293177424  0.4850778342693203  1.0000
  H   H6        1.0  0.036363381109120435  0.3548958038835184  0.3987042107536476  1.0000
  H   H7        1.0  0.20056133627794026  0.11312826387988052  0.44779401959896054  1.0000
  H   H8        1.0  0.20056130060278743  0.6979270701037261  0.44779391608541746  1.0000
  H   H9        1.0  0.954035857641572  0.9098127685841679  0.37409213873195446  1.0000
  H   H10       1.0  0.03636337743147821  0.4618678396084043  0.39870448287301796  1.0000
  C   C15       1.0  0.07014819730939426  0.4040357060510749  0.9858859181838301  1.0000
  C   C16       1.0  0.9920703239131878  0.4422921401250831  0.05585540805839707  1.0000
  C   C17       1.0  0.9184020799206775  0.49098635741562796  0.9767492596007382  1.0000
  C   C18       1.0  0.9210884727915657  0.5027195595025572  0.8254664839812667  1.0000
  C   C19       1.0  0.9979572696240737  0.4628946019266398  0.7543583567964411  1.0000
  C   C20       1.0  0.0722925624416495  0.4115160577610395  0.832366109818902  1.0000
  C   C21       1.0  0.8440603485552203  0.5549808957687414  0.7401553301094027  1.0000
  O   O1        1.0  0.7738880192521418  0.5910889391119524  0.8009340797070434  1.0000
  H   H11       1.0  0.2889471777214636  0.3711615885875231  0.09244852045970543  1.0000
  H   H12       1.0  0.8596468975666847  0.5206522740825452  0.03421159350710078  1.0000
  H   H13       1.0  0.9989949126453456  0.4691871682331368  0.6372006224205569  1.0000
  H   H14       1.0  0.2193664531584434  0.3846686866461919  0.5547483921935608  1.0000
  H   H15       1.0  0.8472401655507072  0.5628642020080632  0.6232825290696602  1.0000
  Zn  Zn1       1.0  0.9730996473929614  0.4076865382993078  0.40922941375274907  1.0000
  Zn  Zn2       1.0  0.16933256710704025  0.40786462703316406  0.40902190883104317  1.0000
  C   C22       1.0  0.07188525697062792  0.404930110717866  0.6723631879453988  1.0000
  C   C23       1.0  0.07054910074518107  0.4106226959070874  0.14588827383372593  1.0000
  C   C24       1.0  0.07120124504872873  0.6448417182711392  0.4033826395993456  1.0000
  C   C25       1.0  0.07123304590110213  0.17070952916648935  0.41486889909098346  1.0000
  O   O2        1.0  0.1451530179553534  0.41289526968525175  0.1995077789928077  1.0000
  O   O3        1.0  0.14621758425167264  0.4027917190911435  0.6185857764608003  1.0000
  O   O4        1.0  0.14566423588801647  0.5965233886193118  0.40138208165097344  1.0000
  O   O5        1.0  0.14570629908424354  0.21916360842859553  0.41671136580784074  1.0000
  O   O6        1.0  0.9967258484510739  0.5963875568444492  0.4015399568391822  1.0000
  O   O7        1.0  0.9972791966160234  0.40265744644417945  0.6187435748010348  1.0000
  O   O8        1.0  0.9962146259894673  0.4127609364836813  0.1996638445033998  1.0000
  O   O9        1.0  0.9967679073884398  0.2190292668960863  0.41686753937645715  1.0000
