data_image0
_chemical_formula_structural       NC6NCNCH5C6NCH9C6NCH7Zn2C4O8
_chemical_formula_sum              "N5 C26 H21 Zn2 O8"
_cell_length_a       14.933214217465613
_cell_length_b       9.273386996610927
_cell_length_c       9.273390368590327
_cell_angle_alpha    86.07317832945773
_cell_angle_beta     89.95654164007166
_cell_angle_gamma    89.43266693644959

_space_group_name_H-M_alt    "P 1"
_space_group_IT_number       1

loop_
  _space_group_symop_operation_xyz
  'x, y, z'

loop_
  _atom_site_type_symbol
  _atom_site_label
  _atom_site_symmetry_multiplicity
  _atom_site_fract_x
  _atom_site_fract_y
  _atom_site_fract_z
  _atom_site_occupancy
  N   N1        1.0  0.8332039734023592  0.5628053394405559  0.40675858663960335  1.0000
  C   C1        1.0  0.7557073789519415  0.5637919035727548  0.40576658207750493  1.0000
  C   C2        1.0  0.6593010408164887  0.5650218956445585  0.4045296752053691  1.0000
  C   C3        1.0  0.6120852697050257  0.47023125949960204  0.4998625232688436  1.0000
  C   C4        1.0  0.5185449627027383  0.4713031376298624  0.4987845437257321  1.0000
  C   C5        1.0  0.47131842155912285  0.5671113416873708  0.4024283441883327  1.0000
  C   C6        1.0  0.3747562961109853  0.5650240311947198  0.40452760111488884  1.0000
  N   N2        1.0  0.2972818347324903  0.56328274913127  0.4062784720338901  1.0000
  C   C7        1.0  0.5186252733416643  0.6630989264481115  0.3058918302183302  1.0000
  N   N3        1.0  0.4726742128767755  0.7626804583294029  0.2057409563113688  1.0000
  C   C8        1.0  0.6126520786091516  0.6610707271780156  0.30793174850333305  1.0000
  H   H1        1.0  0.6475627138620528  0.39549521733621895  0.5750260196899333  1.0000
  H   H2        1.0  0.4829373644106058  0.3971957853373469  0.5733156250136655  1.0000
  H   H3        1.0  0.5085781961010197  0.8330145030957297  0.1350045526082564  1.0000
  H   H4        1.0  0.4028987163843627  0.7679790457177484  0.2004121326249315  1.0000
  H   H5        1.0  0.6493889008822668  0.7344324358483976  0.23415041000881898  1.0000
  C   C9        1.0  0.06800074661377309  0.13940040161509135  0.4072239328929208  1.0000
  C   C10       1.0  0.08374585728551527  0.2215070189854336  0.27689151433065784  1.0000
  C   C11       1.0  0.09105955381223613  0.1556263892323615  0.14655976230461754  1.0000
  C   C12       1.0  0.08273900312733057  0.005281662195240286  0.14322822746236907  1.0000
  C   C13       1.0  0.06857203468104855  0.9222089419879282  0.27310632443009775  1.0000
  C   C14       1.0  0.062493672657348176  0.9866766700003  0.40582566232557654  1.0000
  N   N4        1.0  0.08929615217818343  0.9343352294307002  0.010206586336437113  1.0000
  C   C15       1.0  0.10423721637451755  0.010752117361812814  0.8695451304347879  1.0000
  H   H6        1.0  0.08625598549994075  0.40407905137037603  0.6438279520249676  1.0000
  H   H7        1.0  0.08831352249550983  0.33813881564334314  0.27511855742192526  1.0000
  H   H8        1.0  0.10236874518784304  0.22319952637559637  0.048648124798221094  1.0000
  H   H9        1.0  0.0643457124091733  0.8057793573575306  0.2708370254568121  1.0000
  H   H10       1.0  0.0954058339504491  0.8590798982143671  0.7568307641332392  1.0000
  H   H11       1.0  0.08296476265028696  0.8219933620719917  0.013201833388212016  1.0000
  H   H12       1.0  0.04872834891739822  0.08900240320056672  0.8445608856938134  1.0000
  H   H13       1.0  0.16905184256491268  0.06837300887023146  0.8697106534496557  1.0000
  H   H14       1.0  0.10650888246094745  0.9324109143130269  0.7842182535821958  1.0000
  C   C16       1.0  0.06531796415765584  0.5585398454332023  0.9832863929122116  1.0000
  C   C17       1.0  0.1475816577970952  0.5557580023785456  0.056808530915279924  1.0000
  C   C18       1.0  0.228323645595512  0.5663855269994693  0.9812927461306934  1.0000
  C   C19       1.0  0.2288526040666733  0.580187834108912  0.8296413398707045  1.0000
  C   C20       1.0  0.14715053328154287  0.5805373003956547  0.7553130504780132  1.0000
  C   C21       1.0  0.06517649479626302  0.5675372706088717  0.8297631641862493  1.0000
  N   N5        1.0  0.3110972926083053  0.5924779810798726  0.7487477650014114  1.0000
  C   C22       1.0  0.39951020438833074  0.5927389581772083  0.8156442222221008  1.0000
  H   H15       1.0  0.9244282473606033  0.48909645442060606  0.2693869640396551  1.0000
  H   H16       1.0  0.2900301507117511  0.5651215101797689  0.04235211794269577  1.0000
  H   H17       1.0  0.8572167104719038  0.45524437994579653  0.7346729265216183  1.0000
  H   H18       1.0  0.30812965808438764  0.602036013840783  0.6358591581004474  1.0000
  H   H19       1.0  0.4047202963738521  0.68528878630537  0.8849540147483402  1.0000
  H   H20       1.0  0.4111034020279336  0.4896276783721256  0.881357050678075  1.0000
  H   H21       1.0  0.4519171143788834  0.6036991166548147  0.7306813706673927  1.0000
  Zn  Zn1       1.0  0.9671268439224228  0.5629393271526764  0.40662837401361285  1.0000
  Zn  Zn2       1.0  0.1633590244966463  0.5631370521095618  0.40642053995356664  1.0000
  C   C23       1.0  0.06523857438053238  0.5600893592541372  0.6697704234538306  1.0000
  C   C24       1.0  0.06524942503302361  0.5659888439315561  0.1432786267004007  1.0000
  C   C25       1.0  0.06353099266804696  0.8264623818013448  0.4003466067769965  1.0000
  C   C26       1.0  0.06695695103804988  0.29961408887139296  0.4127025231487903  1.0000
  O   O1        1.0  0.13969555343984208  0.568557537676454  0.19689462035110106  1.0000
  O   O2        1.0  0.13972813766911973  0.5576696414416991  0.6159962754670267  1.0000
  O   O3        1.0  0.13834823971151763  0.7727692408130495  0.398434635869938  1.0000
  O   O4        1.0  0.14107538438767964  0.3534579474090269  0.4144561519369049  1.0000
  O   O5        1.0  0.9894104170669684  0.7726184317872273  0.3985927620936152  1.0000
  O   O6        1.0  0.9907903037676073  0.5575205648628472  0.6161543219824872  1.0000
  O   O7        1.0  0.9907577202142899  0.5684083924064953  0.19705093412676475  1.0000
  O   O8        1.0  0.9921375512074702  0.3533087929691605  0.4146125737871933  1.0000
