data_image0
_chemical_formula_structural       NC6NC3H6C6NH7C9H9Zn2C4O8
_chemical_formula_sum              "N3 C28 H22 Zn2 O8"
_cell_length_a       14.934028789175542
_cell_length_b       9.274771166103582
_cell_length_c       9.273585224739813
_cell_angle_alpha    86.03363261937257
_cell_angle_beta     90.07756044377105
_cell_angle_gamma    90.55950156128424

_space_group_name_H-M_alt    "P 1"
_space_group_IT_number       1

loop_
  _space_group_symop_operation_xyz
  'x, y, z'

loop_
  _atom_site_type_symbol
  _atom_site_label
  _atom_site_symmetry_multiplicity
  _atom_site_fract_x
  _atom_site_fract_y
  _atom_site_fract_z
  _atom_site_occupancy
  N   N1        1.0  0.8515302224023914  0.5616553732883485  0.4067852323952408  1.0000
  C   C1        1.0  0.7740362487876806  0.5605501000473991  0.4061085067407364  1.0000
  C   C2        1.0  0.6776298040862646  0.5591700602213516  0.4052637412113278  1.0000
  C   C3        1.0  0.6306387277473499  0.6666473998016302  0.47094765526226934  1.0000
  C   C4        1.0  0.5371190485919036  0.6655393341882756  0.47027034091445774  1.0000
  C   C5        1.0  0.48967829067581736  0.5570087796852932  0.40394283333643877  1.0000
  C   C6        1.0  0.3930492399634628  0.5593374254377765  0.40536725133700524  1.0000
  N   N2        1.0  0.3155823879307472  0.5611855027556613  0.4064980349045533  1.0000
  C   C7        1.0  0.5366531222917507  0.44804450899934944  0.33734964187013294  1.0000
  C   C8        1.0  0.48748989172977836  0.3300492488429123  0.2652390845049939  1.0000
  C   C9        1.0  0.6308119856106056  0.4502832481689767  0.3387178814187459  1.0000
  H   H1        1.0  0.6662908640989713  0.7513295797916872  0.5227010760209359  1.0000
  H   H2        1.0  0.5016865581772202  0.7495693371493897  0.5216250456174383  1.0000
  H   H3        1.0  0.44495391269477286  0.37823248604396764  0.17655497772359574  1.0000
  H   H4        1.0  0.44443242320344756  0.26800132682695876  0.34545652677186545  1.0000
  H   H5        1.0  0.5344001172914845  0.25362194527535875  0.21852473415926976  1.0000
  H   H6        1.0  0.6677455603669565  0.367371097625669  0.288046632647291  1.0000
  C   C10       1.0  0.08081247008443256  0.1378346170847431  0.407428919979715  1.0000
  C   C11       1.0  0.060056393646716416  0.21985803819556574  0.27855327182770484  1.0000
  C   C12       1.0  0.04765962483194741  0.15350656951139463  0.14885470821701774  1.0000
  C   C13       1.0  0.056064773537161966  0.0037446382666277422  0.147092289998338  1.0000
  C   C14       1.0  0.07516297549428996  0.9203855223986832  0.2741984131804307  1.0000
  C   C15       1.0  0.08630869979438871  0.9849952925336012  0.4058668392702427  1.0000
  N   N3        1.0  0.02745203184749667  0.23861457570347056  0.01856216135115263  1.0000
  H   H7        1.0  0.18195529170240313  0.22058955191697557  0.7227961189321275  1.0000
  H   H8        1.0  0.05554088809403068  0.3364497071731085  0.27800242747863346  1.0000
  H   H9        1.0  0.04695051248009905  0.9512551649593  0.047302068317121915  1.0000
  H   H10       1.0  0.07910428595021529  0.8041756791544371  0.27006819554593453  1.0000
  H   H11       1.0  0.15080573445266499  0.6900387870438096  0.6204308671185967  1.0000
  H   H12       1.0  0.021282591988365015  0.3506942494950076  0.018519167071172182  1.0000
  H   H13       1.0  0.018424848311366475  0.19016624579546382  0.9211421562549508  1.0000
  C   C16       1.0  0.08306401521007008  0.5571256652457592  0.9834045418943232  1.0000
  C   C17       1.0  0.16276597040915353  0.5249183080872639  0.05937109830664134  1.0000
  C   C18       1.0  0.2437639849373027  0.5056923415030148  0.9870958185693879  1.0000
  C   C19       1.0  0.24433713313837327  0.519485460923631  0.8350108588984368  1.0000
  C   C20       1.0  0.1655745227576103  0.5489798044689387  0.7580449916780658  1.0000
  C   C21       1.0  0.08405714511515122  0.5657041998334789  0.8298911823111066  1.0000
  C   C22       1.0  0.3265441989060822  0.47252923550991993  0.07862065526973083  1.0000
  C   C23       1.0  0.39591983752169946  0.3734875562452187  0.018521875435908882  1.0000
  C   C24       1.0  0.4155308766737722  0.5347512007050879  0.022116873435943814  1.0000
  H   H14       1.0  0.9351428914171728  0.5384378897853273  0.26481496931735027  1.0000
  H   H15       1.0  0.16229429301133239  0.5179574589003089  0.17655370714496366  1.0000
  H   H16       1.0  0.3049845335868072  0.5063907218792298  0.7740629777777395  1.0000
  H   H17       1.0  0.9515236759803759  0.6683298914241167  0.5411145130893766  1.0000
  H   H18       1.0  0.32059860530402284  0.46323233120537344  0.19840330053347577  1.0000
  H   H19       1.0  0.3836353256297218  0.3363815529741636  0.9090199368701041  1.0000
  H   H20       1.0  0.4326439693520364  0.3059141445314597  0.1021447024127109  1.0000
  H   H21       1.0  0.4151167735709358  0.5954265147921898  0.9147863439690984  1.0000
  H   H22       1.0  0.46370862257638135  0.5614554365930648  0.10784532402943192  1.0000
  Zn  Zn1       1.0  0.9854456514886174  0.5615159977534716  0.4067106772103819  1.0000
  Zn  Zn2       1.0  0.18166692607641532  0.5613131819528545  0.4065843954195043  1.0000
  C   C25       1.0  0.08383013863032945  0.5583362834619296  0.6698976823655192  1.0000
  C   C26       1.0  0.08328459363878093  0.5644947154755051  0.14339752699168562  1.0000
  C   C27       1.0  0.08525843709831599  0.8248056602163134  0.4004186769150673  1.0000
  C   C28       1.0  0.08185621706080148  0.298023606543401  0.41287661252187013  1.0000
  O   O1        1.0  0.15782353203743948  0.5668845755801517  0.1970447226665839  1.0000
  O   O2        1.0  0.15821859984592745  0.5557913984765277  0.6161542288454076  1.0000
  O   O3        1.0  0.15937096685723628  0.7709688063962523  0.398548023215926  1.0000
  O   O4        1.0  0.1566710980092598  0.35170717695309306  0.41465082025369804  1.0000
  O   O5        1.0  0.010441412595084238  0.7711220028239372  0.39864425241169776  1.0000
  O   O6        1.0  0.009289056733078779  0.5559463271526376  0.6162503779969573  1.0000
  O   O7        1.0  0.00889398662500174  0.567039436429337  0.1971391390678876  1.0000
  O   O8        1.0  0.007741552653003357  0.3518620285803167  0.4147453447328797  1.0000
