data_image0
_chemical_formula_structural       NC9NC5H8C9H8C6NH7Zn2C4O8
_chemical_formula_sum              "N3 C33 H23 Zn2 O8"
_cell_length_a       17.807436237873137
_cell_length_b       9.275152443626249
_cell_length_c       9.274774538082516
_cell_angle_alpha    84.86265069898316
_cell_angle_beta     89.72824813723155
_cell_angle_gamma    88.96355956710403

_space_group_name_H-M_alt    "P 1"
_space_group_IT_number       1

loop_
  _space_group_symop_operation_xyz
  'x, y, z'

loop_
  _atom_site_type_symbol
  _atom_site_label
  _atom_site_symmetry_multiplicity
  _atom_site_fract_x
  _atom_site_fract_y
  _atom_site_fract_z
  _atom_site_occupancy
  N   N1        1.0  0.7104305562035406  0.5554024324097319  0.39109649430274596  1.0000
  C   C1        1.0  0.6496006334496851  0.5164313225819568  0.3789844748240594  1.0000
  C   C2        1.0  0.5739348953108184  0.46795555384755216  0.3639184374871665  1.0000
  C   C3        1.0  0.5550637568744846  0.38968160772434207  0.24751210281143424  1.0000
  C   C4        1.0  0.48159530238888726  0.34249236677656203  0.23279256530013506  1.0000
  C   C5        1.0  0.4259469662526826  0.3731581274798636  0.3344447871172669  1.0000
  C   C6        1.0  0.34786989001866186  0.3231349282570947  0.31889248584964314  1.0000
  C   C7        1.0  0.286257827322932  0.4136731434509133  0.34739577984248626  1.0000
  C   C8        1.0  0.2126459386084707  0.3662582840934683  0.33269224593584285  1.0000
  C   C9        1.0  0.1500006555504483  0.45978178358253374  0.36158933384598746  1.0000
  N   N2        1.0  0.0996467998655793  0.5349681960576275  0.3848218082143373  1.0000
  C   C10       1.0  0.20006098392278968  0.2280189606301144  0.2894582638366894  1.0000
  C   C11       1.0  0.260815567272442  0.1374654445684078  0.2609457011086078  1.0000
  C   C12       1.0  0.3343050313762472  0.18444414543848753  0.27542571242778924  1.0000
  C   C13       1.0  0.44551313861521374  0.4519789282121085  0.45109279972242167  1.0000
  C   C14       1.0  0.5190328185803628  0.4989582626644499  0.4656401156028483  1.0000
  H   H1        1.0  0.5970785528756508  0.3654181547839679  0.16790763015941979  1.0000
  H   H2        1.0  0.4680827384988324  0.28369367718781935  0.1408561067874543  1.0000
  H   H3        1.0  0.2954208786560704  0.5216276325055895  0.37910224808480186  1.0000
  H   H4        1.0  0.1433617489033508  0.19032483884533602  0.27781848212445515  1.0000
  H   H5        1.0  0.250954744349638  0.03043355692549942  0.22790200626154825  1.0000
  H   H6        1.0  0.3804983930728489  0.11161909283196224  0.25451663955666115  1.0000
  H   H7        1.0  0.40421660682182226  0.47563097106747837  0.532137948789751  1.0000
  H   H8        1.0  0.5330771797634059  0.5591227460693162  0.5564142237380274  1.0000
  C   C15       1.0  0.9028313967307562  0.12165609492500873  0.38946826180097893  1.0000
  C   C16       1.0  0.875354405831645  0.20690553694413907  0.2672954063095154  1.0000
  C   C17       1.0  0.8548513284298105  0.14362808228190516  0.14271444885363538  1.0000
  C   C18       1.0  0.8615017006204151  0.9939785098550965  0.13783835209275064  1.0000
  C   C19       1.0  0.8875068259466439  0.9071272168144018  0.25899867333006754  1.0000
  C   C20       1.0  0.9072531194600263  0.9687030167258504  0.3864624559392198  1.0000
  C   C21       1.0  0.8407487782873672  0.9290446824259105  0.00881920859502161  1.0000
  C   C22       1.0  0.8233730241301923  0.8746445318878121  0.900785879461802  1.0000
  C   C23       1.0  0.8022909734689886  0.8086275545313308  0.7697063753481322  1.0000
  H   H9        1.0  0.011650737567364903  0.19508501293427538  0.6759587423108133  1.0000
  H   H10       1.0  0.8713968172173269  0.32363475227083605  0.2669052123185569  1.0000
  H   H11       1.0  0.8344785818571355  0.21175122030662208  0.04956715336296313  1.0000
  H   H12       1.0  0.8906562701989102  0.7906868905114697  0.2549216143991093  1.0000
  H   H13       1.0  0.9781200384221949  0.6679666835004039  0.5824697473911555  1.0000
  H   H14       1.0  0.8160627699244167  0.6910653077865385  0.7829679290799388  1.0000
  H   H15       1.0  0.7411022679999347  0.8245945980572247  0.750934079045324  1.0000
  H   H16       1.0  0.8337144446244015  0.8601396550551981  0.675776764049524  1.0000
  C   C24       1.0  0.9037136860802985  0.5489390943134516  0.9641577013021025  1.0000
  C   C25       1.0  0.9573741830198251  0.6312556835122196  0.02973428145105195  1.0000
  C   C26       1.0  0.01434198843439738  0.7015148886861071  0.9477972758734343  1.0000
  C   C27       1.0  0.01810932301253377  0.6897655683594304  0.7987991344265986  1.0000
  C   C28       1.0  0.9647063627766522  0.6106134828308731  0.7315048330507143  1.0000
  C   C29       1.0  0.9063708172921835  0.541419944593331  0.8117730502768303  1.0000
  N   N3        1.0  0.06886362027076197  0.783585562764028  0.016365913725090664  1.0000
  H   H17       1.0  0.7899820226654487  0.27289637391911903  0.09288824593441203  1.0000
  H   H18       1.0  0.9560580080144131  0.6381669029848298  0.1457519320108629  1.0000
  H   H19       1.0  0.0620884892211424  0.7431950373588712  0.734366318592626  1.0000
  H   H20       1.0  0.9680343885937099  0.606425843775726  0.615292030015101  1.0000
  H   H21       1.0  0.8274849239643567  0.3600072172343258  0.5476056617222498  1.0000
  H   H22       1.0  0.06672993696215279  0.7927444220763233  0.127738901187549  1.0000
  H   H23       1.0  0.1117528636946532  0.8359377760284816  0.9562432826324443  1.0000
  Zn  Zn1       1.0  0.8227499614739863  0.5495016307894176  0.38929411568823985  1.0000
  Zn  Zn2       1.0  0.987327352221301  0.5408571359589958  0.3866360932531152  1.0000
  C   C30       1.0  0.9058368985814939  0.537095718519748  0.6515760169449337  1.0000
  C   C31       1.0  0.9042422222373078  0.5532647723423335  0.12435429816432886  1.0000
  C   C32       1.0  0.9063954205951372  0.8086443098461802  0.381279643826097  1.0000
  C   C33       1.0  0.9036836352606603  0.28171445049014543  0.3946507552825367  1.0000
  O   O1        1.0  0.9668758330404973  0.5514296765821569  0.17710905615118727  1.0000
  O   O2        1.0  0.9681137123118645  0.5323687583788717  0.596803469845525  1.0000
  O   O3        1.0  0.9685638886653698  0.7516477109867492  0.3785372444369095  1.0000
  O   O4        1.0  0.9664256002425115  0.3321507382012343  0.39537517421966606  1.0000
  O   O5        1.0  0.8436516572905739  0.7582080314987578  0.3805550356211448  1.0000
  O   O6        1.0  0.8432014897378707  0.5389308123682156  0.5988211779298441  1.0000
  O   O7        1.0  0.8419636048146656  0.5579916957022701  0.1791250292595757  1.0000
  O   O8        1.0  0.8415133722989581  0.33871274604597224  0.39739125556764665  1.0000
