data_image0
_chemical_formula_structural       NC10NC3NCH9C12ClH9C16H10Zn2C4O8
_chemical_formula_sum              "N3 C46 H28 Cl1 Zn2 O8"
_cell_length_a       19.437513618241372
_cell_length_b       10.299768534541528
_cell_length_c       10.299151387937775
_cell_angle_alpha    85.58714147101236
_cell_angle_beta     90.33614197722552
_cell_angle_gamma    89.54057453160664

_space_group_name_H-M_alt    "P 1"
_space_group_IT_number       1

loop_
  _space_group_symop_operation_xyz
  'x, y, z'

loop_
  _atom_site_type_symbol
  _atom_site_label
  _atom_site_symmetry_multiplicity
  _atom_site_fract_x
  _atom_site_fract_y
  _atom_site_fract_z
  _atom_site_occupancy
  N   N1        1.0  0.6482335146540706  0.4098384216767008  0.5757798424929981  1.0000
  C   C1        1.0  0.5893032811334614  0.4268469924349776  0.572805722297105  1.0000
  C   C2        1.0  0.5158666834680651  0.4480976534493659  0.5691140749204184  1.0000
  C   C3        1.0  0.4740876942349063  0.3469053528630523  0.5574433959908547  1.0000
  C   C4        1.0  0.3981999158244835  0.35696719885838024  0.5502231422983719  1.0000
  C   C5        1.0  0.3586353352288938  0.43783874662968447  0.615975017994747  1.0000
  C   C6        1.0  0.2824521640746057  0.4292274993291816  0.6075299116306492  1.0000
  C   C7        1.0  0.24929526300316981  0.3078870476340809  0.6121597148108664  1.0000
  C   C8        1.0  0.1775599305413094  0.3015127419332755  0.6049909092574965  1.0000
  C   C9        1.0  0.1380107699073655  0.41600634742957404  0.5935544809726268  1.0000
  C   C10       1.0  0.0641609163969319  0.40929380611838617  0.586217545363976  1.0000
  N   N2        1.0  0.004790732277250299  0.40389751312799493  0.5803191076084837  1.0000
  C   C11       1.0  0.170450977066306  0.537036510189195  0.5896699225644706  1.0000
  C   C12       1.0  0.24217075429462123  0.5436648248045652  0.5969007782951634  1.0000
  C   C13       1.0  0.3873298358348163  0.530154793782293  0.7059057188022224  1.0000
  N   N3        1.0  0.4443271425094316  0.5933585331079159  0.6855085135682613  1.0000
  C   C14       1.0  0.48817251807683587  0.5840563625920541  0.572399403934579  1.0000
  H   H1        1.0  0.4964556978006527  0.2518467282654806  0.5453114824329376  1.0000
  H   H2        1.0  0.3734767653700393  0.2874352407215497  0.49189695356792695  1.0000
  H   H3        1.0  0.2787292149521028  0.21798114235125654  0.6231705333168795  1.0000
  H   H4        1.0  0.1529496206755842  0.20728992275715077  0.6088675363461085  1.0000
  H   H5        1.0  0.1403315001422701  0.6262883614037029  0.5809711888477864  1.0000
  H   H6        1.0  0.2662996156796753  0.638300429089345  0.5930087376182638  1.0000
  H   H7        1.0  0.35732554560655805  0.5505705694544099  0.7902750353978996  1.0000
  H   H8        1.0  0.5309371429937516  0.6543693809105174  0.5781707115108647  1.0000
  H   H9        1.0  0.4585153521324506  0.6121316105746735  0.4817565738520904  1.0000
  C   C15       1.0  0.8264505314186468  0.025503571794083697  0.5780465874926022  1.0000
  C   C16       1.0  0.8309961401022888  0.034934345444368915  0.44163511299953906  1.0000
  C   C17       1.0  0.8333655774399495  0.9225725273990527  0.372522564916711  1.0000
  C   C18       1.0  0.8311275406012234  0.7996444453129681  0.4416522758501855  1.0000
  C   C19       1.0  0.8265803134136647  0.7882221695657917  0.5780636676883306  1.0000
  C   C20       1.0  0.8242677802150832  0.9017080828584545  0.6454969252433247  1.0000
  C   C21       1.0  0.8381753672605076  0.9336031522999024  0.2282106083652549  1.0000
  C   C22       1.0  0.7990428075398402  0.02776296375027076  0.15324838411889297  1.0000
  C   C23       1.0  0.8036312181147595  0.037948489448524025  0.017426634635099306  1.0000
  C   C24       1.0  0.847285925863608  0.9544967088008065  0.9548744028109538  1.0000
  C   C25       1.0  0.8864073693418133  0.8606486715942889  0.02832526039151162  1.0000
  C   C26       1.0  0.8819411357284634  0.8500688652908475  0.16416320860699596  1.0000
  Cl  Cl1       1.0  0.8529661103516541  0.9675232838687303  0.7844611969866797  1.0000
  H   H10       1.0  0.8246831300423062  0.34936431986295946  0.6300223717663682  1.0000
  H   H11       1.0  0.8336541900231006  0.12987955571306564  0.3889362013569051  1.0000
  H   H12       1.0  0.8319901449478404  0.7127733232221736  0.38871695062431066  1.0000
  H   H13       1.0  0.8207603555865359  0.8936644980056792  0.7507320895385815  1.0000
  H   H14       1.0  0.8248749998793773  0.4564155476632923  0.6300480434024305  1.0000
  H   H15       1.0  0.764251784031579  0.0923388449402678  0.19954907263928212  1.0000
  H   H16       1.0  0.7730903293340399  0.11054694563949119  0.9609258902409437  1.0000
  H   H17       1.0  0.920431290890152  0.7960382240701604  0.9803253228257601  1.0000
  H   H18       1.0  0.9133552193931502  0.7777485209045114  0.21918075983238453  1.0000
  C   C27       1.0  0.8265552635914039  0.40669348169950736  0.19668467592455507  1.0000
  C   C28       1.0  0.7601824764806181  0.4617518716956106  0.19093231720049508  1.0000
  C   C29       1.0  0.7264890965429144  0.4898422357363299  0.07085927880301357  1.0000
  C   C30       1.0  0.7600628561088247  0.4621314550947882  0.9556184677657962  1.0000
  C   C31       1.0  0.8264755644585198  0.40703225599623  0.9594256447513443  1.0000
  C   C32       1.0  0.8593135911372314  0.37965440624410385  0.08038015370765052  1.0000
  C   C33       1.0  0.6562747261889033  0.5480876552772069  0.06581938751588767  1.0000
  C   C34       1.0  0.6388165457937677  0.6481898281348493  0.9702943744017127  1.0000
  C   C35       1.0  0.5727194346660079  0.7029713942027257  0.9656789553500378  1.0000
  C   C36       1.0  0.523213443911025  0.6584736776862024  0.05627578568777692  1.0000
  C   C37       1.0  0.5400481694080925  0.5589402258897251  0.15163078013377887  1.0000
  C   C38       1.0  0.6061255273247959  0.5040713970265003  0.156495510883526  1.0000
  C   C39       1.0  0.45517595598419974  0.7149172820537975  0.05139633129993593  1.0000
  C   C40       1.0  0.398195519888853  0.7621879486321308  0.04730977198516605  1.0000
  C   C41       1.0  0.3314720217445531  0.8175414744872926  0.042524452068051236  1.0000
  C   C42       1.0  0.2745007938400144  0.8648047397602061  0.03843865967141281  1.0000
  H   H19       1.0  0.8520704401368845  0.3854533462304612  0.5263775358649891  1.0000
  H   H20       1.0  0.7349069851016562  0.48456715669540007  0.2799148461595149  1.0000
  H   H21       1.0  0.733960082905554  0.48194518358116484  0.8629136547783944  1.0000
  H   H22       1.0  0.9105077944463562  0.3371829151365968  0.08410161088939883  1.0000
  H   H23       1.0  0.9516530883383282  0.3022799590737486  0.7593751530574258  1.0000
  H   H24       1.0  0.6765403365901608  0.685262884900079  0.9002289864661855  1.0000
  H   H25       1.0  0.5602902727616121  0.7802268942335545  0.8916698503109521  1.0000
  H   H26       1.0  0.5020577902219234  0.5235127908370956  0.22202421575366918  1.0000
  H   H27       1.0  0.6177415044955564  0.4260678175914774  0.2301012306168997  1.0000
  H   H28       1.0  0.2244753519506313  0.9063057265324804  0.03485100398454333  1.0000
  Zn  Zn1       1.0  0.7511282297307472  0.40812051796205245  0.5770972852585101  1.0000
  Zn  Zn2       1.0  0.9018960204801937  0.40560475216224856  0.5790123345195315  1.0000
  C   C43       1.0  0.8264882210140341  0.40179466832100424  0.8152511172246938  1.0000
  C   C44       1.0  0.8265376758419807  0.4119322129876422  0.34085865096939144  1.0000
  C   C45       1.0  0.8265527754881435  0.6440499146844385  0.5728852381625223  1.0000
  C   C46       1.0  0.8264730696486492  0.16967540722967134  0.5832245985819691  1.0000
  O   O1        1.0  0.8837473631250761  0.4127299933813011  0.389971505126945  1.0000
  O   O2        1.0  0.8837077982529215  0.3990865000194055  0.7675913672754698  1.0000
  O   O3        1.0  0.8837591553725505  0.5947106886635674  0.5718791953871858  1.0000
  O   O4        1.0  0.8836959545703674  0.2171058148424541  0.5856835789868946  1.0000
  O   O5        1.0  0.7693282441909273  0.5966194561417655  0.5704260401308032  1.0000
  O   O6        1.0  0.7692768873408733  0.4009968277520577  0.7661381428083373  1.0000
  O   O7        1.0  0.7693164524142188  0.4146402751641687  0.388516719252306  1.0000
  O   O8        1.0  0.7692650438449432  0.21901608737992445  0.584228890480247  1.0000
