data_image0
_chemical_formula_structural       NC5NC4H6C6ClH5C9H8Zn2C4O8
_chemical_formula_sum              "N2 C28 H19 Cl1 Zn2 O8"
_cell_length_a       13.854160002989762
_cell_length_b       10.30297070629231
_cell_length_c       9.275155815604963
_cell_angle_alpha    86.05280978821669
_cell_angle_beta     90.35750573089034
_cell_angle_gamma    89.9983107048755

_space_group_name_H-M_alt    "P 1"
_space_group_IT_number       1

loop_
  _space_group_symop_operation_xyz
  'x, y, z'

loop_
  _atom_site_type_symbol
  _atom_site_label
  _atom_site_symmetry_multiplicity
  _atom_site_fract_x
  _atom_site_fract_y
  _atom_site_fract_z
  _atom_site_occupancy
  N   N1        1.0  0.9022370730530538  0.40850710760485387  0.41026348588536865  1.0000
  C   C1        1.0  0.8296573032011813  0.43074519760472646  0.3512305274997578  1.0000
  C   C2        1.0  0.7393670418186084  0.45840997962074526  0.27779126691106093  1.0000
  C   C3        1.0  0.652095941649291  0.4324250876542845  0.34949819205223465  1.0000
  C   C4        1.0  0.5642246293503017  0.45840999234048097  0.2777912437438128  1.0000
  C   C5        1.0  0.4745491622223313  0.4307450656982639  0.3512306190991279  1.0000
  N   N2        1.0  0.4024635024561153  0.40850705044440033  0.410263485797729  1.0000
  C   C6        1.0  0.5636571189810142  0.5109258066619995  0.13439637041296004  1.0000
  C   C7        1.0  0.6508950121226568  0.5388454337305861  0.0625860625460275  1.0000
  C   C8        1.0  0.6502468686552573  0.5914892831218667  0.9077047305766905  1.0000
  C   C9        1.0  0.738734207639686  0.5109258047693184  0.1343962801546401  1.0000
  H   H1        1.0  0.6525604911305036  0.3916786821567011  0.4604831892616834  1.0000
  H   H2        1.0  0.4955513164199178  0.5301066647535508  0.07875941896394689  1.0000
  H   H3        1.0  0.7150004575705725  0.6526629714071246  0.8839244182664382  1.0000
  H   H4        1.0  0.5852919801836707  0.6526629736010519  0.8839244833369357  1.0000
  H   H5        1.0  0.6499498647611363  0.5094449590508938  0.8361649345979756  1.0000
  H   H6        1.0  0.806374275142942  0.5301067653489584  0.07875933355822817  1.0000
  C   C10       1.0  0.15235491993381609  0.027259674703622894  0.4102697202163679  1.0000
  C   C11       1.0  0.25213953805306266  0.02433188285266664  0.4380297352315398  1.0000
  C   C12       1.0  0.3016500018493857  0.9059223459889667  0.4518034130111172  1.0000
  C   C13       1.0  0.25213953699924385  0.7892239136570953  0.4380296674497097  1.0000
  C   C14       1.0  0.1523549305795244  0.789744617156141  0.41026980271963187  1.0000
  C   C15       1.0  0.10294902634481252  0.9093559107126118  0.39652508110900664  1.0000
  Cl  Cl1       1.0  0.4263047637502888  0.9037683525741105  0.486482186375339  1.0000
  H   H7        1.0  0.11476779858157492  0.3556656346822389  0.39981220186289246  1.0000
  H   H8        1.0  0.29182630521332636  0.11369269242917587  0.4490704441166294  1.0000
  H   H9        1.0  0.2918262666095373  0.6984914987980332  0.4490703405686726  1.0000
  H   H10       1.0  0.025992100558698925  0.9106855851511274  0.37511567866855566  1.0000
  H   H11       1.0  0.11476779501148293  0.46263767011632945  0.3998124739720723  1.0000
  C   C16       1.0  0.15058641119103258  0.4052205213304849  0.9870385004752654  1.0000
  C   C17       1.0  0.0750773365266959  0.46848054069933  0.054853367862183644  1.0000
  C   C18       1.0  0.006033401424995193  0.5403689008650381  0.9735685957614084  1.0000
  C   C19       1.0  0.011218121061004943  0.5505025952344984  0.8229867990191062  1.0000
  C   C20       1.0  0.08478482015363563  0.4865450394916879  0.753463566678322  1.0000
  C   C21       1.0  0.15412343976638948  0.41178369449569135  0.8335009265018516  1.0000
  C   C22       1.0  0.9402230830411714  0.6254240822718402  0.7393894084894232  1.0000
  C   C23       1.0  0.8807775282919659  0.6881605961436095  0.6693613605727902  1.0000
  C   C24       1.0  0.8086510369961974  0.7642807481927215  0.5843826882443253  1.0000
  H   H12       1.0  0.3746254890848508  0.30047399406341646  0.09999636156368608  1.0000
  H   H13       1.0  0.07074085961597221  0.4648817111525214  0.171644905523479  1.0000
  H   H14       1.0  0.9490735476371671  0.5891657467380929  0.028381623368515015  1.0000
  H   H15       1.0  0.08656823604021179  0.4926499139775666  0.6363172711304386  1.0000
  H   H16       1.0  0.303611072060306  0.3365998379423423  0.5599185477218644  1.0000
  H   H17       1.0  0.8282652693780719  0.7680109184481518  0.46838370192585055  1.0000
  H   H18       1.0  0.7367626047147479  0.7180495038005084  0.5994089622631287  1.0000
  H   H19       1.0  0.806208251480155  0.8645283413061597  0.6208874185328455  1.0000
  Zn  Zn1       1.0  0.04659165546186771  0.4085036798480534  0.410271817694309  1.0000
  Zn  Zn2       1.0  0.2581089706822086  0.4084999460295205  0.4102669905219325  1.0000
  C   C25       1.0  0.1534527267280621  0.40537111558298317  0.6735014380922018  1.0000
  C   C26       1.0  0.15125020976968662  0.4116341494482991  0.1470375115296534  1.0000
  C   C27       1.0  0.15232597788358546  0.6455741715167496  0.4045265019763955  1.0000
  C   C28       1.0  0.15237688675910466  0.17142953430599348  0.4160125244859001  1.0000
  O   O1        1.0  0.23174270543069486  0.4137795407323903  0.20073280936153592  1.0000
  O   O2        1.0  0.23349697740809194  0.4032219077897014  0.6198020616655604  1.0000
  O   O3        1.0  0.23258603765441746  0.5971889248773397  0.4026028977344973  1.0000
  O   O4        1.0  0.23265357255628205  0.2198125320953992  0.41793186523090053  1.0000
  O   O5        1.0  0.07204698140728394  0.5971910937848038  0.402606942979407  1.0000
  O   O6        1.0  0.07295792083550598  0.40322563590833366  0.619806030064096  1.0000
  O   O7        1.0  0.07120364168161131  0.4137832101739173  0.20073504496666295  1.0000
  O   O8        1.0  0.07211450925477503  0.21981619308890818  0.4179342088917921  1.0000
