data_image0
_chemical_formula_structural       NC10NC5H10C12NCOCH13C11NCOCH13Zn2C4O8
_chemical_formula_sum              "N4 C46 H36 O10 Zn2"
_cell_length_a       19.4436361288709
_cell_length_b       10.299155265289647
_cell_length_c       10.299158637457994
_cell_angle_alpha    85.56442242627145
_cell_angle_beta     89.6864852280966
_cell_angle_gamma    89.39615277754326

_space_group_name_H-M_alt    "P 1"
_space_group_IT_number       1

loop_
  _space_group_symop_operation_xyz
  'x, y, z'

loop_
  _atom_site_type_symbol
  _atom_site_label
  _atom_site_symmetry_multiplicity
  _atom_site_fract_x
  _atom_site_fract_y
  _atom_site_fract_z
  _atom_site_occupancy
  N   N1        1.0  0.6476026018516237  0.40890565371698556  0.561697844798833  1.0000
  C   C1        1.0  0.5887630655666802  0.4188108419829476  0.5760793880194361  1.0000
  C   C2        1.0  0.5154292849502999  0.43116394908456473  0.5940686734287995  1.0000
  C   C3        1.0  0.47326245292226427  0.39914784799407066  0.4994021011876133  1.0000
  C   C4        1.0  0.3973550481395651  0.4095878539751439  0.5047274759408926  1.0000
  C   C5        1.0  0.3576089114069889  0.38485715548420735  0.6118080346289243  1.0000
  C   C6        1.0  0.28148900606020266  0.3887717607030321  0.5988474266389751  1.0000
  C   C7        1.0  0.2409037426743033  0.4464539951123576  0.6926041009417866  1.0000
  C   C8        1.0  0.1692407749320073  0.4500901434334668  0.6820590802447263  1.0000
  C   C9        1.0  0.1371683643211233  0.395648067622405  0.5780440214137745  1.0000
  C   C10       1.0  0.0633761566736231  0.3993454361354081  0.5673437001823374  1.0000
  N   N2        1.0  0.0040522267540575  0.4023179264317987  0.5587413513173671  1.0000
  C   C11       1.0  0.17702883931512506  0.33725875864198024  0.48467077575460416  1.0000
  C   C12       1.0  0.24870827548464494  0.3335683376364893  0.4949640298354268  1.0000
  C   C13       1.0  0.3857353299108646  0.3444166796514707  0.7429153177201329  1.0000
  C   C14       1.0  0.44438473365078046  0.3875501094639701  0.7901470195040624  1.0000
  C   C15       1.0  0.4885803571509943  0.4854022977720877  0.7157524819031618  1.0000
  H   H1        1.0  0.4953776204367792  0.37001258934961534  0.4091017328620914  1.0000
  H   H2        1.0  0.3726624673309115  0.43206764096096206  0.4115618009159366  1.0000
  H   H3        1.0  0.264756185349185  0.48976240459517906  0.7734420707108338  1.0000
  H   H4        1.0  0.138878426263935  0.49542102160338564  0.7549689321620627  1.0000
  H   H5        1.0  0.15270443619499866  0.29414608034553896  0.4041672417019347  1.0000
  H   H6        1.0  0.2784053913580681  0.28599402907704996  0.42275111778627117  1.0000
  H   H7        1.0  0.3547758526126703  0.28020629558162785  0.8071802350665354  1.0000
  H   H8        1.0  0.45953066066408454  0.3534977535299227  0.8880919278672175  1.0000
  H   H9        1.0  0.45845552262251976  0.5761187347434438  0.6904760758924238  1.0000
  H   H10       1.0  0.5318530843934713  0.5110013553893362  0.7788315613714647  1.0000
  C   C16       1.0  0.8259075030380115  0.024212869023346295  0.5603376643323561  1.0000
  C   C17       1.0  0.8141813815124606  0.03409356458765322  0.42550894753258023  1.0000
  C   C18       1.0  0.8081693984890611  0.9219668014008799  0.3570307755888982  1.0000
  C   C19       1.0  0.8140169793981246  0.7988367510343399  0.42520252449498797  1.0000
  C   C20       1.0  0.8257539261690112  0.7870006434281287  0.560112742551176  1.0000
  C   C21       1.0  0.831629990899993  0.9002069961633323  0.6268497233916022  1.0000
  C   C22       1.0  0.7957654268757711  0.9333930378579318  0.2143982666533238  1.0000
  C   C23       1.0  0.8306602039264539  0.026837245017104383  0.13269077156247455  1.0000
  C   C24       1.0  0.818992908784618  0.037459104429964134  0.9984640293190449  1.0000
  C   C25       1.0  0.7726252397552535  0.9539587995903924  0.9430977228429098  1.0000
  C   C26       1.0  0.7368903394827572  0.8623463864812106  0.024744026189727597  1.0000
  C   C27       1.0  0.7485826914279035  0.8514680345661493  0.15893322492455053  1.0000
  N   N3        1.0  0.7587451092747679  0.9644194952133925  0.8056509871095021  1.0000
  C   C28       1.0  0.808982240418739  0.000401255768750718  0.7070160110655386  1.0000
  O   O1        1.0  0.8720748037750587  0.0017769838646619694  0.7343512906111451  1.0000
  C   C29       1.0  0.7870637421732266  0.027215993000708306  0.5686571083566286  1.0000
  H   H11       1.0  0.830439220913904  0.3478881216501462  0.612192684633319  1.0000
  H   H12       1.0  0.8087484704183453  0.12922519330531168  0.373744068607131  1.0000
  H   H13       1.0  0.8103260384423882  0.7120917877277756  0.3726043815456903  1.0000
  H   H14       1.0  0.8406769089604217  0.8918709011758372  0.7308454655933655  1.0000
  H   H15       1.0  0.8483186685656465  0.5573696453414093  0.814614486864395  1.0000
  H   H16       1.0  0.8673803842222613  0.0912177046667184  0.17247876249216243  1.0000
  H   H17       1.0  0.8453888686198874  0.11241094495838085  0.9386643153242513  1.0000
  H   H18       1.0  0.7001042999020117  0.7986709620852268  0.9840895405132022  1.0000
  H   H19       1.0  0.7199765247864767  0.7801736132067831  0.21958422299220873  1.0000
  H   H20       1.0  0.7103070126150673  0.9364378026193584  0.7749791153597241  1.0000
  H   H21       1.0  0.7374160537965272  0.08157803232862525  0.5646152278806333  1.0000
  H   H22       1.0  0.7807068965266916  0.9337117308589086  0.5234855005915318  1.0000
  H   H23       1.0  0.8262276576502127  0.08656861979480057  0.5129366646382684  1.0000
  C   C30       1.0  0.8258952139846087  0.40546756857993316  0.17885162501448515  1.0000
  C   C31       1.0  0.8274657334295384  0.5421520277134706  0.16748451662378375  1.0000
  C   C32       1.0  0.828207998532266  0.6115938055567505  0.04456400958605156  1.0000
  C   C33       1.0  0.8273339956567564  0.5425143590946295  0.9321740239762853  1.0000
  C   C34       1.0  0.825766193046512  0.40574593458538577  0.9415988285639734  1.0000
  C   C35       1.0  0.8250594631042276  0.33806344053446535  0.06532516497016627  1.0000
  C   C36       1.0  0.8298702396312798  0.7561891756179023  0.03351253547415856  1.0000
  C   C37       1.0  0.8720714593919209  0.8232482105706181  0.11570977899170187  1.0000
  C   C38       1.0  0.8736413212695044  0.9593199761726137  0.10517885524218684  1.0000
  C   C39       1.0  0.8334772629071482  0.031052945115795712  0.011341375722095927  1.0000
  C   C40       1.0  0.7889152575521512  0.8283250885304883  0.941203593366236  1.0000
  N   N4        1.0  0.8331864018886276  0.17111476908141032  6.68803130752247e-05  1.0000
  C   C41       1.0  0.8920984827788128  0.24901978304585892  0.022786397450093036  1.0000
  O   O2        1.0  0.951409060735557  0.19850727125034687  0.030825252995979158  1.0000
  C   C42       1.0  0.8840016166919009  0.39299533106469886  0.02741346649351328  1.0000
  H   H24       1.0  0.8253126736605287  0.35289061878797573  0.5106994962941056  1.0000
  H   H25       1.0  0.8271544338057927  0.5949789786409347  0.2544222910172782  1.0000
  H   H26       1.0  0.8288144314609595  0.5955045659659199  0.8371744157337392  1.0000
  H   H27       1.0  0.8238504392406341  0.23263548027380113  0.07337796457827617  1.0000
  H   H28       1.0  0.8232245995835378  0.14757959250122066  0.752091979201245  1.0000
  H   H29       1.0  0.9042727440784177  0.7704221338245353  0.18765072429454333  1.0000
  H   H30       1.0  0.9053693450053346  0.00807686437537925  0.1719325835330887  1.0000
  H   H31       1.0  0.7582750100921837  0.01807025520195271  0.859561823734334  1.0000
  H   H32       1.0  0.7549339555636535  0.7795630607908961  0.8781528098610076  1.0000
  H   H33       1.0  0.7885920353071612  0.21939748649548857  0.9654759466492215  1.0000
  H   H34       1.0  0.8356345314780982  0.4156055319858543  0.07922599314285872  1.0000
  H   H35       1.0  0.8821430219970653  0.4397005121712283  0.9266962477975788  1.0000
  H   H36       1.0  0.9278732638923209  0.4329552071514087  0.07969225975644201  1.0000
  Zn  Zn1       1.0  0.7504662645580643  0.40700110902452846  0.5608521778987222  1.0000
  Zn  Zn2       1.0  0.9011885558921912  0.40421186650601837  0.5595977026560381  1.0000
  C   C43       1.0  0.8257900861914962  0.4005192410564239  0.7974247877970277  1.0000
  C   C44       1.0  0.8258663797899423  0.41069534281045456  0.3230252060437342  1.0000
  C   C45       1.0  0.8257802715967407  0.6428156665202838  0.5549800647594096  1.0000
  C   C46       1.0  0.8258761432562204  0.16839735789853116  0.5654699992089823  1.0000
  O   O3        1.0  0.8830550279772702  0.4113856624126859  0.3709351117328905  1.0000
  O   O4        1.0  0.8829961699108829  0.39771097098546077  0.7485623908635322  1.0000
  O   O5        1.0  0.8829874732123022  0.5933684135659655  0.5527865676935381  1.0000
  O   O6        1.0  0.8830636732591435  0.21572823003937813  0.5667108379523518  1.0000
  O   O7        1.0  0.768591095756992  0.5954847464444117  0.5537390430236679  1.0000
  O   O8        1.0  0.76859979214993  0.3998288642652138  0.7495147964872915  1.0000
  O   O9        1.0  0.7686586505352971  0.41350350986227996  0.3718859559498012  1.0000
  O   O10       1.0  0.768667295799758  0.21784606823501856  0.5676617795410546  1.0000
