data_image0
_chemical_formula_structural       NC10NC5H10C7OC3OC4H12C6SCOC6H10Zn2C4O8
_chemical_formula_sum              "N2 C46 H32 O11 S1 Zn2"
_cell_length_a       19.4436361288709
_cell_length_b       10.299371110280154
_cell_length_c       10.302041481415108
_cell_angle_alpha    85.5593769261431
_cell_angle_beta     89.70072369043197
_cell_angle_gamma    89.43124194409341

_space_group_name_H-M_alt    "P 1"
_space_group_IT_number       1

loop_
  _space_group_symop_operation_xyz
  'x, y, z'

loop_
  _atom_site_type_symbol
  _atom_site_label
  _atom_site_symmetry_multiplicity
  _atom_site_fract_x
  _atom_site_fract_y
  _atom_site_fract_z
  _atom_site_occupancy
  N   N1        1.0  0.6478632078743278  0.40981203043484893  0.562882976261269  1.0000
  C   C1        1.0  0.5890288148379298  0.4197063664946666  0.5772672912548085  1.0000
  C   C2        1.0  0.5157014557871786  0.432045901765701  0.5952600212808744  1.0000
  C   C3        1.0  0.47351148613285365  0.4000987604616042  0.5005954275880644  1.0000
  C   C4        1.0  0.3976081730946923  0.4105342428877172  0.5059259558667784  1.0000
  C   C5        1.0  0.3578685244223673  0.3857300869136311  0.61296713487739  1.0000
  C   C6        1.0  0.2817481313417223  0.3896535144261311  0.6000118547130949  1.0000
  C   C7        1.0  0.24119417206431915  0.4472655147462368  0.6937823986681204  1.0000
  C   C8        1.0  0.16953095319919903  0.4509088074232077  0.6832419877405382  1.0000
  C   C9        1.0  0.1374268982109632  0.39654393801979093  0.5792173626312197  1.0000
  C   C10       1.0  0.0636344382192237  0.4002485555343361  0.5685217237329426  1.0000
  N   N2        1.0  0.004310305448135797  0.4032268735435611  0.5599231391845713  1.0000
  C   C11       1.0  0.1772558925628853  0.338224646224667  0.4858297293679148  1.0000
  C   C12       1.0  0.24893552829212712  0.334527261959898  0.49611839775695304  1.0000
  C   C13       1.0  0.38599960513660153  0.345200428995736  0.744020010070057  1.0000
  C   C14       1.0  0.4446693247397482  0.3882974273548518  0.791267276591555  1.0000
  C   C15       1.0  0.488886495073534  0.48619463410654706  0.7169492609346446  1.0000
  H   H1        1.0  0.4956050366918752  0.37102917632150245  0.41029780231358126  1.0000
  H   H2        1.0  0.3729102582902912  0.43307786991364156  0.41279512996632556  1.0000
  H   H3        1.0  0.2650715300975748  0.49051384690770644  0.774628410930868  1.0000
  H   H4        1.0  0.13919310135031404  0.4961850326996249  0.7561629144432798  1.0000
  H   H5        1.0  0.15290668251027503  0.2951717954679878  0.4053181961860286  1.0000
  H   H6        1.0  0.2786075169915959  0.2870072835012765  0.4238928855035702  1.0000
  H   H7        1.0  0.3550280770728611  0.28094964091103125  0.8082312072139024  1.0000
  H   H8        1.0  0.45981749418306106  0.35417873357348806  0.8891691982660368  1.0000
  H   H9        1.0  0.4587875426337851  0.5769220805306234  0.6917338779513724  1.0000
  H   H10       1.0  0.5321760173282809  0.5117474236790898  0.7800296217357736  1.0000
  C   C16       1.0  0.8260436795585384  0.0251488924482728  0.5612886622147052  1.0000
  C   C17       1.0  0.8181237594134616  0.0346314143735449  0.42540049277419256  1.0000
  C   C18       1.0  0.813352257323243  0.9222415098360012  0.35703686198863954  1.0000
  C   C19       1.0  0.8181578879764756  0.799362791444928  0.4257112240468379  1.0000
  C   C20       1.0  0.8261364162729308  0.7878799137583391  0.5615286892104708  1.0000
  C   C21       1.0  0.8298530699540448  0.9013745448330043  0.6285706810674971  1.0000
  C   C22       1.0  0.8057066548052493  0.9321131648235307  0.2133862786451488  1.0000
  O   O1        1.0  0.8339027898278177  0.8465765075440796  0.14914388383738378  1.0000
  C   C23       1.0  0.7660663053561607  0.0389401699072065  0.14262090033036381  1.0000
  C   C24       1.0  0.7852954700313143  0.08379067132004316  0.01534782014355618  1.0000
  C   C25       1.0  0.7480959944278983  0.18351613711695453  0.9462918159806575  1.0000
  O   O2        1.0  0.7700593265797394  0.2249631078746792  0.8200405034561307  1.0000
  C   C26       1.0  0.7372773349429279  0.3250831203813511  0.7388963922164866  1.0000
  C   C27       1.0  0.690398283946472  0.23841983528270586  0.005245595427472163  1.0000
  C   C28       1.0  0.670463046613925  0.19329308546791624  0.13100782738084815  1.0000
  C   C29       1.0  0.7077846037912143  0.09384693551800274  0.19931081265690787  1.0000
  H   H11       1.0  0.8420389708156197  0.2145745240725121  0.8174900302522605  1.0000
  H   H12       1.0  0.8164225543192198  0.1296163635229881  0.37239705908353976  1.0000
  H   H13       1.0  0.814997431487261  0.7125798057832187  0.373027105249925  1.0000
  H   H14       1.0  0.8359591907584234  0.8932604058287674  0.7333304991931104  1.0000
  H   H15       1.0  0.8297735080039473  0.45601088685073526  0.6135734132088144  1.0000
  H   H16       1.0  0.8297668735853306  0.04208938669943275  0.9696161072051646  1.0000
  H   H17       1.0  0.7653374418193157  0.33768968152487533  0.6448140265277398  1.0000
  H   H18       1.0  0.7382890003488958  0.41850420144569056  0.7858962722245448  1.0000
  H   H19       1.0  0.6833771915517611  0.2978526789194249  0.7195842687774279  1.0000
  H   H20       1.0  0.660525009400534  0.315489275187885  0.9546168481955717  1.0000
  H   H21       1.0  0.6257317415554279  0.23516101609561815  0.17552024632350327  1.0000
  H   H22       1.0  0.6906237828764132  0.0589810245970732  0.29580989156053944  1.0000
  C   C30       1.0  0.8261029554645462  0.406643429314019  0.1801215702496162  1.0000
  C   C31       1.0  0.8576492031925301  0.529159644444467  0.16898550999743622  1.0000
  C   C32       1.0  0.873651510577699  0.5895904123937771  0.046486492343416966  1.0000
  C   C33       1.0  0.8577144304460598  0.5287545749046874  0.9338794289541803  1.0000
  C   C34       1.0  0.8260771541129146  0.40638534588351344  0.9426957937798514  1.0000
  C   C35       1.0  0.8104859283916093  0.3459084278090445  0.0663848123436197  1.0000
  S   S1        1.0  0.9145650206809218  0.7453682209533603  0.03367364476068403  1.0000
  C   C36       1.0  0.999281886566644  0.6740020830120387  0.03551656821529937  1.0000
  O   O3        1.0  0.026195880638830937  0.650331994245204  0.9282255048156189  1.0000
  C   C37       1.0  0.03718823324940314  0.6419589485274615  0.1587164239397077  1.0000
  C   C38       1.0  0.09819351490802486  0.5671081830581428  0.158378860830299  1.0000
  C   C39       1.0  0.1340375379686889  0.535549087098234  0.27402354757881464  1.0000
  C   C40       1.0  0.10960630207281241  0.5783481701899736  0.39117735453921787  1.0000
  C   C41       1.0  0.04934022344165979  0.6530264677293115  0.39288899627421375  1.0000
  C   C42       1.0  0.01329095363858701  0.6849634919966345  0.27754553790174374  1.0000
  H   H23       1.0  0.7665407370609532  0.17583680610125474  0.40842035089926504  1.0000
  H   H24       1.0  0.8700106755046637  0.5778592896228869  0.25521264510107927  1.0000
  H   H25       1.0  0.8703673864781625  0.5771173031913401  0.839818338892989  1.0000
  H   H26       1.0  0.7861676165661301  0.25145690956045175  0.07404935299611193  1.0000
  H   H27       1.0  0.8142364469136832  0.3596872306966071  0.6187200383220537  1.0000
  H   H28       1.0  0.11805667701709123  0.5322831532470806  0.06888439539889957  1.0000
  H   H29       1.0  0.1807834158660726  0.47770072795238727  0.27277038361887507  1.0000
  H   H30       1.0  0.13741580453187896  0.5537831125022101  0.4806009123781532  1.0000
  H   H31       1.0  0.030544885319343306  0.6864447254705592  0.48372819513086385  1.0000
  H   H32       1.0  0.9670671392357414  0.7437442678389465  0.28202192276676047  1.0000
  Zn  Zn1       1.0  0.7507261411436179  0.4079082224777364  0.56203634065219  1.0000
  Zn  Zn2       1.0  0.9014473620427575  0.4051200701597431  0.5607804503440154  1.0000
  C   C43       1.0  0.8260798497954656  0.401260473796577  0.7985512965202357  1.0000
  C   C44       1.0  0.8260952994568573  0.4117694269776192  0.3242656087164182  1.0000
  C   C45       1.0  0.8261155162613445  0.6437093224693407  0.5563092723975034  1.0000
  C   C46       1.0  0.8260595813683205  0.1693190189237794  0.5665077020004902  1.0000
  O   O4        1.0  0.883290647182898  0.41242600358107256  0.3721650591882546  1.0000
  O   O5        1.0  0.8832784211737601  0.3984867744971403  0.7496982802896963  1.0000
  O   O6        1.0  0.8833064511950134  0.5942672997912397  0.554086138757939  1.0000
  O   O7        1.0  0.8832625657351276  0.2166454885615861  0.5677771037977084  1.0000
  O   O8        1.0  0.7689108860174924  0.5963828050287687  0.555039687620241  1.0000
  O   O9        1.0  0.7688828561851418  0.40060384006862076  0.750651760412403  1.0000
  O   O10       1.0  0.7688950822873826  0.4145430244238346  0.3731169782306343  1.0000
  O   O11       1.0  0.768867000832374  0.21876250008261017  0.568729120184136  1.0000
