data_image0
_chemical_formula_structural       NC6NC2H4C10H6C9H9Zn2C4O8
_chemical_formula_sum              "N2 C31 H19 Zn2 O8"
_cell_length_a       14.927258858638513
_cell_length_b       9.275150299802178
_cell_length_c       9.273585224739813
_cell_angle_alpha    85.81607574140205
_cell_angle_beta     90.10206986439101
_cell_angle_gamma    89.48389287567745

_space_group_name_H-M_alt    "P 1"
_space_group_IT_number       1

loop_
  _space_group_symop_operation_xyz
  'x, y, z'

loop_
  _atom_site_type_symbol
  _atom_site_label
  _atom_site_symmetry_multiplicity
  _atom_site_fract_x
  _atom_site_fract_y
  _atom_site_fract_z
  _atom_site_occupancy
  N   N1        1.0  0.8330519518774213  0.5628587800306664  0.4013097657518663  1.0000
  C   C1        1.0  0.7555254608806895  0.562858751615019  0.4013097764998743  1.0000
  C   C2        1.0  0.6590929526388396  0.5628588662615444  0.40130972599828607  1.0000
  C   C3        1.0  0.612040394918555  0.5378729686996366  0.27478673213585814  1.0000
  C   C4        1.0  0.5183290832912059  0.5378729929947565  0.2747865985624236  1.0000
  C   C5        1.0  0.4712768896620146  0.5628586888175242  0.4013097456302377  1.0000
  C   C6        1.0  0.3748443144286061  0.5628588034669553  0.40130969512270975  1.0000
  N   N2        1.0  0.29731782343187424  0.5628587750513079  0.40130970587071757  1.0000
  C   C7        1.0  0.5183293803907407  0.5878445863823378  0.5278327394867264  1.0000
  C   C8        1.0  0.6120406920180896  0.5878445620872179  0.5278328730601607  1.0000
  H   H1        1.0  0.6477364491259073  0.5184325303705986  0.17634458127129782  1.0000
  H   H2        1.0  0.48263279250226404  0.5184327279503027  0.176344575216955  1.0000
  H   H3        1.0  0.48263339334252653  0.6072850154845518  0.6262749984705647  1.0000
  H   H4        1.0  0.6477369823747151  0.6072849256211323  0.6262750058578122  1.0000
  C   C9        1.0  0.06755542068505083  0.13917767978841414  0.40372256537375706  1.0000
  C   C10       1.0  0.11455183437125643  0.22012505179968198  0.2946845761080761  1.0000
  C   C11       1.0  0.1538596422447667  0.15281466315098302  0.1801054193345657  1.0000
  C   C12       1.0  0.14656957468738518  0.003576059521052554  0.17308842012833092  1.0000
  C   C13       1.0  0.10152827460876757  0.9211782843232965  0.28147866816545797  1.0000
  C   C14       1.0  0.06282299040331513  0.98652885097819  0.39890945978661163  1.0000
  C   C15       1.0  0.20086431578687952  0.23747891476248564  0.06857438751258349  1.0000
  C   C16       1.0  0.2402191118532767  0.30838788326366995  0.9751996676954211  1.0000
  C   C17       1.0  0.2863017515238149  0.39142726835843494  0.8658619430619715  1.0000
  C   C18       1.0  0.32564895936704036  0.46233093605212483  0.7725051225222734  1.0000
  H   H5        1.0  0.025316544958676312  0.40382016801440074  0.632589121060797  1.0000
  H   H6        1.0  0.11885842723110066  0.3365959732942425  0.29691109208259814  1.0000
  H   H7        1.0  0.17650637143698422  0.950532672384799  0.08442822662182592  1.0000
  H   H8        1.0  0.09878204652911077  0.8051151839150312  0.2752562805400198  1.0000
  H   H9        1.0  0.004972055515673364  0.8595272918822604  0.7413432101159809  1.0000
  H   H10       1.0  0.3601990902128572  0.5245903775906078  0.6905301233064178  1.0000
  C   C19       1.0  0.06474423503107163  0.5585625688485358  0.9780888594686874  1.0000
  C   C20       1.0  0.14487088212358742  0.5264288967767754  0.05422815415329696  1.0000
  C   C21       1.0  0.22613739442724456  0.5072807626123557  0.9820765415154811  1.0000
  C   C22       1.0  0.226544221288265  0.5210774744946487  0.8299389478448509  1.0000
  C   C23       1.0  0.14739010489706172  0.5504984918341902  0.7528113420883944  1.0000
  C   C24       1.0  0.06563420792277697  0.5671439825250784  0.8245431560569254  1.0000
  C   C25       1.0  0.30935522261709525  0.4741942505077486  0.073779681006795  1.0000
  C   C26       1.0  0.3799580763936772  0.3752012037249923  0.01410403418926376  1.0000
  C   C27       1.0  0.39763033979375095  0.5365199244434478  0.01709159558678075  1.0000
  H   H11       1.0  0.9169824958802182  0.5397209053125551  0.25948011114101766  1.0000
  H   H12       1.0  0.14448305884107004  0.5194660498565837  0.17143721312985005  1.0000
  H   H13       1.0  0.2873769510298867  0.5080412966482047  0.7690786658787201  1.0000
  H   H14       1.0  0.9318019292144735  0.669657861137241  0.5352907464479246  1.0000
  H   H15       1.0  0.3035192417630005  0.4648892946327489  0.19359438417515262  1.0000
  H   H16       1.0  0.3681161837884881  0.33807465646262136  0.9047370844095625  1.0000
  H   H17       1.0  0.4175147478646464  0.30765022838645706  0.09800902912645215  1.0000
  H   H18       1.0  0.3964832807918186  0.5972080688242114  0.9095277263971862  1.0000
  H   H19       1.0  0.44550717682460106  0.5632787837856221  0.10274708871740157  1.0000
  Zn  Zn1       1.0  0.96702909204032  0.5628549970064447  0.4013180981841935  1.0000
  Zn  Zn2       1.0  0.16334077258328872  0.5628508601523954  0.4013132631207177  1.0000
  C   C28       1.0  0.06549608134101552  0.5597742273196151  0.6645778204658916  1.0000
  C   C29       1.0  0.0648759169818305  0.5659334516497776  0.1380536719027876  1.0000
  C   C30       1.0  0.06370689350133717  0.8263032395395802  0.3940760475215912  1.0000
  C   C31       1.0  0.0666650475958566  0.29940270679473  0.40855553153297053  1.0000
  O   O1        1.0  0.1394194054800898  0.5683993229914215  0.19173752512393039  1.0000
  O   O2        1.0  0.13994862167433952  0.5573041235743572  0.6108898888473027  1.0000
  O   O3        1.0  0.13850282715641105  0.7725296868754332  0.3924577848533213  1.0000
  O   O4        1.0  0.1408651328388799  0.3531737689171693  0.41016952099863313  1.0000
  O   O5        1.0  0.9895046647931702  0.7725320882445759  0.39246184030033837  1.0000
  O   O6        1.0  0.990950449545192  0.5573082575814876  0.6108938576024971  1.0000
  O   O7        1.0  0.9904212318694623  0.5684033891544877  0.19173976138802296  1.0000
  O   O8        1.0  0.9918669593958316  0.3531778258563172  0.41017186537606487  1.0000
