data_image0
_chemical_formula_structural       NC10NC2NH7C9N2CH8C10IC2H9Zn2C4O8
_chemical_formula_sum              "N5 C38 H24 I1 Zn2 O8"
_cell_length_a       18.145345255705053
_cell_length_b       10.29904407246008
_cell_length_c       10.299773630820606
_cell_angle_alpha    85.5262470586481
_cell_angle_beta     90.54661963795658
_cell_angle_gamma    91.05176659516724

_space_group_name_H-M_alt    "P 1"
_space_group_IT_number       1

loop_
  _space_group_symop_operation_xyz
  'x, y, z'

loop_
  _atom_site_type_symbol
  _atom_site_label
  _atom_site_symmetry_multiplicity
  _atom_site_fract_x
  _atom_site_fract_y
  _atom_site_fract_z
  _atom_site_occupancy
  N   N1        1.0  0.6943233767318052  0.44308856943226527  0.5769906319937823  1.0000
  C   C1        1.0  0.6363305253732248  0.40003444094836976  0.5570666203599077  1.0000
  C   C2        1.0  0.5642683970371903  0.3465603769402261  0.532320187289985  1.0000
  C   C3        1.0  0.5502434549985914  0.2295640023672274  0.47963380802091193  1.0000
  C   C4        1.0  0.47448163310421676  0.21577552858612958  0.4737508776362622  1.0000
  C   C5        1.0  0.4456612075854245  0.3255952306662304  0.5231228551360352  1.0000
  C   C6        1.0  0.36615974462714407  0.3533373584336936  0.5359055969541349  1.0000
  C   C7        1.0  0.3130173067615269  0.2518275081937917  0.5389187344902611  1.0000
  C   C8        1.0  0.23818169997447466  0.2781504818444738  0.5510236474594346  1.0000
  C   C9        1.0  0.2153502470402867  0.4061008954494332  0.5600941819373713  1.0000
  C   C10       1.0  0.1382836465833569  0.4330820955744361  0.572481979322206  1.0000
  N   N2        1.0  0.07632843606829999  0.45477284210409263  0.5824407679520467  1.0000
  C   C11       1.0  0.26766027367920037  0.5077567357658583  0.5569888482202252  1.0000
  C   C12       1.0  0.3425425738260676  0.4817003418068835  0.5449968213651692  1.0000
  N   N3        1.0  0.5010637675690416  0.4050012520549491  0.5586941362083218  1.0000
  H   H1        1.0  0.5903292861222873  0.16198017902840214  0.4488883859413033  1.0000
  H   H2        1.0  0.4443088099711718  0.13511023237434694  0.436109114876885  1.0000
  H   H3        1.0  0.3291049726993461  0.1517713374438361  0.5335698841231495  1.0000
  H   H4        1.0  0.19815991282530035  0.19862724931495634  0.5535845768522925  1.0000
  H   H5        1.0  0.2505679834307514  0.6072831807522541  0.5634605251954186  1.0000
  H   H6        1.0  0.3815459303285991  0.5625614548568176  0.5410038877359298  1.0000
  H   H7        1.0  0.49665310514013955  0.49348975104141685  0.6008197493725768  1.0000
  C   C13       1.0  0.8852443303084452  0.06752663904165579  0.5798320477723944  1.0000
  C   C14       1.0  0.8981839020718296  0.07767039533252994  0.4451940935247425  1.0000
  C   C15       1.0  0.9048352993595196  0.9656835625406378  0.3767878155584874  1.0000
  C   C16       1.0  0.8983690911973781  0.8424176224946155  0.44489212162947545  1.0000
  C   C17       1.0  0.8854145410144446  0.8303248951142865  0.5796106868909252  1.0000
  C   C18       1.0  0.8789334516039776  0.9433974584607082  0.6462492685351477  1.0000
  C   C19       1.0  0.9185379515508304  0.9774475129147664  0.23433737311203176  1.0000
  C   C20       1.0  0.9678370077469829  0.8949550137882262  0.17847097348980778  1.0000
  C   C21       1.0  0.979528023593253  0.908531108942703  0.04454472598687187  1.0000
  N   N4        1.0  0.9430210823555045  0.0012731322000927236  0.9698177867038016  1.0000
  N   N5        1.0  0.895950148940186  0.08013905800526389  0.02187999411474717  1.0000
  C   C22       1.0  0.8825359247739533  0.07140336710790729  0.15185238200911821  1.0000
  H   H8        1.0  0.8802368710608314  0.3911024016549569  0.6316356233703335  1.0000
  H   H9        1.0  0.9041489651020459  0.17293227665195296  0.39356271640922347  1.0000
  H   H10       1.0  0.9024242471697169  0.75572799850053  0.39240783241503313  1.0000
  H   H11       1.0  0.8689498906981157  0.9348604830529001  0.7500957954372767  1.0000
  H   H12       1.0  0.860496638140365  0.6002076386132023  0.8337465093278443  1.0000
  H   H13       1.0  0.9977725612837492  0.8219304205138516  0.23791177041896439  1.0000
  H   H14       1.0  0.01758213532855435  0.8459178730528396  0.00012968423452730806  1.0000
  H   H15       1.0  0.8432912957931643  0.13630944844681148  0.18988494817167245  1.0000
  C   C23       1.0  0.8853100179479012  0.44904333867338714  0.19835094990759486  1.0000
  C   C24       1.0  0.9596346713164451  0.48951183350872646  0.19544777727549367  1.0000
  C   C25       1.0  0.9973151252555826  0.5098979835189064  0.07684779633572814  1.0000
  C   C26       1.0  0.9596738644786509  0.48927422170168205  0.9601805641646748  1.0000
  C   C27       1.0  0.8853488417292078  0.4488082684035204  0.9610917765585106  1.0000
  C   C28       1.0  0.8485831984058744  0.4289187607331288  0.08066424508332637  1.0000
  C   C29       1.0  0.07594357313257882  0.552708871705204  0.07483007915800521  1.0000
  C   C30       1.0  0.12622682010649  0.49822800451415133  0.9921161984372269  1.0000
  C   C31       1.0  0.20021215994847008  0.538647823461871  0.9904180990976782  1.0000
  C   C32       1.0  0.22486177749045422  0.6337921888154321  0.07100684461295215  1.0000
  I   I1        1.0  0.3364981283197541  0.6945766770139925  0.06814031791929254  1.0000
  C   C33       1.0  0.17543187550289252  0.688601224864627  0.15349765001136784  1.0000
  C   C34       1.0  0.10140520241320417  0.6484313263501839  0.15559944056385833  1.0000
  H   H16       1.0  0.8569794542118111  0.4336796290786999  0.5269059265796807  1.0000
  H   H17       1.0  0.9886815537420762  0.5035533754694493  0.28577146469696135  1.0000
  H   H18       1.0  0.9881830347131874  0.5065699154630829  0.8683801160034874  1.0000
  H   H19       1.0  0.7912449558484353  0.39770019577755034  0.08213550100976219  1.0000
  H   H20       1.0  0.857036766256762  0.4333335533262889  0.6339899210470787  1.0000
  H   H21       1.0  0.10854292403078314  0.4232204826186381  0.9300475467481659  1.0000
  H   H22       1.0  0.23838029236055625  0.49572565034409344  0.926667115077569  1.0000
  H   H23       1.0  0.19428345724553164  0.7625697038073851  0.2157846317562857  1.0000
  H   H24       1.0  0.06389681706341242  0.6933878190341256  0.21908517205457056  1.0000
  Zn  Zn1       1.0  0.8045617885370105  0.44645690450989844  0.5785709307616946  1.0000
  Zn  Zn2       1.0  0.9660900219353564  0.45139382643795994  0.5808711326781506  1.0000
  C   C35       1.0  0.8853387101596153  0.44367846586790316  0.8169189336906059  1.0000
  C   C36       1.0  0.8853148645681957  0.45417395772262714  0.34252328185882197  1.0000
  C   C37       1.0  0.8853783075716029  0.6861412967080092  0.5744773037918156  1.0000
  C   C38       1.0  0.8852752116932455  0.21170956472986166  0.5849649806644006  1.0000
  O   O1        1.0  0.9466156126371029  0.45776371022233925  0.3917817497759932  1.0000
  O   O2        1.0  0.9466341534934831  0.4438347431812364  0.7694058922417584  1.0000
  O   O3        1.0  0.946665302631696  0.6396265197732252  0.573632548624396  1.0000
  O   O4        1.0  0.9465844083773614  0.2619719412668083  0.5875549952307013  1.0000
  O   O5        1.0  0.8240673469733467  0.6358787879977373  0.5718870674173662  1.0000
  O   O6        1.0  0.8240361981764381  0.4400885718750942  0.7676603413361622  1.0000
  O   O7        1.0  0.8240176572794888  0.45401749413883596  0.390034637477336  1.0000
  O   O8        1.0  0.8239864530196177  0.25822571586353416  0.5858079803029206  1.0000
