data_image0
_chemical_formula_structural       NC9NC3NH7C6NCOCH7C7NC2NH8Zn2C4O8
_chemical_formula_sum              "N6 C33 H22 O9 Zn2"
_cell_length_a       16.053384444249904
_cell_length_b       10.300268703208214
_cell_length_c       9.27399911348925
_cell_angle_alpha    85.0628393421283
_cell_angle_beta     89.45501548333611
_cell_angle_gamma    89.1549403880511

_space_group_name_H-M_alt    "P 1"
_space_group_IT_number       1

loop_
  _space_group_symop_operation_xyz
  'x, y, z'

loop_
  _atom_site_type_symbol
  _atom_site_label
  _atom_site_symmetry_multiplicity
  _atom_site_fract_x
  _atom_site_fract_y
  _atom_site_fract_z
  _atom_site_occupancy
  N   N1        1.0  0.7895533718507289  0.41625978401912034  0.4046242444063999  1.0000
  C   C1        1.0  0.7390890018619809  0.39609430186087846  0.3214401334739256  1.0000
  C   C2        1.0  0.6763754460490518  0.3710382990778156  0.21810518945395274  1.0000
  C   C3        1.0  0.6904949612948418  0.36008868090549395  0.07281113047228405  1.0000
  C   C4        1.0  0.614076168069315  0.3352135880327627  0.014737608717056098  1.0000
  C   C5        1.0  0.5565926726917608  0.33237232432229474  0.12773335867561264  1.0000
  C   C6        1.0  0.4659847788375437  0.3086406326366353  0.11634534903887307  1.0000
  C   C7        1.0  0.4097203685906033  0.3505411741533238  0.22071146623821744  1.0000
  C   C8        1.0  0.3242144422698205  0.3280347081113686  0.20980390429535872  1.0000
  C   C9        1.0  0.2671605046195104  0.3716595555304726  0.31680610450288627  1.0000
  N   N2        1.0  0.2213058607341002  0.40672779397773967  0.4028191164957591  1.0000
  C   C10       1.0  0.2942468692260547  0.26351560444534045  0.09454546259326646  1.0000
  C   C11       1.0  0.3495018917165817  0.22173284495648943  0.990414589389812  1.0000
  C   C12       1.0  0.4348034051244202  0.24407701435185827  0.0008813977944772662  1.0000
  N   N3        1.0  0.5953498263542487  0.3543811882585026  0.25171312434904664  1.0000
  H   H1        1.0  0.7494247030809594  0.3691683941827093  0.01544617258394321  1.0000
  H   H2        1.0  0.6022055210845008  0.32231348050084496  0.902293479817744  1.0000
  H   H3        1.0  0.4317213422891632  0.4023088141948936  0.30939758622816615  1.0000
  H   H4        1.0  0.2282608851175686  0.24562263173440904  0.08517376460583814  1.0000
  H   H5        1.0  0.3262111046540395  0.17160889107155766  0.9014685669774187  1.0000
  H   H6        1.0  0.4762105183948043  0.2092664107257847  0.9194754325292078  1.0000
  H   H7        1.0  0.5688308720406767  0.3559488162448823  0.35480374527610126  1.0000
  C   C13       1.0  0.005518202000605712  0.0301441397258835  0.4037298282034727  1.0000
  C   C14       1.0  0.020072266717764627  0.04038554696892427  0.2536338931096051  1.0000
  C   C15       1.0  0.028541472725763798  0.9282183311166708  0.17830402464670336  1.0000
  C   C16       1.0  0.019883678386211533  0.8052299092607781  0.2536706888676601  1.0000
  C   C17       1.0  0.0053489296653466125  0.7928332331842742  0.40372594452686184  1.0000
  C   C18       1.0  0.998556253245124  0.9058899948068879  0.47804969376808715  1.0000
  N   N4        1.0  0.042146358816901104  0.937144929981098  0.024274940229310312  1.0000
  C   C19       1.0  0.09131749068181638  0.03577524419189371  0.946514814637117  1.0000
  O   O1        1.0  0.1381319713942124  0.1072144305729632  0.012969505427257168  1.0000
  C   C20       1.0  0.09190053110864449  0.047916351857315576  0.7848274419758559  1.0000
  H   H8        1.0  0.02317286093681203  0.13562681949754454  0.19490379391755863  1.0000
  H   H9        1.0  0.025255682850522824  0.7192124154025252  0.19456693545103548  1.0000
  H   H10       1.0  0.9873538216869033  0.8971812388265508  0.5938203830913323  1.0000
  H   H11       1.0  0.01939592915631438  0.8626779741855621  0.9663769995620184  1.0000
  H   H12       1.0  0.02827779990334145  0.03260682780532754  0.744173205025067  1.0000
  H   H13       1.0  0.1126974970354091  0.14644720285230292  0.7426543844432238  1.0000
  H   H14       1.0  0.13503595518355227  0.9735501154854311  0.7449155491998027  1.0000
  C   C21       1.0  0.006871660165111097  0.4147805040634283  0.9798704742144575  1.0000
  C   C22       1.0  0.07228259350097432  0.3511534826854834  0.05808189314991896  1.0000
  C   C23       1.0  0.13218091508919083  0.2784030321377136  0.9891797219029206  1.0000
  C   C24       1.0  0.1282783050429399  0.26677788582731804  0.8398997143120368  1.0000
  C   C25       1.0  0.06412070877607134  0.33257027517645193  0.7601243980398986  1.0000
  C   C26       1.0  0.003995485049831601  0.40819684930677835  0.8275852705686673  1.0000
  C   C27       1.0  0.19223129768688074  0.18769927845748513  0.7689372430740162  1.0000
  N   N5        1.0  0.262005445679804  0.14078489020739476  0.8366846094690921  1.0000
  C   C28       1.0  0.30234957542481755  0.07491687786959655  0.7371933231705499  1.0000
  C   C29       1.0  0.25684157086949844  0.08239352335343342  0.6118414747186439  1.0000
  N   N6        1.0  0.1875850812779929  0.15326452543751798  0.6319636804948083  1.0000
  H   H15       1.0  0.9181539681278533  0.5806513704828096  0.2468175979444107  1.0000
  H   H16       1.0  0.07605558502684517  0.35493464538958075  0.1742172471280583  1.0000
  H   H17       1.0  0.1810477496029821  0.22948451416954696  0.05370342360216896  1.0000
  H   H18       1.0  0.062060729648860447  0.32910200810544193  0.6440280357466506  1.0000
  H   H19       1.0  0.8739944728736406  0.4843603858162161  0.5423662189811425  1.0000
  H   H20       1.0  0.3612939640484696  0.02418999342223696  0.7553156182246268  1.0000
  H   H21       1.0  0.27284222443430406  0.03867801611141086  0.5130821600779774  1.0000
  H   H22       1.0  0.14044999216480059  0.173988775108614  0.5564552301524603  1.0000
  Zn  Zn1       1.0  0.9141477840199217  0.41350552956903736  0.40411165112085956  1.0000
  Zn  Zn2       1.0  0.09671138742820157  0.4094713769467866  0.4033435066218143  1.0000
  C   C30       1.0  0.004538432534687326  0.4042679235887559  0.6673490910420738  1.0000
  C   C31       1.0  0.0063227316580218886  0.4187105763102825  0.1401061999717279  1.0000
  C   C32       1.0  0.005396163883597767  0.648713505606628  0.39797496871006954  1.0000
  C   C33       1.0  0.005464938098074465  0.1742634348480885  0.40948039952630094  1.0000
  O   O2        1.0  0.07542044354903932  0.4184929391086234  0.19359126650186664  1.0000
  O   O3        1.0  0.07400227302345042  0.4014227558482648  0.6132806051193717  1.0000
  O   O4        1.0  0.07469396288946073  0.5988156637458523  0.395759099392531  1.0000
  O   O5        1.0  0.07472869175156238  0.22110004271786973  0.4111126642675458  1.0000
  O   O6        1.0  0.9361304173965882  0.6018768651760851  0.39634249372966535  1.0000
  O   O7        1.0  0.9354387274416426  0.40448551810095046  0.6138639224884752  1.0000
  O   O8        1.0  0.9368569039205001  0.4215556695838279  0.19417284851383454  1.0000
  O   O9        1.0  0.9361651517545172  0.22416276306437147  0.4116943544952132  1.0000
