data_image0
_chemical_formula_structural       NC5NC4H6C6NH7C6IH3Zn2C4O8
_chemical_formula_sum              "N3 C25 H16 I1 Zn2 O8"
_cell_length_a       13.854160002989762
_cell_length_b       9.274771166103582
_cell_length_c       9.275433903346867
_cell_angle_alpha    86.06373460888793
_cell_angle_beta     89.96562887878927
_cell_angle_gamma    90.59704847255895

_space_group_name_H-M_alt    "P 1"
_space_group_IT_number       1

loop_
  _space_group_symop_operation_xyz
  'x, y, z'

loop_
  _atom_site_type_symbol
  _atom_site_label
  _atom_site_symmetry_multiplicity
  _atom_site_fract_x
  _atom_site_fract_y
  _atom_site_fract_z
  _atom_site_occupancy
  N   N1        1.0  0.9204427636258231  0.5617183148111194  0.4076870731070359  1.0000
  C   C1        1.0  0.8483053315359705  0.5863067274581013  0.34861989008013516  1.0000
  C   C2        1.0  0.7585653532962995  0.6168953726942836  0.27513805324519214  1.0000
  C   C3        1.0  0.6707649361779672  0.58816967968562  0.34688445068191176  1.0000
  C   C4        1.0  0.5834229410326215  0.6168953867797937  0.2751380300563533  1.0000
  C   C5        1.0  0.4931971891136271  0.5863065810875735  0.348619981931678  1.0000
  N   N2        1.0  0.42066919258495267  0.561718251302328  0.40768707313623764  1.0000
  C   C6        1.0  0.5839182224562353  0.6749534829471415  0.13166309254446884  1.0000
  C   C7        1.0  0.6717009439622799  0.705828570931631  0.059809377814255216  1.0000
  C   C8        1.0  0.6721690205998571  0.7640056873710637  0.9048499042570319  1.0000
  C   C9        1.0  0.758995311512203  0.6749534806616919  0.13166300230718098  1.0000
  H   H1        1.0  0.6704061259862389  0.543122529559271  0.45793162074315924  1.0000
  H   H2        1.0  0.5162154905369227  0.6961520010215609  0.07599751906233765  1.0000
  H   H3        1.0  0.7375066895804859  0.831925138888358  0.8809490867531489  1.0000
  H   H4        1.0  0.607798211913607  0.831925141457561  0.8809491518067887  1.0000
  H   H5        1.0  0.671560814923327  0.6727049278525499  0.833491395176229  1.0000
  H   H6        1.0  0.8270384504317743  0.6961521126162011  0.07599743346726195  1.0000
  C   C10       1.0  0.16759698789872152  0.13813008463684096  0.40847250280187963  1.0000
  C   C11       1.0  0.1454279181516558  0.2200678186124294  0.2796143323282161  1.0000
  C   C12       1.0  0.13227108932448473  0.15363871566985243  0.14993861325656987  1.0000
  C   C13       1.0  0.14133423905749698  0.0038844123074399687  0.14818181132067942  1.0000
  C   C14       1.0  0.16171901428292054  0.9206084166764393  0.2752698471790096  1.0000
  C   C15       1.0  0.17352414405435443  0.9852955425172053  0.40691419102538795  1.0000
  N   N3        1.0  0.11069551204255254  0.2386608792320624  0.019664216881411175  1.0000
  H   H7        1.0  0.27612248245943594  0.22114569428673755  0.723828093140805  1.0000
  H   H8        1.0  0.14056129624147284  0.33665463816178676  0.2790608231209408  1.0000
  H   H9        1.0  0.13166822510390871  0.9513356363397775  0.048409428543090716  1.0000
  H   H10       1.0  0.1659741269395089  0.8044004925082104  0.2711430404500281  1.0000
  H   H11       1.0  0.24270757352524508  0.6905120186652671  0.6214676493437163  1.0000
  H   H12       1.0  0.1040452206440845  0.35073428341861784  0.019617414699225618  1.0000
  H   H13       1.0  0.10111959351879984  0.19015452416725484  0.9222615468961926  1.0000
  C   C16       1.0  0.17069847850913025  0.557210647957056  0.9845492855792758  1.0000
  C   C17       1.0  0.25959318035480083  0.5545102025015749  0.05800912178060247  1.0000
  C   C18       1.0  0.3466222863449928  0.5651018966491561  0.9818709006992532  1.0000
  C   C19       1.0  0.3461519040183698  0.5787307998490238  0.8313001869737633  1.0000
  C   C20       1.0  0.2588773652056304  0.5792509092283071  0.756323840072433  1.0000
  C   C21       1.0  0.1704226284815193  0.5662148959610604  0.8308373458855711  1.0000
  I   I1        1.0  0.478821876050893  0.56318700956504  0.09465882147888682  1.0000
  H   H14       1.0  0.941206233075725  0.6426667958816973  0.08188169267359746  1.0000
  H   H15       1.0  0.41353266729350247  0.5875484244160587  0.7720730379559653  1.0000
  H   H16       1.0  0.015390650522151274  0.6176833968197  0.5462671385121847  1.0000
  Zn  Zn1       1.0  0.06479728135647232  0.5617145232255518  0.40769541033727075  1.0000
  Zn  Zn2       1.0  0.27631458958722765  0.5617103649701767  0.40769059171404076  1.0000
  C   C22       1.0  0.1704324192140176  0.5587665075334023  0.6708813771838407  1.0000
  C   C23       1.0  0.1706817741796911  0.5646602021441938  0.14450476289607916  1.0000
  C   C24       1.0  0.17240067691297237  0.825102112803375  0.40146666058726477  1.0000
  C   C25       1.0  0.16871343215454573  0.2983228646575782  0.4139195595052061  1.0000
  O   O1        1.0  0.25094584016763655  0.5671524695799361  0.19818546522829883  1.0000
  O   O2        1.0  0.2507050885176514  0.5562699914823019  0.6171966048326625  1.0000
  O   O3        1.0  0.2522933989390479  0.7713393769740748  0.3996423122928259  1.0000
  O   O4        1.0  0.2493574576771195  0.3520830932587459  0.4157396497097141  1.0000
  O   O5        1.0  0.09175434108611744  0.7713417949398917  0.39964635233565904  1.0000
  O   O6        1.0  0.09016604281044847  0.5562741416676709  0.6172005648570063  1.0000
  O   O7        1.0  0.09040679473761766  0.5671565510666003  0.19818769290866745  1.0000
  O   O8        1.0  0.08881841213575825  0.35208716557773645  0.4157419854425666  1.0000
