data_image0
_chemical_formula_structural       NC9NC3NH7C7OCH10C6NO2H3Zn2C4O8
_chemical_formula_sum              "N4 C30 H20 O11 Zn2"
_cell_length_a       16.053384444249904
_cell_length_b       10.30083208314754
_cell_length_c       9.273395971720356
_cell_angle_alpha    84.94403115029091
_cell_angle_beta     89.67931749283619
_cell_angle_gamma    89.16926536021816

_space_group_name_H-M_alt    "P 1"
_space_group_IT_number       1

loop_
  _space_group_symop_operation_xyz
  'x, y, z'

loop_
  _atom_site_type_symbol
  _atom_site_label
  _atom_site_symmetry_multiplicity
  _atom_site_fract_x
  _atom_site_fract_y
  _atom_site_fract_z
  _atom_site_occupancy
  N   N1        1.0  0.7861505572132296  0.4188055190289841  0.4037854095940657  1.0000
  C   C1        1.0  0.7354935911764034  0.39877546511813966  0.32059286623596994  1.0000
  C   C2        1.0  0.6725407832246544  0.37388769739156075  0.21724744917506844  1.0000
  C   C3        1.0  0.6863278162762749  0.3631739308680073  0.07192954622246872  1.0000
  C   C4        1.0  0.6097728231860492  0.33839369397500585  0.013854192239690647  1.0000
  C   C5        1.0  0.5525460678130288  0.33536933269328784  0.1268727507383005  1.0000
  C   C6        1.0  0.461908423170769  0.31165678174170774  0.11549146223837758  1.0000
  C   C7        1.0  0.4058883304436572  0.3533869342650253  0.21986192501416582  1.0000
  C   C8        1.0  0.3203539446374102  0.33089879501663844  0.20896071652443718  1.0000
  C   C9        1.0  0.2635506029583226  0.37434893068309294  0.3159671219638396  1.0000
  N   N2        1.0  0.21789739910126346  0.4092767282219505  0.40198351404435106  1.0000
  C   C10       1.0  0.2901136111822482  0.2665683856454373  0.0937043277279348  1.0000
  C   C11       1.0  0.3451248706170827  0.22495563042046607  0.9895691099789632  1.0000
  C   C12       1.0  0.4304538140863906  0.2472821921805555  2.954107468444751e-05  1.0000
  N   N3        1.0  0.5915889731906756  0.3571765812213632  0.2508681060600886  1.0000
  H   H1        1.0  0.7451284503903143  0.372346379277811  0.014550140903310863  1.0000
  H   H2        1.0  0.5976441515590342  0.3256762404767235  0.9013932725219505  1.0000
  H   H3        1.0  0.4280995234672971  0.4050093218543327  0.30854566805749317  1.0000
  H   H4        1.0  0.2241034079802751  0.2486911178261877  0.08433754613762412  1.0000
  H   H5        1.0  0.3216235378910097  0.1749773032575148  0.9006247972281813  1.0000
  H   H6        1.0  0.471670015364735  0.21260455354129285  0.9186209854106052  1.0000
  H   H7        1.0  0.5653049245132584  0.3585770427394557  0.35397797394601205  1.0000
  C   C13       1.0  0.002051043033873154  0.0327023798439905  0.40303582487332856  1.0000
  C   C14       1.0  0.9790247692299388  0.04400295916808906  0.2565434041827188  1.0000
  C   C15       1.0  0.9664575449746295  0.9325633632736635  0.18321860906319754  1.0000
  C   C16       1.0  0.978965056993985  0.808748926371387  0.25616222062548344  1.0000
  C   C17       1.0  0.002004880199186762  0.795369615986745  0.40274555910705595  1.0000
  C   C18       1.0  0.013217238589617875  0.9078984879062562  0.4754058297477839  1.0000
  C   C19       1.0  0.9442096961173625  0.9458091060699765  0.025402462227557713  1.0000
  O   O1        1.0  0.018295418827810824  0.9508650407825283  0.942564924498833  1.0000
  C   C20       1.0  0.9982492559167669  0.9633311687905969  0.794122962127656  1.0000
  H   H8        1.0  0.011817067524536819  0.3557860951051328  0.45870822971007846  1.0000
  H   H9        1.0  0.9707867685244691  0.13941221046546673  0.1988652568290268  1.0000
  H   H10       1.0  0.9706853067513592  0.7230141456024057  0.19822239394602997  1.0000
  H   H11       1.0  0.030983180151546774  0.8984200200541907  0.5883828579417543  1.0000
  H   H12       1.0  0.04638197627831708  0.5628949584864592  0.6788198645488721  1.0000
  H   H13       1.0  0.9058808852094704  0.03615297515874239  0.001428321604482138  1.0000
  H   H14       1.0  0.9059147017731015  0.8610658726316601  0.0010971558376211535  1.0000
  H   H15       1.0  0.05700879923391478  0.967168148425417  0.7304680506370609  1.0000
  H   H16       1.0  0.9627981357015212  0.055304554892275704  0.7641656157211116  1.0000
  H   H17       1.0  0.9628130126636404  0.8778255727812224  0.7638078118495253  1.0000
  C   C21       1.0  0.0025017913754958815  0.41801485544543815  0.9789504680379887  1.0000
  C   C22       1.0  0.9282482197874077  0.4492934624360685  0.04983577788958528  1.0000
  C   C23       1.0  0.8537622032031035  0.46829837662916507  0.9737106120781687  1.0000
  C   C24       1.0  0.8514166139541545  0.45642002759660666  0.8244303076729889  1.0000
  C   C25       1.0  0.9256255317204524  0.42736750376482147  0.7521066587119036  1.0000
  C   C26       1.0  0.001554082683135279  0.4100571403415627  0.8268309114407373  1.0000
  N   N4        1.0  0.7741855076318336  0.4750527672799143  0.7466086789539635  1.0000
  O   O2        1.0  0.7017855437999174  0.5045584327227679  0.8176748062970113  1.0000
  O   O3        1.0  0.7715330213037837  0.4644095575242926  0.6136282833719183  1.0000
  H   H18       1.0  0.18480466191718237  0.2685129342260648  0.09466698581883337  1.0000
  H   H19       1.0  0.7976942414494272  0.49106855544955175  0.03231939471246448  1.0000
  H   H20       1.0  0.12585184341161737  0.31316613123694736  0.5548987379908681  1.0000
  Zn  Zn1       1.0  0.9107433581674115  0.41605217440979714  0.4032737520253171  1.0000
  Zn  Zn2       1.0  0.09330456214000726  0.4120193825416283  0.4025069747310604  1.0000
  C   C27       1.0  0.0017316914101672667  0.4063880951835661  0.6665653106102094  1.0000
  C   C28       1.0  0.0023182222023143675  0.42168505488940555  0.13921554884455345  1.0000
  C   C29       1.0  0.00201572596423216  0.6512633642944838  0.3970475578114235  1.0000
  C   C30       1.0  0.0020341253613334067  0.17680822625362858  0.40873337946640675  1.0000
  O   O4        1.0  0.07153764053586964  0.4213807185623782  0.19271098817212295  1.0000
  O   O5        1.0  0.07107200323692409  0.40363066005082215  0.6124874898536282  1.0000
  O   O6        1.0  0.07130042911225543  0.6013705432705403  0.39485000099456424  1.0000
  O   O7        1.0  0.07130915248518943  0.2236408470241811  0.4103483690449329  1.0000
  O   O8        1.0  0.932738705523058  0.6044307113049237  0.39543235796551457  1.0000
  O   O9        1.0  0.9325102796354724  0.406692388987743  0.6130697692555804  1.0000
  O   O10       1.0  0.9329759189325759  0.42444241853593795  0.1932915318949733  1.0000
  O   O11       1.0  0.9327474307580738  0.22670253669389862  0.4109290210081078  1.0000
