data_image0
_chemical_formula_structural       NC9NC4H8C7NC2NH8C8NH11Zn2C4O8
_chemical_formula_sum              "N5 C34 H27 Zn2 O8"
_cell_length_a       16.32274767691083
_cell_length_b       9.273995741505848
_cell_length_c       9.275652972338536
_cell_angle_alpha    86.07888925788727
_cell_angle_beta     89.90519038886141
_cell_angle_gamma    90.10890436374608

_space_group_name_H-M_alt    "P 1"
_space_group_IT_number       1

loop_
  _space_group_symop_operation_xyz
  'x, y, z'

loop_
  _atom_site_type_symbol
  _atom_site_label
  _atom_site_symmetry_multiplicity
  _atom_site_fract_x
  _atom_site_fract_y
  _atom_site_fract_z
  _atom_site_occupancy
  N   N1        1.0  0.7736053439288756  0.5573013079159472  0.4021757632678525  1.0000
  C   C1        1.0  0.7207112596467417  0.5042282092417921  0.3417934501332567  1.0000
  C   C2        1.0  0.6549639142507532  0.4383110074086349  0.26679813441164124  1.0000
  C   C3        1.0  0.6655677760225343  0.34814800681816327  0.16421312466068838  1.0000
  C   C4        1.0  0.5857391161498752  0.30414801034501693  0.11415504174137327  1.0000
  C   C5        1.0  0.5274837898826281  0.3685410456762628  0.18742221097067446  1.0000
  C   C6        1.0  0.4373672109074451  0.3515225710513443  0.16806227257322615  1.0000
  C   C7        1.0  0.38256115811916397  0.4265767582962604  0.2534516847587929  1.0000
  C   C8        1.0  0.2976995803480438  0.41203195007015725  0.23690545516831632  1.0000
  C   C9        1.0  0.242505880446674  0.4893934354478442  0.3249190430622959  1.0000
  N   N2        1.0  0.19814895135116034  0.5515793367726302  0.3956670618162751  1.0000
  C   C10       1.0  0.2665897426166755  0.32231157350707784  0.1348324085626018  1.0000
  C   C11       1.0  0.32007492490300465  0.24735680351537437  0.04955647965793975  1.0000
  C   C12       1.0  0.4047735830624455  0.2615098406890688  0.06565685649708097  1.0000
  C   C13       1.0  0.5662259474006185  0.46243315651600597  0.2942472166125243  1.0000
  H   H1        1.0  0.7241063269006406  0.3130878510541284  0.12432014609019461  1.0000
  H   H2        1.0  0.5766683703241337  0.2304579009831284  0.030312236110660258  1.0000
  H   H3        1.0  0.4054106190588316  0.49661863826485547  0.3331370237600273  1.0000
  H   H4        1.0  0.2010719094714138  0.31032966635167303  0.12120199666368593  1.0000
  H   H5        1.0  0.2958360983549828  0.1779497288670111  0.9705936301149891  1.0000
  H   H6        1.0  0.4439239112951098  0.20155085240438098  0.9974420402265984  1.0000
  H   H7        1.0  0.5497164431873186  0.4245970059239254  0.4068024531070398  1.0000
  H   H8        1.0  0.5500089676784308  0.5778207751952202  0.26992798965758924  1.0000
  C   C14       1.0  0.9834265422794048  0.13097733787135324  0.3979060382553681  1.0000
  C   C15       1.0  0.997244521671324  0.213159907643655  0.26734275783536865  1.0000
  C   C16       1.0  0.018416098234810496  0.14692868447786525  0.14207308594199075  1.0000
  C   C17       1.0  0.026659971732591933  0.9963837262328767  0.14378406764207097  1.0000
  C   C18       1.0  0.011116628877027246  0.9129388685452213  0.27317975779856063  1.0000
  C   C19       1.0  0.9883355935594844  0.9778920907286411  0.3999490813813509  1.0000
  C   C20       1.0  0.05009009584116585  0.9281792517164378  0.009481361758791218  1.0000
  N   N3        1.0  0.05250629533967685  0.0015596614068964475  0.8784695928784224  1.0000
  C   C21       1.0  0.07668497739077917  0.9027430438423081  0.7874460782601439  1.0000
  C   C22       1.0  0.0887056189117581  0.772175778412627  0.8637805455609354  1.0000
  N   N4        1.0  0.07201525154163191  0.7883269755048422  0.003400564342124879  1.0000
  H   H9        1.0  0.9178931840029676  0.39784275797889634  0.6063562278508678  1.0000
  H   H10       1.0  0.9936599179301024  0.3300211633685237  0.26274884477938243  1.0000
  H   H11       1.0  0.029553225074982134  0.21432693578583817  0.04398679599904787  1.0000
  H   H12       1.0  0.013899207587598989  0.7963525549141877  0.27513459132450313  1.0000
  H   H13       1.0  0.9904468147349018  0.6814279421949548  0.6396133624324778  1.0000
  H   H14       1.0  0.08525000158921524  0.9248845030233176  0.6723958913552925  1.0000
  H   H15       1.0  0.10863977501286093  0.6725112724137531  0.8207458552826822  1.0000
  H   H16       1.0  0.0768327352054563  0.7082819756466139  0.08758068026949208  1.0000
  C   C23       1.0  0.9840410863043979  0.5516488015795937  0.9756780166466466  1.0000
  C   C24       1.0  0.9314529438998608  0.6466920066478823  0.04286730821222994  1.0000
  C   C25       1.0  0.8853817994011087  0.750062715780729  0.9611305614007436  1.0000
  C   C26       1.0  0.8907841939943878  0.7570158900281896  0.8102799331334787  1.0000
  C   C27       1.0  0.9415690171048778  0.6620611854374469  0.7417103714799098  1.0000
  C   C28       1.0  0.9877210734099995  0.5572206894809695  0.8221771221639808  1.0000
  C   C29       1.0  0.8284576191551143  0.849492386034217  0.03479375142809005  1.0000
  C   C30       1.0  0.7438196177002191  0.7801704133234026  0.05670246653190448  1.0000
  N   N5        1.0  0.6888235573359375  0.8783707063641194  0.12599725239978032  1.0000
  H   H17       1.0  0.04284416070239949  0.3365910143878821  0.27084785986577176  1.0000
  H   H18       1.0  0.9275330340668158  0.6427325155142875  0.15974490013782172  1.0000
  H   H19       1.0  0.8549098964077877  0.8351780625383163  0.7454410001452887  1.0000
  H   H20       1.0  0.9430839185485946  0.6682344710067394  0.6246827635805285  1.0000
  H   H21       1.0  0.0992978908717086  0.4236306991468835  0.5496560461957039  1.0000
  H   H22       1.0  0.8542591986891782  0.8744847458844238  0.1411758655516986  1.0000
  H   H23       1.0  0.8225028009293565  0.9536907475313846  0.9688359509050272  1.0000
  H   H24       1.0  0.7180678690856398  0.7563361035966008  0.9499053320995969  1.0000
  H   H25       1.0  0.7490037227682776  0.6768121402468619  0.1245573335654564  1.0000
  H   H26       1.0  0.6306824606470548  0.8307255546519055  0.13117032015907304  1.0000
  H   H27       1.0  0.7080480909048606  0.8853298012212207  0.23284050211987298  1.0000
  Zn  Zn1       1.0  0.8961194783426651  0.5556462551313543  0.40030580690022366  1.0000
  Zn  Zn2       1.0  0.0756348058502947  0.5532226340310381  0.39754879717645664  1.0000
  C   C31       1.0  0.9869903292974089  0.550422770776543  0.6621568423800757  1.0000
  C   C32       1.0  0.9847659263587724  0.5584479123352324  0.1356978774437969  1.0000
  C   C33       1.0  0.9873784923383265  0.8177694690751862  0.39381949897529545  1.0000
  C   C34       1.0  0.9843776923534938  0.2910994828466351  0.4040352944520489  1.0000
  O   O1        1.0  0.053134284073963915  0.559803713334597  0.18835571852844013  1.0000
  O   O2        1.0  0.05486994334922432  0.5472264068493353  0.6074060771830946  1.0000
  O   O3        1.0  0.05518247806955023  0.7631122690493133  0.3907217915740595  1.0000
  O   O4        1.0  0.05282168768720962  0.3439178615659455  0.4050398970351168  1.0000
  O   O5        1.0  0.9189325352459554  0.7649510284250294  0.3928147079748181  1.0000
  O   O6        1.0  0.9186200102301958  0.5490668982435885  0.6094989209136366  1.0000
  O   O7        1.0  0.9168843431848921  0.5616441430707781  0.19044682926849976  1.0000
  O   O8        1.0  0.916571747204772  0.3457582816993828  0.40713111581079003  1.0000
