data_image0
_chemical_formula_structural       NC11NC3H8C12NCOCH13C12OCH12Zn2C4O8
_chemical_formula_sum              "N3 C45 H33 O10 Zn2"
_cell_length_a       17.807433833752565
_cell_length_b       10.299155265289649
_cell_length_c       10.299794127170987
_cell_angle_alpha    85.56075829467142
_cell_angle_beta     88.5176554422573
_cell_angle_gamma    90.66237101144993

_space_group_name_H-M_alt    "P 1"
_space_group_IT_number       1

loop_
  _space_group_symop_operation_xyz
  'x, y, z'

loop_
  _atom_site_type_symbol
  _atom_site_label
  _atom_site_symmetry_multiplicity
  _atom_site_fract_x
  _atom_site_fract_y
  _atom_site_fract_z
  _atom_site_occupancy
  N   N1        1.0  0.7071921280969277  0.4381425290577779  0.5343349724128614  1.0000
  C   C1        1.0  0.6563759535612532  0.4034330235747379  0.6009034911553279  1.0000
  C   C2        1.0  0.5931555067378954  0.3602572589233033  0.6837062338240019  1.0000
  C   C3        1.0  0.6048886079074614  0.2967388249459677  0.8064358976487983  1.0000
  C   C4        1.0  0.5435753336985597  0.25524227709920894  0.8869543665146463  1.0000
  C   C5        1.0  0.47037463784407896  0.2769510618574418  0.845384020861757  1.0000
  C   C6        1.0  0.4576647393442992  0.3406239224933063  0.7221941406457879  1.0000
  C   C7        1.0  0.37989571307301284  0.3636620991204751  0.6778429195937294  1.0000
  C   C8        1.0  0.3611242861699655  0.34675068533534614  0.5482735833204635  1.0000
  C   C9        1.0  0.2878936591763475  0.3684207265788633  0.5066591788864685  1.0000
  C   C10       1.0  0.23249136874193588  0.4073204894466413  0.5937937904884178  1.0000
  C   C11       1.0  0.1571239643528584  0.4296486398418598  0.5508179798239441  1.0000
  N   N2        1.0  0.0965339448272215  0.4475988139420095  0.5162685558298978  1.0000
  C   C12       1.0  0.2505712204946736  0.4244423382345208  0.7228319616533618  1.0000
  C   C13       1.0  0.3237490767984934  0.4027374396994042  0.764701792252136  1.0000
  C   C14       1.0  0.5198353253717507  0.38211590992674827  0.6416920880378443  1.0000
  H   H1        1.0  0.6613560502549473  0.27933299306243037  0.8398045287230996  1.0000
  H   H2        1.0  0.552778121605835  0.20581454764881896  0.9816992853805839  1.0000
  H   H3        1.0  0.4237388327432917  0.2424113776544408  0.9088293641307806  1.0000
  H   H4        1.0  0.4028140688693494  0.3150865915269754  0.47956910402835096  1.0000
  H   H5        1.0  0.2744617459681574  0.35450970540224186  0.40663340283959837  1.0000
  H   H6        1.0  0.20816495662254766  0.4548831741307471  0.7910220313326392  1.0000
  H   H7        1.0  0.33665222987625315  0.418193917447375  0.8645444018160173  1.0000
  H   H8        1.0  0.5113307002797738  0.43290614984410225  0.5471811022766642  1.0000
  C   C15       1.0  0.9019505268630525  0.06147534222610206  0.5254163802556919  1.0000
  C   C16       1.0  0.8891263954835579  0.07083651638522956  0.39109313851900684  1.0000
  C   C17       1.0  0.8825515394504454  0.9584433547631666  0.32287408328403955  1.0000
  C   C18       1.0  0.888946786398912  0.8355723218825043  0.39079370370556443  1.0000
  C   C19       1.0  0.901782751596072  0.8242562179261415  0.5251979827328181  1.0000
  C   C20       1.0  0.9082089411332797  0.9377229582319214  0.5916817169677875  1.0000
  C   C21       1.0  0.8689860843426492  0.969320038521148  0.18077626993837592  1.0000
  C   C22       1.0  0.9070912268386687  0.06433987464369229  0.09759464290591424  1.0000
  C   C23       1.0  0.8943314214236291  0.07444482349801906  0.9638708445445844  1.0000
  C   C24       1.0  0.8436784791721044  0.9888609039079952  0.9104735502423815  1.0000
  C   C25       1.0  0.804655681144724  0.895635051592543  0.9936296028785292  1.0000
  C   C26       1.0  0.8174428511204828  0.8852747403476265  0.12731479788961386  1.0000
  N   N3        1.0  0.8285012611354907  0.9987052866733359  0.7736237628482212  1.0000
  C   C27       1.0  0.8833625210397568  0.03695427501775894  0.6728653333773189  1.0000
  O   O1        1.0  0.9522803862238991  0.04116812613628817  0.6975243635443511  1.0000
  C   C28       1.0  0.8594050611213049  0.0627909479350679  0.5354441890464607  1.0000
  H   H9        1.0  0.9069065557373481  0.38535138633073784  0.5770760685486351  1.0000
  H   H10       1.0  0.8831860235470913  0.16572678533329555  0.33956178833596384  1.0000
  H   H11       1.0  0.8849090319616844  0.7486644561104446  0.33835529778452966  1.0000
  H   H12       1.0  0.9181029907532412  0.9297876852093943  0.695287477563939  1.0000
  H   H13       1.0  0.9264598244757934  0.5956252460260817  0.7787273424614696  1.0000
  H   H14       1.0  0.9472045850698034  0.13037067075459707  0.1358235568606876  1.0000
  H   H15       1.0  0.923156081721666  0.15058841662160297  0.9029559066590345  1.0000
  H   H16       1.0  0.7644702837833061  0.830306379566201  0.954537039958315  1.0000
  H   H17       1.0  0.7862041307413954  0.8126890326226234  0.18917465939069733  1.0000
  H   H18       1.0  0.7755897561401437  0.9685452741983108  0.7450071329178778  1.0000
  H   H19       1.0  0.8051754945895743  0.11491858977749049  0.5335071679560577  1.0000
  H   H20       1.0  0.8524562752907918  0.969003335161907  0.49054486588020113  1.0000
  H   H21       1.0  0.9021763636439859  0.12390976350968398  0.4780670229543223  1.0000
  C   C29       1.0  0.9018919909028172  0.4427528936514229  0.14395461423379197  1.0000
  C   C30       1.0  0.8282867620627209  0.39183893829627015  0.15019130001950454  1.0000
  C   C31       1.0  0.7909697288658957  0.36614252863461805  0.036205539439677636  1.0000
  C   C32       1.0  0.8282356377995175  0.3920641798260285  0.9148887135268797  1.0000
  C   C33       1.0  0.9018412871723449  0.44297865285995713  0.90665974624196  1.0000
  C   C34       1.0  0.9382580662927906  0.46803504809957963  0.021731556993392246  1.0000
  C   C35       1.0  0.7131017186799367  0.3122714046819892  0.043858198822557266  1.0000
  C   C36       1.0  0.6593095039695454  0.3596355289210986  0.9551915461773373  1.0000
  C   C37       1.0  0.5861256867665398  0.30892446728734724  0.9626532387534898  1.0000
  C   C38       1.0  0.5656702109600229  0.21048662765125736  0.058318167113575514  1.0000
  C   C39       1.0  0.6187215803381382  0.16169981103803477  0.1478821957299421  1.0000
  C   C40       1.0  0.6920073785600008  0.2130529420724525  0.13996420560069756  1.0000
  O   O2        1.0  0.6010601656238478  0.06269081880516425  0.24555261801652617  1.0000
  C   C41       1.0  0.5290617637560594  0.001664269918356668  0.26494831464414825  1.0000
  H   H22       1.0  0.9299487451557549  0.462095222017509  0.46903528085153406  1.0000
  H   H23       1.0  0.799428608665885  0.3737079375560008  0.24381258556123878  1.0000
  H   H24       1.0  0.8000784183512993  0.37078435922637415  0.8268698607800604  1.0000
  H   H25       1.0  0.9950417227832639  0.5073121917805608  0.01615181027880297  1.0000
  H   H26       1.0  0.9298730564972262  0.46244017795125103  0.5760674672823556  1.0000
  H   H27       1.0  0.6735799005250108  0.4370538261223944  0.8811878045291736  1.0000
  H   H28       1.0  0.545042497073473  0.3463248239134489  0.8942103442777865  1.0000
  H   H29       1.0  0.5086046572257251  0.1730638053442306  0.06180529686962277  1.0000
  H   H30       1.0  0.7327597936871659  0.17389440494397967  0.20824920155425744  1.0000
  H   H31       1.0  0.5135880980230408  0.9528291869916075  0.1768201698923526  1.0000
  H   H32       1.0  0.5310085784915911  0.9272303207344054  0.34855195250886317  1.0000
  H   H33       1.0  0.4862571324373152  0.07488836638581109  0.28718960211812594  1.0000
  Zn  Zn1       1.0  0.8195477662245696  0.44086793594323537  0.5291288800361269  1.0000
  Zn  Zn2       1.0  0.984178293571253  0.4448627898598292  0.5214852368072012  1.0000
  C   C42       1.0  0.9018503119006813  0.4377618835081607  0.7624937194348149  1.0000
  C   C43       1.0  0.9018775452864051  0.4479705246897427  0.2881204409319946  1.0000
  C   C44       1.0  0.9018109211645539  0.6800727417285621  0.5200645077103687  1.0000
  C   C45       1.0  0.9019168801843043  0.20565810471567936  0.5305497249470841  1.0000
  O   O3        1.0  0.9643491256009059  0.45123196943677146  0.33360308819499473  1.0000
  O   O4        1.0  0.9643294927916171  0.43753146054798414  0.7112093502734171  1.0000
  O   O5        1.0  0.9642968419720953  0.6332005229629059  0.5154460852961025  1.0000
  O   O6        1.0  0.9643817202476127  0.255562914920725  0.5293662584074106  1.0000
  O   O7        1.0  0.8393442833678907  0.6301678095205037  0.5212478610374864  1.0000
  O   O8        1.0  0.8393769338453221  0.4345003074974072  0.7170110563257268  1.0000
  O   O9        1.0  0.8393965668183804  0.448200770666189  0.3394032329241512  1.0000
  O   O10       1.0  0.8394291614575827  0.2525317068894315  0.5351665005030353  1.0000
