data_image0
_chemical_formula_structural       NC9NC3NH7C7ONH7C6OCH7Zn2C4O8
_chemical_formula_sum              "N4 C30 H21 O10 Zn2"
_cell_length_a       16.053384444249904
_cell_length_b       10.297852080636378
_cell_length_c       9.273891588657152
_cell_angle_alpha    86.07585780887825
_cell_angle_beta     89.48625385378584
_cell_angle_gamma    89.15396345524235

_space_group_name_H-M_alt    "P 1"
_space_group_IT_number       1

loop_
  _space_group_symop_operation_xyz
  'x, y, z'

loop_
  _atom_site_type_symbol
  _atom_site_label
  _atom_site_symmetry_multiplicity
  _atom_site_fract_x
  _atom_site_fract_y
  _atom_site_fract_z
  _atom_site_occupancy
  N   N1        1.0  0.789265179922207  0.39113715347218797  0.40679355972227027  1.0000
  C   C1        1.0  0.7387868119101768  0.3696396718233013  0.32372257532334303  1.0000
  C   C2        1.0  0.6760558672007659  0.34292899965832535  0.22052816203649697  1.0000
  C   C3        1.0  0.6901506671549013  0.3296585385387163  0.07543169190638799  1.0000
  C   C4        1.0  0.6137222195801054  0.3038509971093464  0.01743714937444918  1.0000
  C   C5        1.0  0.5562580696299777  0.3028119937913156  0.13027923574773226  1.0000
  C   C6        1.0  0.4656484888629427  0.27889302286821205  0.11890671701813527  1.0000
  C   C7        1.0  0.4094014594823571  0.32246864424607025  0.22313089817547982  1.0000
  C   C8        1.0  0.3238939149669599  0.2997828527014137  0.21223817355533003  1.0000
  C   C9        1.0  0.266857789903342  0.34512524566918246  0.3190948525765467  1.0000
  N   N2        1.0  0.2210174645405286  0.3815741219258469  0.4049908883247033  1.0000
  C   C10       1.0  0.2939073466931497  0.2334095604604383  0.09713648451639711  1.0000
  C   C11       1.0  0.349145027238935  0.18995550226755145  0.9931472274231748  1.0000
  C   C12       1.0  0.4344480852790811  0.2124719264988915  0.0035997979193997894  1.0000
  N   N3        1.0  0.5950361743418088  0.32680421410574767  0.25409039612469897  1.0000
  H   H1        1.0  0.7490705042224922  0.33782508608013617  0.018144743599023183  1.0000
  H   H2        1.0  0.6018324936754674  0.28915373249126985  0.9051459367141329  1.0000
  H   H3        1.0  0.4314170259168779  0.37566349672135235  0.3116964037535497  1.0000
  H   H4        1.0  0.22791995644087562  0.21536285192515406  0.08777753439111513  1.0000
  H   H5        1.0  0.3258395850325437  0.13840057517979387  0.9043221725733579  1.0000
  H   H6        1.0  0.4758416646898419  0.17635425431232535  0.9223045436822481  1.0000
  H   H7        1.0  0.568534824138145  0.33001709487920605  0.35704082276744686  1.0000
  C   C13       1.0  0.005234081503715515  0.004916525984402849  0.40590042874444876  1.0000
  C   C14       1.0  0.9943182254039424  0.013472381662422261  0.2553699707481798  1.0000
  C   C15       1.0  0.988047015891401  0.9007350951109795  0.1791647352091459  1.0000
  C   C16       1.0  0.9941077712276764  0.7782244298598316  0.25532112450031663  1.0000
  C   C17       1.0  0.005056447590517488  0.7677847183941182  0.40589637796581934  1.0000
  C   C18       1.0  0.010350697961660106  0.8816483209382097  0.48023714340186663  1.0000
  C   C19       1.0  0.976724381634018  0.9123677099434017  0.020154217021500106  1.0000
  O   O1        1.0  0.9992134089159469  0.014391287047178064  0.9482837550655221  1.0000
  N   N4        1.0  0.9397443640294348  0.8107727780911131  0.9458907733323841  1.0000
  H   H8        1.0  0.026167009137099795  0.19601210339645414  0.6903253442942188  1.0000
  H   H9        1.0  0.9899417109827874  0.10822422056549953  0.19728695357001347  1.0000
  H   H10       1.0  0.9919377266789972  0.6906029419190761  0.1975204912879458  1.0000
  H   H11       1.0  0.018761605754407322  0.8743007135303598  0.5962528464322723  1.0000
  H   H12       1.0  0.02708512265896412  0.5407658002638656  0.6901853756011975  1.0000
  H   H13       1.0  0.935910372871234  0.8190141495235508  0.8332886700579838  1.0000
  H   H14       1.0  0.911114862859909  0.7317207934712912  0.0013946536944087259  1.0000
  C   C20       1.0  0.006510881337999928  0.38288027616995396  0.9826174168515992  1.0000
  C   C21       1.0  0.07472369183555028  0.43623276534983724  0.050905969137452045  1.0000
  C   C22       1.0  0.13820866092015935  0.4993892765044723  0.9708307552114998  1.0000
  C   C23       1.0  0.1337078125946909  0.5095137480455116  0.819408872368196  1.0000
  C   C24       1.0  0.06724545299577578  0.45533599302648553  0.7497708184726806  1.0000
  C   C25       1.0  0.003779659971242744  0.38982091978111844  0.829179418367481  1.0000
  O   O2        1.0  0.20414667541413722  0.5511928846514327  0.04576172306618198  1.0000
  C   C26       1.0  0.2727346989446868  0.6180332804749527  0.9783985535065782  1.0000
  H   H15       1.0  0.8083692603186025  0.30749015701174787  0.09446244675749305  1.0000
  H   H16       1.0  0.18168736434197963  0.5580513759653916  0.7542861006228128  1.0000
  H   H17       1.0  0.06657167915414508  0.46204536417320013  0.6326924138994334  1.0000
  H   H18       1.0  0.8716468110349733  0.33388666713986526  0.5542888264900094  1.0000
  H   H19       1.0  0.25035123336874165  0.7064280130130266  0.9140958860186305  1.0000
  H   H20       1.0  0.3074866328560049  0.5527983935511274  0.9078411877425351  1.0000
  H   H21       1.0  0.31537325990456844  0.648136393930868  0.06306387798766155  1.0000
  Zn  Zn1       1.0  0.9138595346069585  0.38837407315883943  0.40628166400912935  1.0000
  Zn  Zn2       1.0  0.09642305085225455  0.3843267164780702  0.4055145648376175  1.0000
  C   C27       1.0  0.004295279312636515  0.3833344383285622  0.669161126254074  1.0000
  C   C28       1.0  0.005989298896510234  0.38936794719234014  0.1426352356822802  1.0000
  C   C29       1.0  0.005104292226155938  0.6235393926712418  0.40015328496542124  1.0000
  C   C30       1.0  0.005180223802214721  0.14916143427111161  0.41164315408876373  1.0000
  O   O3        1.0  0.07509615536104253  0.3900036513017533  0.19604756735457318  1.0000
  O   O4        1.0  0.07374990901286016  0.379625900843241  0.6151661691338324  1.0000
  O   O5        1.0  0.07440225838327308  0.5735944722746362  0.39794043793541856  1.0000
  O   O6        1.0  0.07444374404058296  0.19603508965729666  0.413273190738642  1.0000
  O   O7        1.0  0.9358387791186861  0.576665701362129  0.3985230383622962  1.0000
  O   O8        1.0  0.9351864296291055  0.38269868989179834  0.6157486926970708  1.0000
  O   O9        1.0  0.9365326816342795  0.3930763808765008  0.19662835792061228  1.0000
  O   O10       1.0  0.9358802699639225  0.1991078108276214  0.41385408937321855  1.0000
