data_image0
_chemical_formula_structural       NC6NC3H6C6NH5C6SCH6Zn2C4O8
_chemical_formula_sum              "N3 C26 H17 S1 Zn2 O8"
_cell_length_a       14.934028789175542
_cell_length_b       9.274771166103582
_cell_length_c       9.27527408847023
_cell_angle_alpha    86.00109441054587
_cell_angle_beta     89.70124822598929
_cell_angle_gamma    90.55950156128424

_space_group_name_H-M_alt    "P 1"
_space_group_IT_number       1

loop_
  _space_group_symop_operation_xyz
  'x, y, z'

loop_
  _atom_site_type_symbol
  _atom_site_label
  _atom_site_symmetry_multiplicity
  _atom_site_fract_x
  _atom_site_fract_y
  _atom_site_fract_z
  _atom_site_occupancy
  N   N1        1.0  0.8580344882332207  0.5626664337454617  0.40698489473777366  1.0000
  C   C1        1.0  0.7805432773367836  0.5615615899573163  0.40630825389081165  1.0000
  C   C2        1.0  0.6841402813729013  0.5601820862228488  0.40546359422777356  1.0000
  C   C3        1.0  0.6368810518342523  0.667617742528835  0.47113927674307243  1.0000
  C   C4        1.0  0.5433641378004072  0.6665101067418717  0.47046204727657903  1.0000
  C   C5        1.0  0.4961941605411131  0.5580216439402053  0.4041428518896135  1.0000
  C   C6        1.0  0.39955929467218454  0.5603493857513346  0.4055670913815188  1.0000
  N   N2        1.0  0.3220878262393014  0.562196745469449  0.406697733238796  1.0000
  C   C7        1.0  0.5434408574627339  0.44909963355963506  0.3375580059099772  1.0000
  C   C8        1.0  0.49457201673686463  0.33115013505101554  0.26545648547011513  1.0000
  C   C9        1.0  0.6375941349723654  0.4513375044389787  0.3389260739902365  1.0000
  H   H1        1.0  0.6723219059324611  0.7522670795913009  0.5228862117413546  1.0000
  H   H2        1.0  0.5077219928822355  0.7505075198021969  0.5218103161864385  1.0000
  H   H3        1.0  0.45239808870540527  0.37938965154056614  0.17678349261815374  1.0000
  H   H4        1.0  0.4511870621870662  0.26905130672569516  0.3456638748534953  1.0000
  H   H5        1.0  0.5416729526528442  0.2547524765968354  0.21874798938635798  1.0000
  H   H6        1.0  0.6747345740377168  0.36845751007259464  0.28826117536091767  1.0000
  C   C10       1.0  0.08731410807421591  0.13884526905514338  0.4076285016550503  1.0000
  C   C11       1.0  0.06708416376365871  0.2209504751671978  0.2787690042532891  1.0000
  C   C12       1.0  0.05521688661112754  0.15468131370969673  0.14908669452096213  1.0000
  C   C13       1.0  0.06362923035170875  0.0049205009025727955  0.14732449716927243  1.0000
  C   C14       1.0  0.08220852423020707  0.9214807229810128  0.2744146913587264  1.0000
  C   C15       1.0  0.09281671494586448  0.9860069358066605  0.40606661670618704  1.0000
  N   N3        1.0  0.03554121021308029  0.23987200407258946  0.01881047597168739  1.0000
  H   H7        1.0  0.18716944972525518  0.22140007060289046  0.7229561786578913  1.0000
  H   H8        1.0  0.054922360779038976  0.9524943548686299  0.04754678124046797  1.0000
  H   H9        1.0  0.15643779646634903  0.6909142671275194  0.6206037553006283  1.0000
  H   H10       1.0  0.029371945877193707  0.3519517051484684  0.01876748707976783  1.0000
  H   H11       1.0  0.026911741801910236  0.19148549728905226  0.921402679591361  1.0000
  C   C16       1.0  0.09129672381876716  0.5584054047806557  0.9836572624824657  1.0000
  C   C17       1.0  0.16788044189226292  0.6091013045740175  0.0528648061131769  1.0000
  C   C18       1.0  0.2395654579145461  0.6712942175001686  0.972641830643231  1.0000
  C   C19       1.0  0.23585684643591398  0.6829283667211747  0.8220626036450422  1.0000
  C   C20       1.0  0.16117947803333788  0.6311386611425949  0.7513529769345624  1.0000
  C   C21       1.0  0.08883408988996089  0.5664467891765557  0.830037821505504  1.0000
  S   S1        1.0  0.33616004249252956  0.736597011688725  0.06315009020729723  1.0000
  C   C22       1.0  0.2913077394400241  0.9171916069914583  0.07457786102429687  1.0000
  H   H12       1.0  0.8740775413515262  0.49927356029877457  0.09260558717421463  1.0000
  H   H13       1.0  0.2911922710759083  0.7312028310251826  0.7594415742820577  1.0000
  H   H14       1.0  0.9436184401406816  0.5207489319529963  0.553297226594474  1.0000
  H   H15       1.0  0.2788351631148278  0.9676131994751858  0.9645307524817018  1.0000
  H   H16       1.0  0.2279681527555596  0.9118372278728456  0.1379925941511131  1.0000
  H   H17       1.0  0.34066225537982253  0.9844450412905482  0.12942282223406545  1.0000
  Zn  Zn1       1.0  0.9919502216894238  0.562527105523603  0.4069103488962016  1.0000
  Zn  Zn2       1.0  0.1881720118199809  0.5623243698619145  0.40678408293101104  1.0000
  C   C23       1.0  0.08926025340958388  0.5591803717070418  0.6700643713455281  1.0000
  C   C24       1.0  0.09086413424571121  0.5656729228228168  0.14363019719186854  1.0000
  C   C25       1.0  0.09178869425819379  0.8258207609149717  0.4006191371170016  1.0000
  C   C26       1.0  0.08833561496018455  0.2990308013863481  0.41307551149009214  1.0000
  O   O1        1.0  0.16518405909463185  0.5680287382027436  0.19727066977771623  1.0000
  O   O2        1.0  0.16386812114555135  0.5566695925319729  0.6163276529775404  1.0000
  O   O3        1.0  0.16590886092155688  0.7719850942192221  0.39874871784896593  1.0000
  O   O4        1.0  0.16314325274283614  0.3527132458767248  0.4148494968774632  1.0000
  O   O5        1.0  0.0169789138057339  0.7721382295794745  0.39884493498525453  1.0000
  O   O6        1.0  0.0149381855058106  0.5568244601914469  0.6164237900796381  1.0000
  O   O7        1.0  0.01625412822921878  0.5681835391349039  0.19736507434671793  1.0000
  O   O8        1.0  0.014213321492378967  0.3528680375183364  0.41494400951079746  1.0000
