data_image0
_chemical_formula_structural       NC5NC3H4C6ClH5C6OCH6Zn2C4O8
_chemical_formula_sum              "N2 C25 H15 Cl1 O9 Zn2"
_cell_length_a       13.859018345313864
_cell_length_b       9.276545438789551
_cell_length_c       9.273891588657152
_cell_angle_alpha    86.10611493905307
_cell_angle_beta     89.68012665511726
_cell_angle_gamma    89.40960550048821

_space_group_name_H-M_alt    "P 1"
_space_group_IT_number       1

loop_
  _space_group_symop_operation_xyz
  'x, y, z'

loop_
  _atom_site_type_symbol
  _atom_site_label
  _atom_site_symmetry_multiplicity
  _atom_site_fract_x
  _atom_site_fract_y
  _atom_site_fract_z
  _atom_site_occupancy
  N   N1        1.0  0.9037411515889283  0.5637223068893298  0.41099815790432803  1.0000
  C   C1        1.0  0.8314647510731397  0.5246475262690653  0.4622264355016639  1.0000
  C   C2        1.0  0.7415571467196546  0.47604373335538996  0.525947598651002  1.0000
  C   C3        1.0  0.6538472469536587  0.5234267420459444  0.4638272683347144  1.0000
  C   C4        1.0  0.5663268447297825  0.47604344181291897  0.525947472936011  1.0000
  C   C5        1.0  0.4762248725951039  0.5246474127177645  0.4622263381280085  1.0000
  N   N2        1.0  0.4037922495274257  0.563722272372279  0.4109980888615177  1.0000
  C   C6        1.0  0.5666988490571916  0.38126312095917103  0.650206594088858  1.0000
  C   C7        1.0  0.6542258425837295  0.3340625116080189  0.712087870500379  1.0000
  C   C8        1.0  0.7415641898007304  0.3812634179225598  0.6502067979089159  1.0000
  H   H1        1.0  0.6537005119042756  0.5967892958862018  0.3676473663034019  1.0000
  H   H2        1.0  0.4994779484828519  0.34396784199023034  0.6991011115505366  1.0000
  H   H3        1.0  0.6543722162201596  0.26084889875081485  0.808072701489511  1.0000
  H   H4        1.0  0.808934204878609  0.34396837572052363  0.6991015371458702  1.0000
  C   C9        1.0  0.1566843046077322  0.14028498185887006  0.41076053245891053  1.0000
  C   C10       1.0  0.15754556393997188  0.2227361467528246  0.27771977354509736  1.0000
  C   C11       1.0  0.1496175772325043  0.15648257779016883  0.14757467092705379  1.0000
  C   C12       1.0  0.14063657297680932  0.006899496956376481  0.14846807675784413  1.0000
  C   C13       1.0  0.14127307152825774  0.9228878849327583  0.27906687078123715  1.0000
  C   C14       1.0  0.15085836393959215  0.9871486103722023  0.41124822252643534  1.0000
  Cl  Cl1       1.0  0.14948350540656435  0.26161934598836384  0.9830182376895826  1.0000
  H   H5        1.0  0.20518781442852685  0.40528854170494233  0.637376602834244  1.0000
  H   H6        1.0  0.16207740947279037  0.3394309647117628  0.2748659977912744  1.0000
  H   H7        1.0  0.1340810298431947  0.9552694841858786  0.04778005423352383  1.0000
  H   H8        1.0  0.1365657118731174  0.8066035071327626  0.27641637361118154  1.0000
  H   H9        1.0  0.11764394504416109  0.6905158917649099  0.6443259092370697  1.0000
  C   C15       1.0  0.15537829260000513  0.5598978863837771  0.9877268398022263  1.0000
  C   C16       1.0  0.23397747952589348  0.6208022552339132  0.05633560903664492  1.0000
  C   C17       1.0  0.30702947076389964  0.6924739234743138  0.9765671330419243  1.0000
  C   C18       1.0  0.3017427782639174  0.7036025385718749  0.8251329290180807  1.0000
  C   C19       1.0  0.22517674011118324  0.641825073475716  0.7551814590200068  1.0000
  C   C20       1.0  0.15216433154537556  0.567535612299851  0.8342818789047302  1.0000
  O   O1        1.0  0.38300579441772425  0.7516029307379152  0.05180778776965388  1.0000
  C   C21       1.0  0.4619401182956442  0.8274895914847398  0.9847751133659169  1.0000
  H   H10       1.0  0.9264804399096026  0.4713346316745588  0.09869308889011097  1.0000
  H   H11       1.0  0.35694678514470424  0.758664385349489  0.760242498726448  1.0000
  H   H12       1.0  0.22434706196217583  0.649256649817237  0.6381045624608546  1.0000
  H   H13       1.0  0.43536823647480816  0.9250671448144941  0.9204357274829862  1.0000
  H   H14       1.0  0.5026643899465209  0.75592614012099  0.9143212332406327  1.0000
  H   H15       1.0  0.5110949285371582  0.861955767038938  0.06963850392249404  1.0000
  Zn  Zn1       1.0  0.04804509016822478  0.5637185016599382  0.41100646877453806  1.0000
  Zn  Zn2       1.0  0.2594883238843142  0.5637143503520889  0.4110016099666489  1.0000
  C   C22       1.0  0.15280922046976797  0.5603475794439772  0.6742615600583617  1.0000
  C   C23       1.0  0.15472648948289391  0.5670870931731802  0.14774666115121082  1.0000
  C   C24       1.0  0.15197641199938472  0.827021502535078  0.40541215692080534  1.0000
  C   C25       1.0  0.15555923742883038  0.3004114383588401  0.41659614014005175  1.0000
  O   O2        1.0  0.23474938692885788  0.5694919905225755  0.2014489274801874  1.0000
  O   O3        1.0  0.2332668540096332  0.557938439809716  0.6205551904522406  1.0000
  O   O4        1.0  0.23259326325219357  0.7732810188012968  0.403457396152787  1.0000
  O   O5        1.0  0.23542290587438952  0.3541494208723537  0.4185466137120726  1.0000
  O   O6        1.0  0.07211043602296893  0.7732834311425911  0.4034614650231918  1.0000
  O   O7        1.0  0.07278401514967525  0.5579425838771674  0.6205591834654387  1.0000
  O   O8        1.0  0.07426655505800994  0.5694960687066228  0.20145118748149682  1.0000
  O   O9        1.0  0.07494007366026878  0.35415348971796023  0.4185489817750281  1.0000
