data_image0
_chemical_formula_structural       NC5NC4H6C7NH5C7F3H5Zn2C4O8
_chemical_formula_sum              "N3 C27 H16 F3 Zn2 O8"
_cell_length_a       13.854160002989762
_cell_length_b       9.275154477615127
_cell_length_c       10.299327507215196
_cell_angle_alpha    85.77882767837892
_cell_angle_beta     89.98119510094074
_cell_angle_gamma    89.43370676253429

_space_group_name_H-M_alt    "P 1"
_space_group_IT_number       1

loop_
  _space_group_symop_operation_xyz
  'x, y, z'

loop_
  _atom_site_type_symbol
  _atom_site_label
  _atom_site_symmetry_multiplicity
  _atom_site_fract_x
  _atom_site_fract_y
  _atom_site_fract_z
  _atom_site_occupancy
  N   N1        1.0  0.8988148368114776  0.57810683228977  0.5730812149655713  1.0000
  C   C1        1.0  0.8263282829424136  0.6033195214726563  0.5199753405073961  1.0000
  C   C2        1.0  0.7361539876686662  0.634684790755309  0.45390959826821686  1.0000
  C   C3        1.0  0.6487621294254575  0.6052002564817796  0.5184210013680857  1.0000
  C   C4        1.0  0.5610115752076876  0.6346848050837277  0.4539095774428266  1.0000
  C   C5        1.0  0.4712201425326069  0.6033193741843506  0.519975422524539  1.0000
  N   N2        1.0  0.39904126663375167  0.5781067688117887  0.5730812146604365  1.0000
  C   C6        1.0  0.5606814977042209  0.6942600940704375  0.3249060315871526  1.0000
  C   C7        1.0  0.6480264211189188  0.7258941260742586  0.2603091266666617  1.0000
  C   C8        1.0  0.6476646154968385  0.7857120991273123  0.12095578274248298  1.0000
  C   C9        1.0  0.7357585867684185  0.6942600927582286  0.3249059502490177  1.0000
  H   H1        1.0  0.6490436439159938  0.5589788793068244  0.618266979359462  1.0000
  H   H2        1.0  0.4926765761440519  0.7160479046800123  0.27484816024728564  1.0000
  H   H3        1.0  0.7120731554625904  0.8538557468112578  0.09976968254047745  1.0000
  H   H4        1.0  0.5823646777772532  0.8538557486783831  0.09976974118337245  1.0000
  H   H5        1.0  0.6482792082946505  0.695224824291826  0.05616754413577407  1.0000
  H   H6        1.0  0.8034995345005829  0.7160480171420722  0.27484808368727776  1.0000
  C   C10       1.0  0.15172617577588898  0.15471773126354396  0.571578370998792  1.0000
  C   C11       1.0  0.12525953348092345  0.23791439995582198  0.4570702286241517  1.0000
  C   C12       1.0  0.09094035303114055  0.1718926287616016  0.3486277526346231  1.0000
  C   C13       1.0  0.08252261128271443  0.021771369921513406  0.35341627371243955  1.0000
  C   C14       1.0  0.1098844832392174  0.9373674268049825  0.46531429427385557  1.0000
  C   C15       1.0  0.14613924640617543  0.001484786914163862  0.5745953218011879  1.0000
  C   C16       1.0  0.06318989636677741  0.25867132183092445  0.23273948847776602  1.0000
  N   N3        1.0  0.0408862272970294  0.32842548045991915  0.13959500860760943  1.0000
  H   H7        1.0  0.17036464066622092  0.2313398430663527  0.8903672777824841  1.0000
  H   H8        1.0  0.12920237602922557  0.35487439135366894  0.4532167607745341  1.0000
  H   H9        1.0  0.05563185311658447  0.9696575937258197  0.2700714201506944  1.0000
  H   H10       1.0  0.10481602517467521  0.8208998489880057  0.4651999993763496  1.0000
  H   H11       1.0  0.16278529337847922  0.7026817459373716  0.7881929574771089  1.0000
  C   C17       1.0  0.14902475485571146  0.5781598090519848  0.19170545380790172  1.0000
  C   C18       1.0  0.24244203680807508  0.6359698875662407  0.1866409569034495  1.0000
  C   C19       1.0  0.28884640909343506  0.667579963523588  0.06679858851764409  1.0000
  C   C20       1.0  0.24220033330616175  0.6358169982993429  0.9514029545075693  1.0000
  C   C21       1.0  0.1488406928748447  0.5780427095918433  0.9544682128842261  1.0000
  C   C22       1.0  0.10264744979220072  0.5500836685064543  0.07509615610513554  1.0000
  C   C23       1.0  0.39048716278341367  0.7247531961976847  0.0627399603666623  1.0000
  F   F1        1.0  0.40679187329268274  0.8089478036261679  0.1659310979324884  1.0000
  F   F2        1.0  0.4550024797780774  0.609800254058211  0.07019936101189672  1.0000
  F   F3        1.0  0.4065268367293189  0.8089282421112103  0.948287624553978  1.0000
  H   H12       1.0  0.9734060827434642  0.4666549092880241  0.40866025873699513  1.0000
  H   H13       1.0  0.2793241189883031  0.6562483277262576  0.2761097388579252  1.0000
  H   H14       1.0  0.2789166533426659  0.6559866890147046  0.8590947860821103  1.0000
  H   H15       1.0  0.030645497070342028  0.5055297841414952  0.07819468007656716  1.0000
  H   H16       1.0  0.11359401579684111  0.5534647864072304  0.6283491137187212  1.0000
  Zn  Zn1       1.0  0.043169408182360584  0.5781029527459562  0.5730887090922956  1.0000
  Zn  Zn2       1.0  0.25468677170808207  0.5780988484391427  0.5730843446140528  1.0000
  C   C24       1.0  0.14891120175189423  0.5723210973416737  0.8102692434540093  1.0000
  C   C25       1.0  0.14894727586802814  0.5838825229456557  0.33590394415672753  1.0000
  C   C26       1.0  0.14719157161228597  0.8414285642194279  0.5688496810677965  1.0000
  C   C27       1.0  0.15066684524395368  0.31477332383820666  0.5773235696136647  1.0000
  O   O1        1.0  0.2291910518391963  0.585795270436555  0.38429659608011857  1.0000
  O   O2        1.0  0.2292042177847462  0.5704041471635977  0.7618729012591552  1.0000
  O   O3        1.0  0.2278145122989449  0.7877118298094412  0.5669249019123865  1.0000
  O   O4        1.0  0.23058068510390106  0.36848759812090526  0.5792444980872742  1.0000
  O   O5        1.0  0.06727542260603747  0.7877142030671651  0.5669285556137378  1.0000
  O   O6        1.0  0.06866511667501762  0.5704082526539871  0.7618764918844456  1.0000
  O   O7        1.0  0.0686519515020172  0.5857993259243313  0.3842986250747096  1.0000
  O   O8        1.0  0.07004158480731437  0.36849164328145845  0.5792466244161414  1.0000
