data_image0
_chemical_formula_structural       NC6NC2H4C6ClH5C6NCOH7Zn2C4O8
_chemical_formula_sum              "N3 C25 H16 Cl1 O9 Zn2"
_cell_length_a       14.927258858638513
_cell_length_b       10.302970706292308
_cell_length_c       9.27373355559583
_cell_angle_alpha    86.17407986501598
_cell_angle_beta     90.01105750145625
_cell_angle_gamma    89.9983139300619

_space_group_name_H-M_alt    "P 1"
_space_group_IT_number       1

loop_
  _space_group_symop_operation_xyz
  'x, y, z'

loop_
  _atom_site_type_symbol
  _atom_site_label
  _atom_site_symmetry_multiplicity
  _atom_site_fract_x
  _atom_site_fract_y
  _atom_site_fract_z
  _atom_site_occupancy
  N   N1        1.0  0.8433493818121022  0.4054691897229734  0.41027924026150164  1.0000
  C   C1        1.0  0.7658228906462228  0.4054691641590285  0.4102792508474895  1.0000
  C   C2        1.0  0.6693903830938657  0.4054692672961315  0.41027920100000626  1.0000
  C   C3        1.0  0.6223232794524944  0.38291716711579804  0.2836216190472336  1.0000
  C   C4        1.0  0.5286119680925139  0.3829171889053144  0.28362148561953027  1.0000
  C   C5        1.0  0.48157431910764154  0.4054691076340777  0.41027921962295855  1.0000
  C   C6        1.0  0.3851417445637473  0.4054692107737925  0.41027916976955225  1.0000
  N   N2        1.0  0.3076152533978675  0.4054691852098473  0.4102791803555401  1.0000
  C   C7        1.0  0.5286413557574757  0.4280212078170231  0.5369368015698082  1.0000
  C   C8        1.0  0.622352667117456  0.4280211860275062  0.5369369349975113  1.0000
  H   H1        1.0  0.6580080162323588  0.36537036042988613  0.18507475106023574  1.0000
  H   H2        1.0  0.4929043607170598  0.3653705382183605  0.1850747461284752  1.0000
  H   H3        1.0  0.49295668597857184  0.44556800625880055  0.6354837776174134  1.0000
  H   H4        1.0  0.6580602745020895  0.44556792539936185  0.6354837844938186  1.0000
  C   C9        1.0  0.07548659825552684  0.02422178988020974  0.41028543768826453  1.0000
  C   C10       1.0  0.16799354835818742  0.021347055987668277  0.4380451605813916  1.0000
  C   C11       1.0  0.2138930279374758  0.9029638448742714  0.4518186934188137  1.0000
  C   C12       1.0  0.16799354763479057  0.7862390866625657  0.4380450928002388  1.0000
  C   C13       1.0  0.07548660782595684  0.7867067324903934  0.4102855201907023  1.0000
  C   C14       1.0  0.029684062382461473  0.9062917556407791  0.39654094321745226  1.0000
  Cl  Cl1       1.0  0.3294562489407353  0.9008761333009366  0.48649710185399564  1.0000
  H   H5        1.0  0.04064085025532996  0.3526077623131847  0.3998280293801115  1.0000
  H   H6        1.0  0.20478581058218365  0.11072896776724228  0.4490857532836812  1.0000
  H   H7        1.0  0.20478577514260532  0.6955277739382162  0.449085649736765  1.0000
  H   H8        1.0  0.9583398951722485  0.9075805101020021  0.37513176607075205  1.0000
  H   H9        1.0  0.040640845919542666  0.45957979826727696  0.3998283014865722  1.0000
  C   C15       1.0  0.0754353513661361  0.4013738394527245  0.9870584478333521  1.0000
  C   C16       1.0  0.9930986261289703  0.3939222335150321  0.061009921207619174  1.0000
  C   C17       1.0  0.9115765985609644  0.39699182046701215  0.9860604474220375  1.0000
  C   C18       1.0  0.9123674175952572  0.41173310940152014  0.8347127129533667  1.0000
  C   C19       1.0  0.9933571146669445  0.4172474265445513  0.7595572471581362  1.0000
  C   C20       1.0  0.07553787035923576  0.40955462881301186  0.8335124806072955  1.0000
  N   N3        1.0  0.8289743643644728  0.39243833472135026  0.06607494425687443  1.0000
  C   C21       1.0  0.7482647123563401  0.33265395723138225  0.019292530685974134  1.0000
  O   O1        1.0  0.7477936375916251  0.2639482557292867  0.9119416969520393  1.0000
  H   H10       1.0  0.2865381538052687  0.4915222993350441  0.08337186915153993  1.0000
  H   H11       1.0  0.9920516359142372  0.3876458808650063  0.1781298685131636  1.0000
  H   H12       1.0  0.8504982439365512  0.4203771034093833  0.7740981088736603  1.0000
  H   H13       1.0  0.9916132369286961  0.4252565746296905  0.6425160760335609  1.0000
  H   H14       1.0  0.21842557109152805  0.464783807903651  0.548406224215273  1.0000
  H   H15       1.0  0.8286535375311094  0.4269582769810152  0.1694939436493932  1.0000
  H   H16       1.0  0.6870348282964025  0.34354198919467516  0.07971337993830185  1.0000
  Zn  Zn1       1.0  0.9773264926452502  0.40546579009184525  0.4102875507239925  1.0000
  Zn  Zn2       1.0  0.17363815487869538  0.405462064929955  0.4102826924437173  1.0000
  C   C22       1.0  0.07551649474418648  0.40283626793646515  0.6735145247561061  1.0000
  C   C23       1.0  0.07545029651420121  0.4080932265094652  0.14705585981546387  1.0000
  C   C24       1.0  0.07548131471099123  0.6425253113730973  0.4045422768482816  1.0000
  C   C25       1.0  0.07548540956919547  0.1684026240111305  0.4160281845629712  1.0000
  O   O2        1.0  0.14995456497297144  0.410341236571753  0.2007506091787974  1.0000
  O   O3        1.0  0.1500082355276524  0.40058444714233604  0.6198156731919848  1.0000
  O   O4        1.0  0.1499788231018836  0.59413639550177  0.40261868000804557  1.0000
  O   O5        1.0  0.14998391039778028  0.21678929645645284  0.41794749430212863  1.0000
  O   O6        1.0  0.000980670134628882  0.5941385585679584  0.4026227488596583  1.0000
  O   O7        1.0  0.0010100825470620333  0.40058816927283836  0.6198196651979913  1.0000
  O   O8        1.0  0.000956411842087281  0.41034489671377306  0.20075286840871298  1.0000
  O   O9        1.0  0.0009857572763198857  0.21679294835695015  0.4179498615867292  1.0000
