data_image0
_chemical_formula_structural       NC9NC5H8C6SCH8C7H8Zn2C4O8
_chemical_formula_sum              "N2 C32 H24 S1 Zn2 O8"
_cell_length_a       17.807436237873137
_cell_length_b       10.302809429070853
_cell_length_c       9.27434533087231
_cell_angle_alpha    85.12370620528813
_cell_angle_beta     88.93938532988027
_cell_angle_gamma    88.39000425637651

_space_group_name_H-M_alt    "P 1"
_space_group_IT_number       1

loop_
  _space_group_symop_operation_xyz
  'x, y, z'

loop_
  _atom_site_type_symbol
  _atom_site_label
  _atom_site_symmetry_multiplicity
  _atom_site_fract_x
  _atom_site_fract_y
  _atom_site_fract_z
  _atom_site_occupancy
  N   N1        1.0  0.7138422146701118  0.39808254365972506  0.39648021669397115  1.0000
  C   C1        1.0  0.6533038301447105  0.36298566288871115  0.38422887417799934  1.0000
  C   C2        1.0  0.5780007335915787  0.3193290084073145  0.36898953432477355  1.0000
  C   C3        1.0  0.5603773653491604  0.24871798826124136  0.2522955828388116  1.0000
  C   C4        1.0  0.487262311742833  0.20621989551474917  0.23740733768143318  1.0000
  C   C5        1.0  0.4307220526138888  0.2339556499863513  0.33917697900708155  1.0000
  C   C6        1.0  0.3530192324446397  0.1889053926294377  0.323445842656062  1.0000
  C   C7        1.0  0.2907272428611394  0.27044341501527064  0.352272844649284  1.0000
  C   C8        1.0  0.21746982346203822  0.22774224407423607  0.3373998037844832  1.0000
  C   C9        1.0  0.1541261214861038  0.31196808783487096  0.36663122703917606  1.0000
  N   N2        1.0  0.1032107766299077  0.379679830993371  0.3901324839583282  1.0000
  C   C10       1.0  0.2059209618468978  0.10324533820798543  0.29367158860298526  1.0000
  C   C11       1.0  0.2673556190069251  0.021693530248310552  0.2648352627918291  1.0000
  C   C12       1.0  0.340494509281655  0.06400178924267252  0.279483214350686  1.0000
  C   C13       1.0  0.4490358480467229  0.30505925267147393  0.4561145695096132  1.0000
  C   C14       1.0  0.5222044668204797  0.34736816863239817  0.47082983356838515  1.0000
  H   H1        1.0  0.6030919373743131  0.2267738853623658  0.17259827493701652  1.0000
  H   H2        1.0  0.47471937471764775  0.1531717447480788  0.1452544441243695  1.0000
  H   H3        1.0  0.299095969982883  0.3676634658590088  0.3843650978413471  1.0000
  H   H4        1.0  0.1495031701142661  0.06929859344760936  0.2818970554999478  1.0000
  H   H5        1.0  0.2582938976119635  0.9253022722647896  0.23140894402866374  1.0000
  H   H6        1.0  0.3872202637621516  0.9984187022016089  0.2583139352542059  1.0000
  H   H7        1.0  0.4070323865043851  0.32645482628638645  0.5372505058818642  1.0000
  H   H8        1.0  0.5352803959241685  0.40164429343758323  0.5618251253489503  1.0000
  C   C15       1.0  0.9085300755236281  0.0076275711750679615  0.39331258582421325  1.0000
  C   C16       1.0  0.9523810816269935  0.014093796831050607  0.26561070336546666  1.0000
  C   C17       1.0  0.9739943788390778  0.9003429939193479  0.2019101793908016  1.0000
  C   C18       1.0  0.9523809872040482  0.7789426439073923  0.2656106273448011  1.0000
  C   C19       1.0  0.9085300456078504  0.7701244340102413  0.39331257873564995  1.0000
  C   C20       1.0  0.8867994949890796  0.8850953079542724  0.45651242447471985  1.0000
  S   S1        1.0  0.030158448460645415  0.9100874843939295  0.03891852589233058  1.0000
  C   C21       1.0  0.9492187798062881  0.9230312597426445  0.921136778058357  1.0000
  H   H9        1.0  0.8919801681511056  0.3325074573442648  0.44140661651843693  1.0000
  H   H10       1.0  0.9697982431015975  0.10722903743577517  0.21488555920224076  1.0000
  H   H11       1.0  0.9697980777564731  0.6918786525370973  0.21488544943597065  1.0000
  H   H12       1.0  0.8529630636601786  0.8792022706285664  0.5549999422591885  1.0000
  H   H13       1.0  0.8919789472831823  0.4394917579988153  0.4414050494437107  1.0000
  H   H14       1.0  0.9146635626206528  0.8350767175994981  0.940944405950121  1.0000
  H   H15       1.0  0.9146642683336481  0.011311649524753616  0.9409438698291179  1.0000
  H   H16       1.0  0.9690759093682847  0.9308199235000006  0.8067416644702567  1.0000
  C   C22       1.0  0.9102296937179942  0.3917148406370535  0.9694823914862494  1.0000
  C   C23       1.0  0.865494583181909  0.485278234141148  0.0354712542353055  1.0000
  C   C24       1.0  0.8162677065098107  0.5686130836951588  0.9542401497241983  1.0000
  C   C25       1.0  0.8100374129136103  0.5593567481376982  0.805397511725631  1.0000
  C   C26       1.0  0.8559374941551  0.469388637273676  0.7373853707389633  1.0000
  C   C27       1.0  0.9068304000520103  0.38603716475924216  0.8171426858353659  1.0000
  C   C28       1.0  0.758255808908368  0.6509917334294748  0.7177128711270071  1.0000
  H   H17       1.0  0.9964823566936059  0.104853525400366  0.09641272408897561  1.0000
  H   H18       1.0  0.8674076136420037  0.49215468603873624  0.15125705915103982  1.0000
  H   H19       1.0  0.7823541820292172  0.6395681097116157  0.007955231045901234  1.0000
  H   H20       1.0  0.8530931593421832  0.4665630005695494  0.621039682667905  1.0000
  H   H21       1.0  0.9676363497486916  0.1954663676875179  0.5522559939419622  1.0000
  H   H22       1.0  0.7889382029535201  0.7396834215083231  0.6780886541325408  1.0000
  H   H23       1.0  0.7089514954946241  0.6797679903030256  0.7840915790836425  1.0000
  H   H24       1.0  0.7371484352105225  0.6040107167954942  0.6234553683593718  1.0000
  Zn  Zn1       1.0  0.8262055361619313  0.3927683981590362  0.39465674518208793  1.0000
  Zn  Zn2       1.0  0.9908473893592448  0.3849833140512516  0.3919678208067392  1.0000
  C   C29       1.0  0.9074712808454728  0.3819383238588576  0.656916795388752  1.0000
  C   C30       1.0  0.9095834419914706  0.39581494051303184  0.129707882895421  1.0000
  C   C31       1.0  0.908549244387564  0.6260349913964975  0.38756123034969114  1.0000
  C   C32       1.0  0.9085054219601195  0.1517167152864645  0.3990635257997379  1.0000
  O   O1        1.0  0.9718472792588742  0.39423090861417664  0.18246058870372162  1.0000
  O   O2        1.0  0.9701668022678198  0.3776126804115474  0.6021228427274188  1.0000
  O   O3        1.0  0.9710364231725047  0.574723856246592  0.38461633197908185  1.0000
  O   O4        1.0  0.9709776026070441  0.19711974544790234  0.39996699215333464  1.0000
  O   O5        1.0  0.8460752667299781  0.5806319694205168  0.3866575747454988  1.0000
  O   O6        1.0  0.8452056461303997  0.38352235393252987  0.6041640085385857  1.0000
  O   O7        1.0  0.8468861301300731  0.4001405485133353  0.18450001926853243  1.0000
  O   O8        1.0  0.8460164530412346  0.2030293753364214  0.40200653092687544  1.0000
