data_image0
_chemical_formula_structural       NC12NC2H8C6NCH9C6BrH4Zn2C4O8
_chemical_formula_sum              "N3 C31 H21 Br1 Zn2 O8"
_cell_length_a       19.240039667572717
_cell_length_b       9.273386996610926
_cell_length_c       9.276567756262418
_cell_angle_alpha    86.02760264675325
_cell_angle_beta     90.18620512450872
_cell_angle_gamma    89.39858615406628

_space_group_name_H-M_alt    "P 1"
_space_group_IT_number       1

loop_
  _space_group_symop_operation_xyz
  'x, y, z'

loop_
  _atom_site_type_symbol
  _atom_site_label
  _atom_site_symmetry_multiplicity
  _atom_site_fract_x
  _atom_site_fract_y
  _atom_site_fract_z
  _atom_site_occupancy
  N   N1        1.0  0.6440738657697184  0.5632758859588607  0.4080659930231971  1.0000
  C   C1        1.0  0.5839254963422855  0.5632759783602641  0.40806590196517023  1.0000
  C   C2        1.0  0.5091074583104934  0.5632761071568664  0.4080657494180995  1.0000
  C   C3        1.0  0.47317031642160773  0.49278737784968846  0.5229147248296262  1.0000
  C   C4        1.0  0.4005003374793815  0.49266514432440145  0.5230109405863532  1.0000
  C   C5        1.0  0.3627752224693786  0.5632762075109591  0.40806549664440284  1.0000
  C   C6        1.0  0.3994257851227214  0.6338874805256947  0.2931202682047236  1.0000
  C   C7        1.0  0.472097244274614  0.6337649867241955  0.2932166202959392  1.0000
  C   C8        1.0  0.2855701323114109  0.5632761190932807  0.4080653909244125  1.0000
  C   C9        1.0  0.2490896547116165  0.4379141229421097  0.45472321908785257  1.0000
  C   C10       1.0  0.17641821150144898  0.4380318821718294  0.4546217038678198  1.0000
  C   C11       1.0  0.13923784621706928  0.563275976261967  0.40806545873472233  1.0000
  C   C12       1.0  0.064419810120297  0.5632758526101875  0.40806573482201025  1.0000
  N   N2        1.0  0.004271493848620798  0.5632758095244232  0.40806596613151425  1.0000
  C   C13       1.0  0.17500499127389688  0.6885201540114725  0.36150915478452617  1.0000
  C   C14       1.0  0.2476749313792299  0.6886381115643267  0.36140745884649017  1.0000
  H   H1        1.0  0.5013017483955956  0.4382208261707849  0.612584784423164  1.0000
  H   H2        1.0  0.37382098726467905  0.4389972664269217  0.6139171959208882  1.0000
  H   H3        1.0  0.3719186043115804  0.6875553879223923  0.20221395640653572  1.0000
  H   H4        1.0  0.49939558479177376  0.6883314300207171  0.20354686687070056  1.0000
  H   H5        1.0  0.2767367024527255  0.33921356735104835  0.48946292293376525  1.0000
  H   H6        1.0  0.14925382522759803  0.34034140621342046  0.4905058458417795  1.0000
  H   H7        1.0  0.14673955426241958  0.7862106028709177  0.32562502899795365  1.0000
  H   H8        1.0  0.2742143619347637  0.787338754623206  0.32666770518555843  1.0000
  C   C15       1.0  0.8263143827565779  0.1396288107163244  0.4087740008356151  1.0000
  C   C16       1.0  0.8383203397287436  0.22182788611967916  0.27849433398406154  1.0000
  C   C17       1.0  0.8437821754650326  0.15604839492339662  0.14820661497224408  1.0000
  C   C18       1.0  0.8373186111888868  0.0057150126074383386  0.14486740851027546  1.0000
  C   C19       1.0  0.8265367956980615  0.9225485883010937  0.2746945127776501  1.0000
  C   C20       1.0  0.8220377108349778  0.9869119151060298  0.4073704269476024  1.0000
  N   N3        1.0  0.8421888130275151  0.9348727401420607  0.011889770792407713  1.0000
  C   C21       1.0  0.8535536815851034  0.01139152617076112  0.871283125515224  1.0000
  H   H9        1.0  0.8408732340304818  0.4040913874951402  0.6453306887308632  1.0000
  H   H10       1.0  0.8418626550923318  0.3384564581248164  0.27672659639325214  1.0000
  H   H11       1.0  0.852398574113847  0.22369152537124304  0.05033407001653245  1.0000
  H   H12       1.0  0.8232527561135249  0.8061252472502485  0.2724214785827648  1.0000
  H   H13       1.0  0.8481611809555639  0.8589885933615873  0.7583113410626545  1.0000
  H   H14       1.0  0.8372795803265954  0.8225348942579601  0.014877632716636672  1.0000
  H   H15       1.0  0.8104287770029713  0.08971979608782688  0.8462484730435245  1.0000
  H   H16       1.0  0.9038604433197578  0.06894554579494125  0.871515623824049  1.0000
  H   H17       1.0  0.8551762560163653  0.9331191285647352  0.7859824744038586  1.0000
  C   C22       1.0  0.8235335553436743  0.559124490045483  0.9849523156894135  1.0000
  C   C23       1.0  0.7615952319947676  0.5938546713647574  0.05550562896612222  1.0000
  C   C24       1.0  0.7026854547144674  0.6404682700589899  0.9767274281337235  1.0000
  C   C25       1.0  0.7046071498932341  0.653295812189286  0.8262103340803426  1.0000
  C   C26       1.0  0.7651907576127174  0.6170072118340396  0.7539325403302475  1.0000
  C   C27       1.0  0.8248185754500396  0.567416300706933  0.8311921021359718  1.0000
  Br  Br1       1.0  0.6239725616106042  0.7182540419990091  0.7188525102792518  1.0000
  H   H18       1.0  0.9198095410478428  0.42808923741331806  0.2760035614959073  1.0000
  H   H19       1.0  0.6556889471282804  0.6679740656319069  0.032999256850746235  1.0000
  H   H20       1.0  0.7650441738567659  0.6243764752078897  0.6368698693189323  1.0000
  H   H21       1.0  0.9392533172731217  0.5525193584682584  0.5518220301785086  1.0000
  Zn  Zn1       1.0  0.7480191617644454  0.5632720937357447  0.4080742998765108  1.0000
  Zn  Zn2       1.0  0.9003262938793484  0.5632679491055286  0.40806943800400663  1.0000
  C   C28       1.0  0.8246031181175931  0.5601017046677692  0.6712441676987915  1.0000
  C   C29       1.0  0.8237439917422605  0.5664401597893124  0.14489970853422385  1.0000
  C   C30       1.0  0.8228338082979092  0.8267011272317693  0.4018939772256016  1.0000
  C   C31       1.0  0.8255132584555175  0.29983900470320174  0.41424997869904345  1.0000
  O   O1        1.0  0.88161441077043  0.5688874986791859  0.19857768008146803  1.0000
  O   O2        1.0  0.8823302930810244  0.5576501277017659  0.6175620931323131  1.0000
  O   O3        1.0  0.8809007761322112  0.7729325477333306  0.40005990616782117  1.0000
  O   O4        1.0  0.8830438755309965  0.35360508791059736  0.4160797589956078  1.0000
  O   O5        1.0  0.7653015281378284  0.772934954933586  0.4000639788789866  1.0000
  O   O6        1.0  0.7667310362181003  0.5576542674270426  0.6175660861459265  1.0000
  O   O7        1.0  0.7660151515769664  0.5688915711573941  0.1985799408408493  1.0000
  O   O8        1.0  0.7674446165508109  0.35360915112874003  0.41608212779941933  1.0000
