data_image0
_chemical_formula_structural       NC8NH3C6NH7C9H8Zn2C4O8
_chemical_formula_sum              "N3 C27 H18 Zn2 O8"
_cell_length_a       13.859017981522156
_cell_length_b       9.274771166103582
_cell_length_c       9.273585224739813
_cell_angle_alpha    86.03363261937257
_cell_angle_beta     90.10206682284496
_cell_angle_gamma    90.59707920365587

_space_group_name_H-M_alt    "P 1"
_space_group_IT_number       1

loop_
  _space_group_symop_operation_xyz
  'x, y, z'

loop_
  _atom_site_type_symbol
  _atom_site_label
  _atom_site_symmetry_multiplicity
  _atom_site_fract_x
  _atom_site_fract_y
  _atom_site_fract_z
  _atom_site_occupancy
  N   N1        1.0  0.9175877615688945  0.5625182395884922  0.4073120799417651  1.0000
  C   C1        1.0  0.8451067427281711  0.5548645885382324  0.34601876774037543  1.0000
  C   C2        1.0  0.7549446491631254  0.5453448201505693  0.2697778622275373  1.0000
  C   C3        1.0  0.7544555025734928  0.5267803676930529  0.12110435703226254  1.0000
  C   C4        1.0  0.6668701417087797  0.517536297788447  0.047064637913365015  1.0000
  C   C5        1.0  0.5795902383181808  0.5267820879706235  0.12110410561389662  1.0000
  C   C6        1.0  0.5797144188278173  0.5453457918050291  0.2697776766803662  1.0000
  C   C7        1.0  0.6674829152303469  0.5546259595659897  0.34410328732424583  1.0000
  C   C8        1.0  0.4898669319591707  0.5548654900887919  0.3460185256922679  1.0000
  N   N2        1.0  0.4176388479709506  0.5625185522035634  0.40731198577616645  1.0000
  H   H1        1.0  0.8216303021427317  0.5194751297803775  0.062602901638805  1.0000
  H   H2        1.0  0.6666332065874464  0.5031963160255355  0.932220751878671  1.0000
  H   H3        1.0  0.6677203225601416  0.5689948700766487  0.45918065900297816  1.0000
  C   C9        1.0  0.1646566017381763  0.1389298179744778  0.40809762601402455  1.0000
  C   C10       1.0  0.1422903706680625  0.22093220669160463  0.27920913593619723  1.0000
  C   C11       1.0  0.12893192131633135  0.15456817620544494  0.14950290236023722  1.0000
  C   C12       1.0  0.13798910024336042  0.004814762003731314  0.14774568446429037  1.0000
  C   C13       1.0  0.15856884706008678  0.9214749985843891  0.27486362383397056  1.0000
  C   C14       1.0  0.17057920199820978  0.9860960628221302  0.40653894585929656  1.0000
  N   N3        1.0  0.10715672235629325  0.23965570578901715  0.019197852919003115  1.0000
  H   H4        1.0  0.27364558750237045  0.22178724210183962  0.7235274027188359  1.0000
  H   H5        1.0  0.13742457433642888  0.3375193000504937  0.2786554978130955  1.0000
  H   H6        1.0  0.12816779950536605  0.9523160531008724  0.04794982372770074  1.0000
  H   H7        1.0  0.16281590505492516  0.8052691491196723  0.2707358447150894  1.0000
  H   H8        1.0  0.24007960034338205  0.691204912989956  0.6211428784621424  1.0000
  H   H9        1.0  0.10050868760480405  0.351729128009435  0.019151041564574367  1.0000
  H   H10       1.0  0.0974292541863202  0.19119822852222756  0.9217722626428824  1.0000
  C   C15       1.0  0.1670828106941853  0.5582231476545301  0.9840746409749319  1.0000
  C   C16       1.0  0.2529676527582311  0.5260965534911546  0.06009050952960938  1.0000
  C   C17       1.0  0.3402490960788511  0.5069526632152694  0.9878653438154452  1.0000
  C   C18       1.0  0.3408667063069222  0.5207463634141771  0.8357807387551892  1.0000
  C   C19       1.0  0.255994078826115  0.5501608958143007  0.7587661405714945  1.0000
  C   C20       1.0  0.16815298274747925  0.5668026885932917  0.8305618958479495  1.0000
  C   C21       1.0  0.4294509931336718  0.4738734394556803  0.07944139719780718  1.0000
  C   C22       1.0  0.5042084536089089  0.3749020593994358  0.019385540543964023  1.0000
  C   C23       1.0  0.5253408210154611  0.5361855759722964  0.022992672027450697  1.0000
  H   H11       1.0  0.007686691450234042  0.5393854818561599  0.26539354859149866  1.0000
  H   H12       1.0  0.25245938494076237  0.5191352263475515  0.1772728265379138  1.0000
  H   H13       1.0  0.4062188346969746  0.5077130791445583  0.7748703805940869  1.0000
  H   H14       1.0  0.025338216956499297  0.6692940823502778  0.5417032272664684  1.0000
  H   H15       1.0  0.42304416953424573  0.46457051040624653  0.19922036388230868  1.0000
  H   H16       1.0  0.49097096952158564  0.33778360807774604  0.9098760014670085  1.0000
  H   H17       1.0  0.543781463509474  0.30736586071103433  0.1030310889911781  1.0000
  H   H18       1.0  0.5248945938244656  0.5968604704435088  0.9156618863521958  1.0000
  Zn  Zn1       1.0  0.06189169298790412  0.5625145622446925  0.4073203791446893  1.0000
  Zn  Zn2       1.0  0.27333485188512263  0.5625105799331973  0.4073155007924367  1.0000
  C   C24       1.0  0.16790836621269375  0.5594345421932121  0.6705682554519043  1.0000
  C   C25       1.0  0.16732050051578654  0.5655924213991763  0.14406776254567058  1.0000
  C   C26       1.0  0.16944746507215003  0.8259053662604241  0.40109013369943924  1.0000
  C   C27       1.0  0.16578131748694735  0.29911986507509347  0.4135459643295404  1.0000
  O   O1        1.0  0.24764180425293808  0.5680578127489864  0.19776107596927872  1.0000
  O   O2        1.0  0.24806751948478978  0.5569650359725491  0.6168708265792451  1.0000
  O   O3        1.0  0.2493092814781919  0.7721436116002811  0.3992653339270795  1.0000
  O   O4        1.0  0.2463999700438249  0.3528792463460106  0.4153664605376126  1.0000
  O   O5        1.0  0.08882650267403047  0.7721458958347318  0.3992694193935937  1.0000
  O   O6        1.0  0.08758475269483991  0.5569690524667217  0.616874832008435  1.0000
  O   O7        1.0  0.08715903498500865  0.5680617614139047  0.1977633486468  1.0000
  O   O8        1.0  0.08591720083643462  0.35288318578902467  0.41536884129304674  1.0000
