data_image0
_chemical_formula_structural       NC9NC5H8C6H6C6NH7Zn2C4O8
_chemical_formula_sum              "N3 C30 H21 Zn2 O8"
_cell_length_a       17.807436237873137
_cell_length_b       10.681118228259551
_cell_length_c       9.274774538082516
_cell_angle_alpha    85.06361991993052
_cell_angle_beta     89.72824813723155
_cell_angle_gamma    88.3900060031841

_space_group_name_H-M_alt    "P 1"
_space_group_IT_number       1

loop_
  _space_group_symop_operation_xyz
  'x, y, z'

loop_
  _atom_site_type_symbol
  _atom_site_label
  _atom_site_symmetry_multiplicity
  _atom_site_fract_x
  _atom_site_fract_y
  _atom_site_fract_z
  _atom_site_occupancy
  N   N1        1.0  0.7023110733168653  0.35055512604675687  0.3966159969231724  1.0000
  C   C1        1.0  0.6416845868266597  0.3167165315782554  0.3843656845253458  1.0000
  C   C2        1.0  0.5662719009953218  0.2746250467064737  0.36912762602725224  1.0000
  C   C3        1.0  0.5478093667586326  0.2066598198495044  0.25244352834836725  1.0000
  C   C4        1.0  0.4745872486721091  0.16568542638816575  0.23755653504965205  1.0000
  C   C5        1.0  0.41877883170148544  0.19231249051574517  0.33931757741575064  1.0000
  C   C6        1.0  0.3409628856428862  0.1488773725527998  0.32358776377355514  1.0000
  C   C7        1.0  0.2788781970379135  0.22749165788839432  0.35241234176698755  1.0000
  C   C8        1.0  0.20551382249155747  0.18632136007885933  0.3375405514432156  1.0000
  C   C9        1.0  0.1423803297986646  0.2675277662210327  0.36676951693677246  1.0000
  N   N2        1.0  0.0916339873999511  0.3328120892113124  0.39026879788329666  1.0000
  C   C10       1.0  0.19365050215447868  0.06628822715169778  0.29381601314316963  1.0000
  C   C11       1.0  0.2548777912866804  0.9876606560804451  0.2649821121178233  1.0000
  C   C12       1.0  0.3281220180488146  0.02845223770141914  0.2796288321016913  1.0000
  C   C13       1.0  0.4379335451840998  0.2607525509463573  0.456245293592869  1.0000
  C   C14       1.0  0.5112079845001632  0.30154468270648116  0.4709593203863125  1.0000
  H   H1        1.0  0.589950822386154  0.1855918762347779  0.17275295438308838  1.0000
  H   H2        1.0  0.46138162460928284  0.11463055468793314  0.14541142344854885  1.0000
  H   H3        1.0  0.2874777063525009  0.3212284847922011  0.3845018974166572  1.0000
  H   H4        1.0  0.13714803728942718  0.03355844073919134  0.2820424700328361  1.0000
  H   H5        1.0  0.2455756942356745  0.8947249235043812  0.23155860380769866  1.0000
  H   H6        1.0  0.3746955397323359  0.9652182822613534  0.25846133217636824  1.0000
  H   H7        1.0  0.3965135454359219  0.28128960750110943  0.5373743743230263  1.0000
  H   H8        1.0  0.5249382761644681  0.3537854724694949  0.5619469282672107  1.0000
  C   C15       1.0  0.8969761484183505  0.9739334059775384  0.3934485717363081  1.0000
  C   C16       1.0  0.9303191600228214  0.8970343505774521  0.5075217925508898  1.0000
  C   C17       1.0  0.9303191483275746  0.7661521134333295  0.5075217267574894  1.0000
  C   C18       1.0  0.8969761360040146  0.7094238100286272  0.39344863432786603  1.0000
  C   C19       1.0  0.863660725334021  0.7863094919439491  0.2794696798982075  1.0000
  C   C20       1.0  0.8636607369680859  0.9172017490698998  0.27946973828407234  1.0000
  H   H9        1.0  0.8632571376124705  0.28284220495488244  0.27809025961849576  1.0000
  H   H10       1.0  0.9564550299845908  0.9379398749182061  0.5969377212893214  1.0000
  H   H11       1.0  0.9564549375413618  0.7094358507281384  0.5969376973027386  1.0000
  H   H12       1.0  0.8375214475655393  0.7454497546169309  0.19004207612444568  1.0000
  H   H13       1.0  0.837521427836695  0.9738741946386368  0.19004206471075238  1.0000
  H   H14       1.0  0.8632574129544451  0.420912844467452  0.2780898647209262  1.0000
  C   C21       1.0  0.8956279429910989  0.34494301292707946  0.9696542681145246  1.0000
  C   C22       1.0  0.9488587324006889  0.41641846467164484  0.0355229569938702  1.0000
  C   C23       1.0  0.005459772017449406  0.4774244961155818  0.9538352733016927  1.0000
  C   C24       1.0  0.009288440179316295  0.4672225673644647  0.8047954382050464  1.0000
  C   C25       1.0  0.9562986681900919  0.39849485251688715  0.7372202576596414  1.0000
  C   C26       1.0  0.8983243255286879  0.33841413912154644  0.8172429346270684  1.0000
  N   N3        1.0  0.059552980045423295  0.5486864198881498  0.022695147229102815  1.0000
  H   H15       1.0  0.7833372726578667  0.10525526185491826  0.09740524727437586  1.0000
  H   H16       1.0  0.9475064795757593  0.42241947295829574  0.1515651327139842  1.0000
  H   H17       1.0  0.05298869486628544  0.5136153476093538  0.7405522222379668  1.0000
  H   H18       1.0  0.9596485542427613  0.39485872769535124  0.6209925943639059  1.0000
  H   H19       1.0  0.8203854395505503  0.1808935619643897  0.552431784687542  1.0000
  H   H20       1.0  0.0573714858295542  0.5566390526828648  0.13410063582883702  1.0000
  H   H21       1.0  0.10216893541805326  0.5941438195365867  0.9627582932525764  1.0000
  Zn  Zn1       1.0  0.814661281842324  0.3454314630576525  0.39479267871816015  1.0000
  Zn  Zn2       1.0  0.9792837984209845  0.33792545267600266  0.392103980420073  1.0000
  C   C27       1.0  0.8978129800626266  0.33465941586268255  0.6570305563422213  1.0000
  C   C28       1.0  0.89613389832401  0.34869899691797723  0.12986621508211105  1.0000
  C   C29       1.0  0.8969539691637362  0.5704449169940581  0.3876978008249572  1.0000
  C   C30       1.0  0.8969928532935548  0.11291199317198486  0.39919904845780096  1.0000
  O   O1        1.0  0.9587770886600003  0.3471055842203683  0.18261446104632764  1.0000
  O   O2        1.0  0.9601144693825235  0.3305549988218856  0.6022412351473492  1.0000
  O   O3        1.0  0.9594199698206458  0.5209547997402373  0.38475314324830334  1.0000
  O   O4        1.0  0.9594715317031307  0.15670579565527443  0.4001024456557234  1.0000
  O   O5        1.0  0.8344734923825683  0.5266511226412355  0.3867942143924395  1.0000
  O   O6        1.0  0.8351679916961819  0.3362528269003555  0.6042822293429895  1.0000
  O   O7        1.0  0.833830605503845  0.352803382021903  0.18465372014229975  1.0000
  O   O8        1.0  0.8345250488881129  0.16240358366640617  0.402141812951276  1.0000
