data_image0
_chemical_formula_structural       NC9NC3NH7C7F3H5C7ONH7Zn2C4O8
_chemical_formula_sum              "N4 C30 H19 F3 O9 Zn2"
_cell_length_a       16.053384444249904
_cell_length_b       9.272718291674593
_cell_length_c       10.297855452804892
_cell_angle_alpha    85.97219489806729
_cell_angle_beta     89.79073978720562
_cell_angle_gamma    88.75080299671951

_space_group_name_H-M_alt    "P 1"
_space_group_IT_number       1

loop_
  _space_group_symop_operation_xyz
  'x, y, z'

loop_
  _atom_site_type_symbol
  _atom_site_label
  _atom_site_symmetry_multiplicity
  _atom_site_fract_x
  _atom_site_fract_y
  _atom_site_fract_z
  _atom_site_occupancy
  N   N1        1.0  0.7778923186904345  0.5593040529128381  0.5748927385571765  1.0000
  C   C1        1.0  0.7272464255405219  0.5362242358360398  0.49987565049596455  1.0000
  C   C2        1.0  0.6643073989257258  0.5075473053803397  0.4066860977712384  1.0000
  C   C3        1.0  0.6779997392569855  0.49418549358761044  0.27584057057190475  1.0000
  C   C4        1.0  0.6015032007821469  0.4660845151862232  0.22338706565829997  1.0000
  C   C5        1.0  0.5444034430403419  0.463866151609824  0.32506025639905106  1.0000
  C   C6        1.0  0.45386583680213477  0.4374216158783313  0.3146317396399376  1.0000
  C   C7        1.0  0.3977538636710825  0.48481019774859635  0.4088767129978728  1.0000
  C   C8        1.0  0.3123142433444397  0.4597300562308291  0.3988898579510647  1.0000
  C   C9        1.0  0.2554135717440709  0.5090550430787213  0.49552031026186466  1.0000
  N   N2        1.0  0.20968212661706276  0.5487053774195303  0.573196066443192  1.0000
  C   C10       1.0  0.2822610977296376  0.387136994716476  0.29467089536927144  1.0000
  C   C11       1.0  0.3373639208290907  0.33988113999591674  0.2006385291557842  1.0000
  C   C12       1.0  0.4225984179911371  0.36477742510170197  0.2102274845759225  1.0000
  N   N3        1.0  0.5834676468652596  0.48933081613350793  0.43680683234287  1.0000
  H   H1        1.0  0.7367000198379157  0.5037916474806632  0.22428153007726853  1.0000
  H   H2        1.0  0.5893220398218711  0.4508292310809332  0.12209129026323207  1.0000
  H   H3        1.0  0.4198110496481221  0.5430246391470608  0.4890845118451498  1.0000
  H   H4        1.0  0.21632553040878597  0.36719211090778203  0.28610118476238  1.0000
  H   H5        1.0  0.314008611651685  0.2834895895124725  0.12020925113436023  1.0000
  H   H6        1.0  0.4638962838548055  0.3254513306781581  0.1366999575848391  1.0000
  H   H7        1.0  0.5572799202819978  0.4919257221535962  0.529598878370518  1.0000
  C   C13       1.0  0.9956058890817847  0.13057834996503903  0.5711679682902839  1.0000
  C   C14       1.0  0.944826757468008  0.2131667116048459  0.48160299779716065  1.0000
  C   C15       1.0  0.8881515081422294  0.1470521384871144  0.4023099240456822  1.0000
  C   C16       1.0  0.8844637025278144  0.9958515053010023  0.4099182382856017  1.0000
  C   C17       1.0  0.9353053524534071  0.9123034617311155  0.49667228223849236  1.0000
  C   C18       1.0  0.9919765421946182  0.9774198201011337  0.5769319853662642  1.0000
  C   C19       1.0  0.8358576010711846  0.2372777092893052  0.30448749204509956  1.0000
  F   F1        1.0  0.8144449708699841  0.36920711351304014  0.351777717142993  1.0000
  F   F2        1.0  0.7631316596700153  0.16767125988540377  0.2776359026273179  1.0000
  F   F3        1.0  0.8808124603601906  0.2609935744459131  0.1905329244410801  1.0000
  H   H8        1.0  0.0945090468466594  0.2067522881667143  0.8510982704896239  1.0000
  H   H9        1.0  0.948152913338021  0.33005587308652484  0.4755444849649113  1.0000
  H   H10       1.0  0.8428241095392883  0.941801378417729  0.3476207243754321  1.0000
  H   H11       1.0  0.9319047107470811  0.7956172729837926  0.49843324052051036  1.0000
  H   H12       1.0  0.1708218860583095  0.857065122081716  0.7325629034938843  1.0000
  C   C20       1.0  0.9938232921550286  0.5541416220352511  0.192608792256858  1.0000
  C   C21       1.0  0.9084513721668408  0.5909949929425307  0.18979115183300155  1.0000
  C   C22       1.0  0.8649723344405766  0.6084497549094439  0.07135651796680542  1.0000
  C   C23       1.0  0.9083514568377506  0.5906731174453219  0.954556429591733  1.0000
  C   C24       1.0  0.9937591442802082  0.5538565110738229  0.955491102939358  1.0000
  C   C25       1.0  0.03588704608072568  0.5355003470544655  0.0749794028904367  1.0000
  C   C26       1.0  0.7748636669478474  0.6477151355112616  0.07095823699081283  1.0000
  O   O1        1.0  0.7437689252611951  0.7099980644212955  0.16530768346508573  1.0000
  N   N4        1.0  0.7217210779547191  0.6149272905263357  0.9663115240164841  1.0000
  H   H13       1.0  0.15523953584223293  0.4850039515832277  0.40516928057457613  1.0000
  H   H14       1.0  0.875452750289684  0.604949644228961  0.2801677787045318  1.0000
  H   H15       1.0  0.8762757690682256  0.6080850736535864  0.8624041400024385  1.0000
  H   H16       1.0  0.10168352037105888  0.5070934713513613  0.07639756172199808  1.0000
  H   H17       1.0  0.1554840458263178  0.48653566864248005  0.7498374102170124  1.0000
  H   H18       1.0  0.6593712974222814  0.6494824008825448  0.9656943712885441  1.0000
  H   H19       1.0  0.741805024377597  0.5486598355098629  0.8940983206249604  1.0000
  Zn  Zn1       1.0  0.9024975436658234  0.5562416558240137  0.5744105837187314  1.0000
  Zn  Zn2       1.0  0.08507692763464214  0.5517560233338688  0.5736887575838787  1.0000
  C   C27       1.0  0.9937940354066018  0.5481662521237343  0.8112509337252103  1.0000
  C   C28       1.0  0.9937824218472019  0.559833197330099  0.33684853956881633  1.0000
  C   C29       1.0  0.9926587243805876  0.8173508007409125  0.5706662942860645  1.0000
  C   C30       1.0  0.9949176779902902  0.29064691784492225  0.5774332367147277  1.0000
  O   O2        1.0  0.06305665705387842  0.5600347772798908  0.3849827443404127  1.0000
  O   O3        1.0  0.06309333272619355  0.5445590932778118  0.7625684982985061  1.0000
  O   O4        1.0  0.06217562056679937  0.7619290430322112  0.568294713672618  1.0000
  O   O5        1.0  0.0639743068752785  0.3426648394072749  0.5792564318897029  1.0000
  O   O6        1.0  0.9236001021197978  0.7653328412829075  0.5688429096524095  1.0000
  O   O7        1.0  0.9245178068567284  0.5479646239288041  0.7631166368110345  1.0000
  O   O8        1.0  0.9244811315864687  0.5634402582662901  0.38552932081423297  1.0000
  O   O9        1.0  0.9253987814404736  0.3460703100441891  0.5798031056796236  1.0000
