data_image0
_chemical_formula_structural       NC10NC3NH7C6NCOC6H11C7OC3NC3H11Zn2C4O8
_chemical_formula_sum              "N5 C43 H29 O10 Zn2"
_cell_length_a       19.210446455230148
_cell_length_b       10.29965916528486
_cell_length_c       10.298749378158432
_cell_angle_alpha    85.57464278776025
_cell_angle_beta     89.9995885785224
_cell_angle_gamma    89.96405462056512

_space_group_name_H-M_alt    "P 1"
_space_group_IT_number       1

loop_
  _space_group_symop_operation_xyz
  'x, y, z'

loop_
  _atom_site_type_symbol
  _atom_site_label
  _atom_site_symmetry_multiplicity
  _atom_site_fract_x
  _atom_site_fract_y
  _atom_site_fract_z
  _atom_site_occupancy
  N   N1        1.0  0.6555723677192957  0.42027227579365034  0.5677227256440024  1.0000
  C   C1        1.0  0.5953440131288621  0.4224796845023433  0.5679546979748943  1.0000
  C   C2        1.0  0.5205398149961991  0.42521646710306404  0.5682420835065243  1.0000
  C   C3        1.0  0.4849394259006782  0.5414410613197597  0.5833974930464684  1.0000
  C   C4        1.0  0.4122739522862766  0.5415925979219656  0.5833449468016004  1.0000
  C   C5        1.0  0.3753731236276835  0.42592539843912003  0.5683288323059101  1.0000
  C   C6        1.0  0.2980508766344093  0.42456898909837015  0.5681777332369302  1.0000
  C   C7        1.0  0.2602978262246829  0.5281418762544199  0.5048487264276145  1.0000
  C   C8        1.0  0.1875193540266303  0.5267397094077158  0.5047391317034853  1.0000
  C   C9        1.0  0.15149253521616043  0.42202216042651575  0.5679076369143957  1.0000
  C   C10       1.0  0.0765629030093726  0.42072014169221084  0.5677703220795836  1.0000
  N   N2        1.0  0.016324960521485896  0.41967327441929353  0.5676599558149182  1.0000
  C   C11       1.0  0.1885219349536709  0.31857496347941683  0.6312116791520033  1.0000
  C   C12       1.0  0.26130224075399733  0.3197028677623646  0.6313714236124338  1.0000
  C   C13       1.0  0.4135835416832216  0.31152096232153315  0.5534622745464234  1.0000
  N   N3        1.0  0.48435368952215974  0.31396582755894986  0.5536287427738009  1.0000
  H   H1        1.0  0.513048350898726  0.6308700605157698  0.5954795139504281  1.0000
  H   H2        1.0  0.3850132515310554  0.6316033001598398  0.5968220138425009  1.0000
  H   H3        1.0  0.28702558316926846  0.6093972502866585  0.45388371498636304  1.0000
  H   H4        1.0  0.1593735007088379  0.6071672764278879  0.45510431693277376  1.0000
  H   H5        1.0  0.1611543742850199  0.23718404629972278  0.6807466498091035  1.0000
  H   H6        1.0  0.28880338563452096  0.23939433764089624  0.6824441219315363  1.0000
  H   H7        1.0  0.3873099795124524  0.2206473768030988  0.5399386419019341  1.0000
  C   C14       1.0  0.8358907504414215  0.03861220982885305  0.5675758657911809  1.0000
  C   C15       1.0  0.8363524517239466  0.04790334296781841  0.43075026714002473  1.0000
  C   C16       1.0  0.8376115082909382  0.9357462029885435  0.3619096603294133  1.0000
  C   C17       1.0  0.8364836301202879  0.8127128086336239  0.43104664925277797  1.0000
  C   C18       1.0  0.8360132151243578  0.801323335907288  0.5678180220415616  1.0000
  C   C19       1.0  0.8359643763331962  0.9148805476520319  0.6353105952639033  1.0000
  N   N4        1.0  0.8370141524045662  0.9488312061087957  0.2218338814487377  1.0000
  C   C20       1.0  0.8696369353445466  0.8576545637637092  0.14209654457890308  1.0000
  O   O1        1.0  0.9176609886741496  0.7847524089242783  0.18906949977166487  1.0000
  C   C21       1.0  0.8493923280337516  0.8515026773596008  0.0037242123009035887  1.0000
  C   C22       1.0  0.7850217658928055  0.9014705765689958  0.9573864222086714  1.0000
  C   C23       1.0  0.7663580571490002  0.8944986945038067  0.8268579686932198  1.0000
  C   C24       1.0  0.8114164093292553  0.837343779626258  0.7413875757118777  1.0000
  C   C25       1.0  0.8751740849252772  0.7865894875971124  0.7863491576840493  1.0000
  C   C26       1.0  0.894103524869004  0.7932046043469688  0.916773083135482  1.0000
  H   H8        1.0  0.834355432879566  0.22835110769745667  0.8256729206936512  1.0000
  H   H9        1.0  0.8362678762210205  0.14251711845356563  0.3769235652269151  1.0000
  H   H10       1.0  0.834750535065468  0.7259293369869853  0.3782379652201502  1.0000
  H   H11       1.0  0.8356177645710026  0.9068527290296591  0.7407876899191306  1.0000
  H   H12       1.0  0.8349066766072176  0.4695067901969054  0.6202833271270805  1.0000
  H   H13       1.0  0.8171488086983756  0.035000830554293934  0.17589374054419782  1.0000
  H   H14       1.0  0.7485502291879635  0.9442227476747677  0.021879568609443067  1.0000
  H   H15       1.0  0.7167464268425096  0.9330171908833662  0.7920784599860791  1.0000
  H   H16       1.0  0.7968305356795963  0.8320188446270018  0.640425659896366  1.0000
  H   H17       1.0  0.9099984824582812  0.742044419562778  0.7200924570820603  1.0000
  H   H18       1.0  0.9438892838939908  0.7534998782357021  0.9493337005081107  1.0000
  C   C27       1.0  0.8359198883595278  0.4199958472870285  0.18629591340919505  1.0000
  C   C28       1.0  0.8739614603235178  0.5367947702314486  0.17630672198761732  1.0000
  C   C29       1.0  0.8924992713595903  0.5966584189761508  0.05401718962848  1.0000
  C   C30       1.0  0.873964234655488  0.5368436259338469  0.9410627076001491  1.0000
  C   C31       1.0  0.8359840685047852  0.41993970966892663  0.9490979941989414  1.0000
  C   C32       1.0  0.8170430350974557  0.3624385056145212  0.072137062568298  1.0000
  C   C33       1.0  0.93323527030125  0.7193559326271002  0.043368952698172876  1.0000
  O   O2        1.0  0.9767333055884347  0.7376260917009213  0.9520202957533148  1.0000
  C   C34       1.0  0.9246265887387637  0.821318707904243  0.13629251162763212  1.0000
  C   C35       1.0  0.8595081902722175  0.8440003186151849  0.1930152776277736  1.0000
  C   C36       1.0  0.8517374418844124  0.9415130195521026  0.2797478659782169  1.0000
  N   N5        1.0  0.785467525689833  0.9634741821804595  0.3374384884270356  1.0000
  C   C37       1.0  0.9091890650159379  0.01766699633063062  0.30915975827132836  1.0000
  C   C38       1.0  0.9737592413564875  0.9969369024431223  0.25197837296351766  1.0000
  C   C39       1.0  0.9814899249107337  0.8997359314126916  0.16562269519008188  1.0000
  H   H19       1.0  0.7649624175762472  0.19828819216889865  0.4126105019845785  1.0000
  H   H20       1.0  0.8898655855701724  0.5806131690353182  0.26386402880299387  1.0000
  H   H21       1.0  0.8886519451099143  0.5823401604155645  0.8466682949710571  1.0000
  H   H22       1.0  0.7877231613626433  0.27240521389613304  0.07908513510777326  1.0000
  H   H23       1.0  0.7644726119002295  0.19881194965605722  0.7569962490399827  1.0000
  H   H24       1.0  0.8145852598746465  0.787068985512466  0.1689619936684732  1.0000
  H   H25       1.0  0.7422943297245078  0.9072751038282275  0.3162001268450316  1.0000
  H   H26       1.0  0.7791012857331  0.03600147540825606  0.401950347543093  1.0000
  H   H27       1.0  0.9038524060414316  0.09328846794906465  0.3759177634042561  1.0000
  H   H28       1.0  0.0179389277822013  0.056329229357038116  0.2746259233528389  1.0000
  H   H29       1.0  0.032057244947361285  0.8850076134246697  0.12260878429222855  1.0000
  Zn  Zn1       1.0  0.7596777725524697  0.4200959524067569  0.5677121102262863  1.0000
  Zn  Zn2       1.0  0.912219538944234  0.4198390147077051  0.567681204545696  1.0000
  C   C40       1.0  0.8359695684167691  0.4147767771589755  0.8049104273302752  1.0000
  C   C41       1.0  0.8359294091051322  0.42515982572409344  0.33048301510169725  1.0000
  C   C42       1.0  0.835986057104867  0.6571551126115089  0.5625966610490936  1.0000
  C   C43       1.0  0.8359128681204724  0.1827799300856956  0.5727968501424641  1.0000
  O   O3        1.0  0.893821408812126  0.42678973192587993  0.3788617932514522  1.0000
  O   O4        1.0  0.8938532396361257  0.4129508815151768  0.7565078182954539  1.0000
  O   O5        1.0  0.893865774205169  0.608674453900603  0.5608377382001719  1.0000
  O   O6        1.0  0.8938088221842067  0.23106616892531195  0.5745317759773592  1.0000
  O   O7        1.0  0.7780884372574787  0.6088687982782446  0.5608615387983386  1.0000
  O   O8        1.0  0.778075902929979  0.41314678616777734  0.7565315501377508  1.0000
  O   O9        1.0  0.7780440720135852  0.4269855914382985  0.37888396354714815  1.0000
  O   O10       1.0  0.7780314853895233  0.23126201914196676  0.574554043646146  1.0000
