data_image0
_chemical_formula_structural       NC8NC6H8C7F3H5C6SCH8Zn2C4O8
_chemical_formula_sum              "N2 C32 H21 F3 S1 Zn2 O8"
_cell_length_a       17.457602349358154
_cell_length_b       9.27228830945605
_cell_length_c       10.302812801239593
_cell_angle_alpha    85.26210475024874
_cell_angle_beta     92.87590592568559
_cell_angle_gamma    91.12935064675003

_space_group_name_H-M_alt    "P 1"
_space_group_IT_number       1

loop_
  _space_group_symop_operation_xyz
  'x, y, z'

loop_
  _atom_site_type_symbol
  _atom_site_label
  _atom_site_symmetry_multiplicity
  _atom_site_fract_x
  _atom_site_fract_y
  _atom_site_fract_z
  _atom_site_occupancy
  N   N1        1.0  0.7138269329826475  0.6141447098009569  0.6186372066515184  1.0000
  C   C1        1.0  0.6530207926815635  0.5631204106682395  0.6082872270887771  1.0000
  C   C2        1.0  0.5773753372950976  0.4996525313758723  0.5954213588185204  1.0000
  C   C3        1.0  0.518609022811184  0.5442734039631272  0.6700659862813746  1.0000
  C   C4        1.0  0.44438911395798414  0.48315897807167935  0.6578022595267854  1.0000
  C   C5        1.0  0.3820186277431365  0.5302720471757767  0.7368544819405141  1.0000
  C   C6        1.0  0.3073626665374319  0.5507911430650316  0.6810030042674439  1.0000
  C   C7        1.0  0.24859743770706955  0.5952076685485117  0.7557566023216731  1.0000
  C   C8        1.0  0.17249973570256624  0.6163998911282857  0.6976868994718799  1.0000
  N   N2        1.0  0.11133013755426228  0.6334313500428477  0.6509990458325392  1.0000
  C   C9        1.0  0.263994568418803  0.6193752345563031  0.8868686463251226  1.0000
  C   C10       1.0  0.3378635235224028  0.5992883138710892  0.9431053775426368  1.0000
  C   C11       1.0  0.39661608183345  0.555071833151537  0.8688083279282638  1.0000
  C   C12       1.0  0.4302281745286961  0.3766710492833121  0.5694653072824098  1.0000
  C   C13       1.0  0.48898112158586116  0.33235979775048885  0.495218964919274  1.0000
  C   C14       1.0  0.5624155997113279  0.39359907505312963  0.5080318262626375  1.0000
  H   H1        1.0  0.5305080497897626  0.6278164562766362  0.7362460840570229  1.0000
  H   H2        1.0  0.29510626427000375  0.5341589556568955  0.5790961781386104  1.0000
  H   H3        1.0  0.2189508262143394  0.6536867969452416  0.9455095054949553  1.0000
  H   H4        1.0  0.3495969963022904  0.6176511107735265  0.044630160651966004  1.0000
  H   H5        1.0  0.4531904188806476  0.5384153588465408  0.9149859242613313  1.0000
  H   H6        1.0  0.3740118225073206  0.32630188966050566  0.5590758530162485  1.0000
  H   H7        1.0  0.4775892970417024  0.25005717146227036  0.4278345440409348  1.0000
  H   H8        1.0  0.6074645328177289  0.35832125027426737  0.4499069003301377  1.0000
  C   C15       1.0  0.9148392082530757  0.20007307766279836  0.6370030747350943  1.0000
  C   C16       1.0  0.9512821281455596  0.28385096570796775  0.53742536358469  1.0000
  C   C17       1.0  0.980150392755194  0.21963540983727814  0.43270445311782896  1.0000
  C   C18       1.0  0.972294959902151  0.07004957789991817  0.4237661880169598  1.0000
  C   C19       1.0  0.938649925559939  0.9847249890059241  0.5252242529030237  1.0000
  C   C20       1.0  0.9103252708366616  0.04749222221879168  0.6326450824809877  1.0000
  C   C21       1.0  0.005447946636773617  0.00011691115002743182  0.3124261811273237  1.0000
  F   F1        1.0  0.004783714114217517  0.09468467919010283  0.20115470033926794  1.0000
  F   F2        1.0  0.9632116246724459  0.8777145412790381  0.28423922705063753  1.0000
  F   F3        1.0  0.08024249887760404  0.9611885720689686  0.34663041600091793  1.0000
  H   H9        1.0  0.7858872687537999  0.2763930023192574  0.8600306957189364  1.0000
  H   H10       1.0  0.956120202846995  0.40034997480903134  0.5391626489491426  1.0000
  H   H11       1.0  0.008097536897009091  0.28746868853410135  0.35793855527190876  1.0000
  H   H12       1.0  0.9361990960987597  0.8681672634943404  0.5221053908604598  1.0000
  H   H13       1.0  0.8746042535758518  0.916071651693126  0.9441578113224144  1.0000
  C   C22       1.0  0.9125822527309249  0.623782649555608  0.25357560844266436  1.0000
  C   C23       1.0  0.8859486643961662  0.7664184165549276  0.23953242771550906  1.0000
  C   C24       1.0  0.872500023146403  0.8371670599343108  0.11555439483027885  1.0000
  C   C25       1.0  0.8859485960549864  0.7664182617352879  0.004381253175668625  1.0000
  C   C26       1.0  0.9125822030316098  0.6237826374179877  0.016072508071833587  1.0000
  C   C27       1.0  0.9257452850055452  0.5531480320037658  0.14119384251889855  1.0000
  S   S1        1.0  0.8386286341106032  0.01951982083801473  0.09911928476673926  1.0000
  C   C28       1.0  0.7380056370278787  0.9642121524462607  0.09467681810741313  1.0000
  H   H14       1.0  0.9225907614427773  0.5700102626040706  0.58617994303176  1.0000
  H   H15       1.0  0.8753687535722331  0.8230737029553052  0.32452099967143244  1.0000
  H   H16       1.0  0.8753686011163336  0.8230734876552118  0.9091706752562487  1.0000
  H   H17       1.0  0.9462750943996452  0.4431165024341379  0.1511184682054183  1.0000
  H   H18       1.0  0.9225893372734122  0.5700094442051624  0.6931642450996978  1.0000
  H   H19       1.0  0.7247465613674434  0.8993633305013518  0.01025330548629144  1.0000
  H   H20       1.0  0.7247468821065108  0.8993648046534353  0.1864880167652665  1.0000
  H   H21       1.0  0.7019761268867373  0.06208215063280109  0.08433806749413585  1.0000
  Zn  Zn1       1.0  0.8285377919232683  0.6197065481476829  0.6279836503842702  1.0000
  Zn  Zn2       1.0  0.9966193273787405  0.6278576815702639  0.6416632921076307  1.0000
  C   C29       1.0  0.9126111220154539  0.6180344007654347  0.8719737022496855  1.0000
  C   C30       1.0  0.9125478230340508  0.6295317385301895  0.39767350768704923  1.0000
  C   C31       1.0  0.9111745376019978  0.8873117577991187  0.6282949581906034  1.0000
  C   C32       1.0  0.9139843593271663  0.36025264516065025  0.6413523252101239  1.0000
  O   O1        1.0  0.9763223683851773  0.6345482031121938  0.45122546413847164  1.0000
  O   O2        1.0  0.9764065787312295  0.6192033693384988  0.8288039092108391  1.0000
  O   O3        1.0  0.9752456587825031  0.8366481989208053  0.6320315216170975  1.0000
  O   O4        1.0  0.9774832309240864  0.4171033810702429  0.6479977496672846  1.0000
  O   O5        1.0  0.8476738310199353  0.8304608458676925  0.6216491881495889  1.0000
  O   O6        1.0  0.8488347417310147  0.613017749841229  0.8184214976043108  1.0000
  O   O7        1.0  0.8487505317039027  0.6283625333363696  0.44084149188716193  1.0000
  O   O8        1.0  0.8499113942946421  0.41091770097405095  0.6376138748058764  1.0000
