data_image0
_chemical_formula_structural       NC5NC4H6C9H8C7F3H5Zn2C4O8
_chemical_formula_sum              "N2 C29 H19 F3 Zn2 O8"
_cell_length_a       13.854160002989762
_cell_length_b       9.275152443626249
_cell_length_c       10.299327507215196
_cell_angle_alpha    85.35552067985554
_cell_angle_beta     89.98119510094074
_cell_angle_gamma    90.57354205828562

_space_group_name_H-M_alt    "P 1"
_space_group_IT_number       1

loop_
  _space_group_symop_operation_xyz
  'x, y, z'

loop_
  _atom_site_type_symbol
  _atom_site_label
  _atom_site_symmetry_multiplicity
  _atom_site_fract_x
  _atom_site_fract_y
  _atom_site_fract_z
  _atom_site_occupancy
  N   N1        1.0  0.9198414040767195  0.5790141799588424  0.5625374139244246  1.0000
  C   C1        1.0  0.8476907820306446  0.6042413654193529  0.5092630859921141  1.0000
  C   C2        1.0  0.7579343950574443  0.6356246684646067  0.44298778306150904  1.0000
  C   C3        1.0  0.6701496872742033  0.6061231817751195  0.5076961811029181  1.0000
  C   C4        1.0  0.5827919827873764  0.6356246828012639  0.44298776214038593  1.0000
  C   C5        1.0  0.4925826396583802  0.6042412180463621  0.5092631689933338  1.0000
  N   N2        1.0  0.4200678330532187  0.5790141164443641  0.5625374140434053  1.0000
  C   C6        1.0  0.5832556815958767  0.6952342251721495  0.313586176062598  1.0000
  C   C7        1.0  0.6710220942837911  0.7268864454662778  0.24877791476701727  1.0000
  C   C8        1.0  0.6714572984764676  0.7867388114370405  0.10902490917630758  1.0000
  C   C9        1.0  0.7583327706425906  0.6952342238591855  0.31358609473323074  1.0000
  H   H1        1.0  0.669815351889195  0.559875229175749  0.6078509778604313  1.0000
  H   H2        1.0  0.5155410590547418  0.7170345628925425  0.2633827338808279  1.0000
  H   H3        1.0  0.7367737788695774  0.8549216389652289  0.08738352099968849  1.0000
  H   H4        1.0  0.6070653012091175  0.854921640833428  0.08738357963010857  1.0000
  H   H5        1.0  0.6708662461734239  0.6961995100744378  0.04484124296172043  1.0000
  H   H6        1.0  0.8263640189097081  0.7170346754192631  0.2633826565694277  1.0000
  C   C10       1.0  0.16711154104520443  0.15538164730551368  0.5638633584483039  1.0000
  C   C11       1.0  0.13231854960374798  0.2381380012616956  0.45352775716274324  1.0000
  C   C12       1.0  0.10649828604406282  0.17271392545656067  0.3411263987848627  1.0000
  C   C13       1.0  0.11506569946872913  0.02337264425576046  0.3368351279769939  1.0000
  C   C14       1.0  0.14797142937377572  0.9389282869823002  0.44623825038472426  1.0000
  C   C15       1.0  0.17280686940771336  0.002635570789330408  0.5612227347648706  1.0000
  C   C16       1.0  0.08894320096765851  0.9562410194170528  0.2204364523178759  1.0000
  C   C17       1.0  0.0670717148693014  0.9000006402744238  0.12297081147172408  1.0000
  C   C18       1.0  0.04053499024025896  0.8317508881776766  0.004713349851203308  1.0000
  H   H7        1.0  0.30574336788577167  0.23699323151774723  0.8232398577478621  1.0000
  H   H8        1.0  0.12723412684669388  0.35465555072203947  0.45311923022502976  1.0000
  H   H9        1.0  0.08071199409216301  0.23896661468785574  0.2570124490451138  1.0000
  H   H10       1.0  0.1520362442329754  0.8226188130167172  0.442615205170291  1.0000
  H   H11       1.0  0.26304863385183774  0.7073089065234288  0.7386275516454527  1.0000
  H   H12       1.0  0.058177431086111606  0.7150271927140597  0.016846516179821247  1.0000
  H   H13       1.0  0.9619782944104267  0.844336195876845  0.9869334887115061  1.0000
  H   H14       1.0  0.08131773687351229  0.8841123295595436  0.920646828335773  1.0000
  C   C19       1.0  0.17005202797903118  0.5790671871805555  0.18116129881325294  1.0000
  C   C20       1.0  0.26423956672239046  0.636910504154284  0.1757105555827876  1.0000
  C   C21       1.0  0.31106510909254953  0.6685387546281798  0.05565699087936271  1.0000
  C   C22       1.0  0.2639958261363022  0.6367575269822345  0.9404735746855658  1.0000
  C   C23       1.0  0.16986640577446735  0.5789500203929551  0.9439248402658934  1.0000
  C   C24       1.0  0.12330063869913528  0.5509749039885579  0.06473958615470421  1.0000
  C   C25       1.0  0.41346763429127226  0.7257448596011216  0.051216371358810305  1.0000
  F   F1        1.0  0.4308941469119337  0.8099878755272016  0.1538449797147634  1.0000
  F   F2        1.0  0.47645132762093545  0.6107258241643063  0.0594438067949814  1.0000
  F   F3        1.0  0.43062884971253346  0.8099683027651634  0.9362016370325522  1.0000
  H   H15       1.0  0.9929476736383575  0.4674981766043092  0.3988611011367995  1.0000
  H   H16       1.0  0.3013918371923685  0.6572006035980928  0.2650438512481885  1.0000
  H   H17       1.0  0.3009808854937879  0.6569388144548514  0.848030646558411  1.0000
  H   H18       1.0  0.050705053640504705  0.506395402940178  0.06813578787693353  1.0000
  H   H19       1.0  0.13429225444408321  0.5543579658955214  0.6179699535141241  1.0000
  Zn  Zn1       1.0  0.06419592375687609  0.5790102981844478  0.5625449339715349  1.0000
  Zn  Zn2       1.0  0.275713232597147  0.5790061915178235  0.5625405969153865  1.0000
  C   C26       1.0  0.16986068035458501  0.5732251184469095  0.7997640986286025  1.0000
  C   C27       1.0  0.1700507979664887  0.5847931914035028  0.3253215540087444  1.0000
  C   C28       1.0  0.1717266162477109  0.8424873112454979  0.5565465492294772  1.0000
  C   C29       1.0  0.1681847782295922  0.3155292653792573  0.5685391780521358  1.0000
  O   O1        1.0  0.2503200592298788  0.58670703864693  0.37370142629733905  1.0000
  O   O2        1.0  0.2501281550989518  0.5713070660999304  0.7513805641479475  1.0000
  O   O3        1.0  0.2516338395277722  0.788739691883517  0.554980667550848  1.0000
  O   O4        1.0  0.24881430271760074  0.369274423199476  0.5701012254858069  1.0000
  O   O5        1.0  0.09109478145595751  0.7887420665057683  0.5549843053957586  1.0000
  O   O6        1.0  0.08958910869044363  0.5713111739508108  0.7513841273432358  1.0000
  O   O7        1.0  0.08978101292768943  0.5867110964664475  0.3737034281960101  1.0000
  O   O8        1.0  0.08827525631840483  0.36927847068583325  0.5701033247877536  1.0000
