data_image0
_chemical_formula_structural       NC6NC3H6C7NH3C6SCH7Zn2C4O8
_chemical_formula_sum              "N3 C27 H16 S1 Zn2 O8"
_cell_length_a       14.934028789175542
_cell_length_b       9.275154477615127
_cell_length_c       9.27527408847023
_cell_angle_alpha    86.32665131531041
_cell_angle_beta     89.70124822598929
_cell_angle_gamma    89.3962875590186

_space_group_name_H-M_alt    "P 1"
_space_group_IT_number       1

loop_
  _space_group_symop_operation_xyz
  'x, y, z'

loop_
  _atom_site_type_symbol
  _atom_site_label
  _atom_site_symmetry_multiplicity
  _atom_site_fract_x
  _atom_site_fract_y
  _atom_site_fract_z
  _atom_site_occupancy
  N   N1        1.0  0.8383064978849859  0.5620077324560744  0.4160473277223228  1.0000
  C   C1        1.0  0.7608292351652799  0.5609033543860196  0.4153642795112735  1.0000
  C   C2        1.0  0.664443654841595  0.5595244321453816  0.41451161963790506  1.0000
  C   C3        1.0  0.6158280964378146  0.6669148017517839  0.48081035798546506  1.0000
  C   C4        1.0  0.5223251658284819  0.6658076328598055  0.4801267049631355  1.0000
  C   C5        1.0  0.47652480866265634  0.5573649005408501  0.41317834816174015  1.0000
  C   C6        1.0  0.379860556056423  0.5596916611531134  0.4146160870183937  1.0000
  N   N2        1.0  0.3023657655031554  0.5615382421649078  0.41575744234163076  1.0000
  C   C7        1.0  0.5251465990291063  0.448488803393668  0.3459618264781277  1.0000
  C   C8        1.0  0.4777668198955951  0.3305890234206692  0.27317627686690066  1.0000
  C   C9        1.0  0.6192716243832197  0.4507257309568935  0.3473428727311014  1.0000
  H   H1        1.0  0.6502002891323547  0.7515284570934011  0.5330482032175308  1.0000
  H   H2        1.0  0.4856225897662439  0.7497696390008461  0.5319621033782411  1.0000
  H   H3        1.0  0.43498388875562916  0.3788082057998654  0.18478304134251267  1.0000
  H   H4        1.0  0.4351658362940318  0.2685163712372334  0.3530235340698201  1.0000
  H   H5        1.0  0.5258322433285934  0.25422356840737925  0.22602472483405125  1.0000
  H   H6        1.0  0.6574583876631404  0.3678806724910795  0.2961973248867713  1.0000
  C   C10       1.0  0.07293667729892106  0.13836521852680292  0.4142330518698044  1.0000
  C   C11       1.0  0.04874291379543317  0.22036248507660636  0.28718031726593907  1.0000
  C   C12       1.0  0.01724532994254479  0.15321353078648012  0.1668631187804912  1.0000
  C   C13       1.0  0.009421178468882687  0.003151367078336074  0.1721817523144147  1.0000
  C   C14       1.0  0.03445363512775223  0.9199180804012171  0.29633755256525257  1.0000
  C   C15       1.0  0.06774422493643346  0.9851697723501128  0.4175841580065629  1.0000
  C   C16       1.0  0.991864904309441  0.23877927123013973  0.03827962656337759  1.0000
  N   N3        1.0  0.971466090462131  0.3075585260895548  0.934931434844304  1.0000
  H   H7        1.0  0.0892272664671811  0.2183781039277484  0.7679778148770304  1.0000
  H   H8        1.0  0.9847361800806517  0.9501717625388358  0.0797107268218158  1.0000
  H   H9        1.0  0.0825165170675661  0.6886347442854138  0.6546008018025384  1.0000
  C   C17       1.0  0.07162252712506832  0.5577484996169246  0.9926949843139465  1.0000
  C   C18       1.0  0.147566231309342  0.6084230298755985  0.06219653067265397  1.0000
  C   C19       1.0  0.2184660886058466  0.6705897270009552  0.9823342330116992  1.0000
  C   C20       1.0  0.21461060100663928  0.6822189721497119  0.8318224763932212  1.0000
  C   C21       1.0  0.14058705531998594  0.6304510971711281  0.760812503603784  1.0000
  C   C22       1.0  0.06905837418342425  0.5657864943769072  0.8391221780541689  1.0000
  S   S1        1.0  0.3142362535472114  0.7358649944993592  0.07322120564162327  1.0000
  C   C23       1.0  0.26710402155009044  0.9163834648593582  0.08569630580669196  1.0000
  H   H10       1.0  0.8551498587135596  0.49864158062225106  0.10130038337147364  1.0000
  H   H11       1.0  0.26933658133702937  0.7304730876120262  0.7694814070320466  1.0000
  H   H12       1.0  0.1402781350539144  0.6379215576974575  0.6437827663568952  1.0000
  H   H13       1.0  0.9244196401896593  0.5201078998935109  0.5621165657602331  1.0000
  H   H14       1.0  0.25399489434725275  0.9667838034354928  0.97594160919091  1.0000
  H   H15       1.0  0.20383203159471175  0.9110313427396508  0.14907998707183803  1.0000
  H   H16       1.0  0.3156094918624367  0.9836085502268197  0.1409312925063242  1.0000
  Zn  Zn1       1.0  0.9722239902999514  0.5618684629643944  0.41597197386910756  1.0000
  Zn  Zn2       1.0  0.16844833988087526  0.5616658127606384  0.4158445321710107  1.0000
  C   C24       1.0  0.06957627309238473  0.5585231398762094  0.6791065874732227  1.0000
  C   C25       1.0  0.07109818826841889  0.5650129542263516  0.15271006582691515  1.0000
  C   C26       1.0  0.06873849392682606  0.8250511337805855  0.4112076913537054  1.0000
  C   C27       1.0  0.07193591086569984  0.29848322882361256  0.4206090319703474  1.0000
  O   O1        1.0  0.14538837196332638  0.5673677765737324  0.20636420058566407  1.0000
  O   O2        1.0  0.14421583833350304  0.5560134190546342  0.6253553082446941  1.0000
  O   O3        1.0  0.14353831268357875  0.7712381601063937  0.40902506078383793  1.0000
  O   O4        1.0  0.14606583091927924  0.3521430448792572  0.4226943400719812  1.0000
  O   O5        1.0  0.9946064322998212  0.7713912309164279  0.4091221660040516  1.0000
  O   O6        1.0  0.995283947556296  0.5561682214336847  0.6254523434769079  1.0000
  O   O7        1.0  0.9964564868028506  0.5675225122535954  0.2064595028978069  1.0000
  O   O8        1.0  0.9971339454910485  0.3522977712724888  0.4227897503945781  1.0000
