data_image0
_chemical_formula_structural       NC9NC4H8C6NO2H5C7NC2NH8Zn2C4O8
_chemical_formula_sum              "N5 C32 H21 O10 Zn2"
_cell_length_a       16.32274767691083
_cell_length_b       9.273392599741051
_cell_length_c       9.27399911348925
_cell_angle_alpha    85.18319751875556
_cell_angle_beta     89.127461349941
_cell_angle_gamma    88.93063911827517

_space_group_name_H-M_alt    "P 1"
_space_group_IT_number       1

loop_
  _space_group_symop_operation_xyz
  'x, y, z'

loop_
  _atom_site_type_symbol
  _atom_site_label
  _atom_site_symmetry_multiplicity
  _atom_site_fract_x
  _atom_site_fract_y
  _atom_site_fract_z
  _atom_site_occupancy
  N   N1        1.0  0.7674934007849185  0.5820776490497028  0.3995909164537934  1.0000
  C   C1        1.0  0.7156760623973795  0.5299127158782839  0.3391296388678131  1.0000
  C   C2        1.0  0.6512660438824672  0.4651234628638763  0.2640362486643355  1.0000
  C   C3        1.0  0.6636991668542412  0.3765033682326524  0.16131708354501262  1.0000
  C   C4        1.0  0.5847631660041135  0.33325625783761215  0.11119353783032591  1.0000
  C   C5        1.0  0.5252013902839218  0.3965473348073332  0.18455652244410814  1.0000
  C   C6        1.0  0.4354300642407688  0.3798200381178687  0.16517126659400772  1.0000
  C   C7        1.0  0.37910132292611454  0.45358994693515536  0.25067234587066056  1.0000
  C   C8        1.0  0.2945348171627722  0.4392939978804619  0.23410447833840184  1.0000
  C   C9        1.0  0.2377716249971607  0.5153317367488015  0.3222331649369214  1.0000
  N   N2        1.0  0.1921530856182395  0.5764535701615179  0.3930737034946199  1.0000
  C   C10       1.0  0.2652451973029853  0.3511088253672496  0.1318979471116748  1.0000
  C   C11       1.0  0.3202510483098768  0.27743662690275595  0.046510499577733455  1.0000
  C   C12       1.0  0.40466258366536634  0.29134751067305187  0.0626319312798691  1.0000
  C   C13       1.0  0.5620386508095395  0.48883276965400824  0.29152122787763735  1.0000
  H   H1        1.0  0.7229490502958027  0.34204321407601873  0.12137193463552043  1.0000
  H   H2        1.0  0.5771874746434942  0.260827166721707  0.027241086886228942  1.0000
  H   H3        1.0  0.40052979605570044  0.5224333395276151  0.3304618922938718  1.0000
  H   H4        1.0  0.1999704404273175  0.3393319227461084  0.11824971039983144  1.0000
  H   H5        1.0  0.2974203286971934  0.20921717314624133  0.9674443874802465  1.0000
  H   H6        1.0  0.4450293456458375  0.23241449037276582  0.9943279079205894  1.0000
  H   H7        1.0  0.5451200252214585  0.4492693725436383  0.4042465298890048  1.0000
  H   H8        1.0  0.5446573983813916  0.6046205416768426  0.26714732590270146  1.0000
  C   C14       1.0  0.9823280498947018  0.15571165097206174  0.3953862770228356  1.0000
  C   C15       1.0  0.9723266267576056  0.24032677115748546  0.2636968307478915  1.0000
  C   C16       1.0  0.9550781950594222  0.1765544863547126  0.13690260401598398  1.0000
  C   C17       1.0  0.947258010907979  0.026231331003434343  0.13826247439816775  1.0000
  C   C18       1.0  0.958540912732938  0.9404395447246373  0.26892579938446426  1.0000
  C   C19       1.0  0.9773263154490675  0.0028081807670725586  0.39729065506484873  1.0000
  N   N3        1.0  0.9287484320637921  0.961094797164607  0.007255510878729106  1.0000
  O   O1        1.0  0.918417956745304  0.045434039430782384  0.8792791571304583  1.0000
  O   O2        1.0  0.9215319007607142  0.8272551351503054  0.007596678568719372  1.0000
  H   H9        1.0  0.964476453985553  0.22937566120494113  0.7498944252947897  1.0000
  H   H10       1.0  0.9759227850779073  0.3571582677850358  0.25937741895310684  1.0000
  H   H11       1.0  0.947031645791965  0.24543314278944806  0.03782926857971103  1.0000
  H   H12       1.0  0.9545796813650274  0.8238810039336103  0.2700139692560497  1.0000
  H   H13       1.0  0.9680956640854317  0.7027823659694371  0.6368381984368012  1.0000
  C   C20       1.0  0.9812205732941992  0.5829326098179699  0.972473674345823  1.0000
  C   C21       1.0  0.045951170382681816  0.5130156296164723  0.049815777638160245  1.0000
  C   C22       1.0  0.10531832833650934  0.4329021342428454  0.9800813448593967  1.0000
  C   C23       1.0  0.10155407699898977  0.4199455343490068  0.8308146556380738  1.0000
  C   C24       1.0  0.038042323932466315  0.4922819377277125  0.7519004581275062  1.0000
  C   C25       1.0  0.9784337891204548  0.5755872591127689  0.8202032452698038  1.0000
  C   C26       1.0  0.16494884801463416  0.3328501294233419  0.7589600767411175  1.0000
  N   N4        1.0  0.23386441626916155  0.2815455801054252  0.8258325244248481  1.0000
  C   C27       1.0  0.27395771989424866  0.20885146119036935  0.7257385114511749  1.0000
  C   C28       1.0  0.22915628426382373  0.21663248267050794  0.6008995054509554  1.0000
  N   N5        1.0  0.16059791820931957  0.2945509573690277  0.6219508915210188  1.0000
  H   H14       1.0  0.8929211563594412  0.7661412163870915  0.24079876431277844  1.0000
  H   H15       1.0  0.049637679848387295  0.5172586352035002  0.16591961367925023  1.0000
  H   H16       1.0  0.1536856778337439  0.37913133282545086  0.043952142604683164  1.0000
  H   H17       1.0  0.036038462263856735  0.4884061471794542  0.6358177949627106  1.0000
  H   H18       1.0  0.8501037523522171  0.6586857854614288  0.5365862043497174  1.0000
  H   H19       1.0  0.33224712487113495  0.15318799122555693  0.7430939540898791  1.0000
  H   H20       1.0  0.245168988405748  0.1682627479666592  0.5018571734496167  1.0000
  H   H21       1.0  0.11411236836467475  0.31702703875796057  0.5470060655927864  1.0000
  Zn  Zn1       1.0  0.890041014335861  0.5804507180097982  0.3977185165820838  1.0000
  Zn  Zn2       1.0  0.06960550925300812  0.5780685629574422  0.3949579014601361  1.0000
  C   C29       1.0  0.9789926496740263  0.5712297464836025  0.6599513492345497  1.0000
  C   C30       1.0  0.9806558235422571  0.5872913271176217  0.1327251844232311  1.0000
  C   C31       1.0  0.9782864384471498  0.8427388259749018  0.3911789362554683  1.0000
  C   C32       1.0  0.9813619834753365  0.3157805148778199  0.4014976714023748  1.0000
  O   O3        1.0  0.04861011553348479  0.5878438445788451  0.18545940192267382  1.0000
  O   O4        1.0  0.047323662275952305  0.5688681439632255  0.6051214707839709  1.0000
  O   O5        1.0  0.04675246423427558  0.788115158535466  0.3880858631884503  1.0000
  O   O6        1.0  0.04918125259681405  0.36859684207506976  0.40249490225828644  1.0000
  O   O7        1.0  0.9104652097155211  0.7899224397067195  0.3901815167184073  1.0000
  O   O8        1.0  0.9110363977744608  0.5706771586975303  0.607217051248339  1.0000
  O   O9        1.0  0.9123228570880918  0.5896528240871746  0.18755324688583075  1.0000
  O   O10       1.0  0.9128939938532347  0.3704058103294825  0.4045888554158257  1.0000
