data_image0
_chemical_formula_structural       NC12NC2H8C10ClC2H9C10IC2H9Zn2C4O8
_chemical_formula_sum              "N2 C42 H26 Cl1 I1 Zn2 O8"
_cell_length_a       17.80743265337812
_cell_length_b       10.299769246903262
_cell_length_c       10.299773630820606
_cell_angle_alpha    85.54463108608702
_cell_angle_beta     91.53904260144846
_cell_angle_gamma    89.45359272153547

_space_group_name_H-M_alt    "P 1"
_space_group_IT_number       1

loop_
  _space_group_symop_operation_xyz
  'x, y, z'

loop_
  _atom_site_type_symbol
  _atom_site_label
  _atom_site_symmetry_multiplicity
  _atom_site_fract_x
  _atom_site_fract_y
  _atom_site_fract_z
  _atom_site_occupancy
  N   N1        1.0  0.7075995759439425  0.4070611443346914  0.6014311359275117  1.0000
  C   C1        1.0  0.6567811671984242  0.43663900319471893  0.5327348825087976  1.0000
  C   C2        1.0  0.5935580520496906  0.4734317115923306  0.4472853910401385  1.0000
  C   C3        1.0  0.6052872353328607  0.52748752953209  0.32067018999097496  1.0000
  C   C4        1.0  0.5439713376987483  0.5627759894066797  0.23761656531970538  1.0000
  C   C5        1.0  0.47077196340310457  0.5442722791707302  0.28051826217192777  1.0000
  C   C6        1.0  0.4580660125690162  0.490097527348508  0.40760159389356804  1.0000
  C   C7        1.0  0.5202392259216381  0.45481232600428184  0.4906387072369954  1.0000
  C   C8        1.0  0.3802983950707017  0.47047889532419185  0.45336348783648384  1.0000
  C   C9        1.0  0.3615252726915056  0.4976290577738894  0.5804083269995299  1.0000
  C   C10       1.0  0.2882959625150101  0.4791669088637443  0.6233505889710869  1.0000
  C   C11       1.0  0.23289681066781434  0.433300092896165  0.5400859563737961  1.0000
  C   C12       1.0  0.15753088115479041  0.4142847308577831  0.5844290978675692  1.0000
  N   N2        1.0  0.09694201092654571  0.398997658671604  0.6200779331148205  1.0000
  C   C13       1.0  0.250978442814688  0.40598086721479554  0.41358407102106076  1.0000
  C   C14       1.0  0.3241548846416156  0.424457873454142  0.3703859253914661  1.0000
  H   H1        1.0  0.6617534612726091  0.5423207951545179  0.28623444732949205  1.0000
  H   H2        1.0  0.5531709757492108  0.6049000223323535  0.13984105223299448  1.0000
  H   H3        1.0  0.4241339144221554  0.5739258709242909  0.21492992983464435  1.0000
  H   H4        1.0  0.5117377144380859  0.4113030376578044  0.5882896902964687  1.0000
  H   H5        1.0  0.40321246373801817  0.5347893903812688  0.6459831114509107  1.0000
  H   H6        1.0  0.27486265663821047  0.5009845994368827  0.72135989408437  1.0000
  H   H7        1.0  0.20857462613426572  0.37008768386768165  0.3484223154688498  1.0000
  H   H8        1.0  0.3370595394932482  0.4011045703724483  0.27267985798920474  1.0000
  C   C15       1.0  0.9022037542217309  0.02166567632641425  0.6107460641999558  1.0000
  C   C16       1.0  0.9091348074394058  0.03111095309054268  0.4748694973496219  1.0000
  C   C17       1.0  0.9127186349412123  0.9187560339392172  0.40603382949204314  1.0000
  C   C18       1.0  0.9092774179614591  0.7958198354526986  0.4748982708079508  1.0000
  C   C19       1.0  0.9023450479892263  0.7843829800240967  0.6107744998099969  1.0000
  C   C20       1.0  0.8988472350326139  0.8978623093449328  0.677937504165077  1.0000
  C   C21       1.0  0.9200524107891153  0.9298013206501138  0.26228792931868816  1.0000
  C   C22       1.0  0.9687581653321442  0.8458694647667  0.20213261085659331  1.0000
  C   C23       1.0  0.9755940437978146  0.8564627932849181  0.06682230171502868  1.0000
  C   C24       1.0  0.933942516288248  0.9507208934120299  0.9900237660634694  1.0000
  Cl  Cl1       1.0  0.9426018821343777  0.9637627710936522  0.8202789634927803  1.0000
  C   C25       1.0  0.8853798089192313  0.034570393719659094  0.04869501813593403  1.0000
  C   C26       1.0  0.8784106852312523  0.024372427014685887  0.18397865486281664  1.0000
  H   H9        1.0  0.8995339609961894  0.3455208665011831  0.6625170626688821  1.0000
  H   H10       1.0  0.9127973974378484  0.1260530900009711  0.42245620912151277  1.0000
  H   H11       1.0  0.9109828564586547  0.7089630935077698  0.4220915661689744  1.0000
  H   H12       1.0  0.8934999909498568  0.8898076363232154  0.782759938324535  1.0000
  H   H13       1.0  0.8997389948245791  0.45257024034502613  0.6625576103605995  1.0000
  H   H14       1.0  0.0022611530175553635  0.773220997765515  0.25984205358176515  1.0000
  H   H15       1.0  0.01343261557450881  0.7915419283800799  0.02184668576958293  1.0000
  H   H16       1.0  0.852851799659785  0.1074890268007047  0.9895798468681082  1.0000
  H   H17       1.0  0.8397590280240838  0.08926650390814837  0.2271901008199786  1.0000
  C   C27       1.0  0.9022545940363539  0.4031428864828739  0.2293892381119736  1.0000
  C   C28       1.0  0.9780052276222736  0.43976556965176616  0.2290658694431693  1.0000
  C   C29       1.0  0.016408617869986934  0.45820201647177816  0.11177373301014493  1.0000
  C   C30       1.0  0.9780451836721383  0.43952595435503716  0.9937999339156788  1.0000
  C   C31       1.0  0.9022941735026307  0.4029058315768798  0.9921313304020903  1.0000
  C   C32       1.0  0.8648231453338237  0.3849186918056151  0.11042770697240978  1.0000
  C   C33       1.0  0.09654561787728388  0.4969444000397006  0.11248520392438  1.0000
  C   C34       1.0  0.14779704723515508  0.43986945015626566  0.03149047416039941  1.0000
  C   C35       1.0  0.22320185153686345  0.4764610018059183  0.032360444747888024  1.0000
  C   C36       1.0  0.2483209416976342  0.5703221801426508  0.11383091069869346  1.0000
  I   I1        1.0  0.3620991286378583  0.625330221847529  0.11483927473314727  1.0000
  C   C37       1.0  0.19793923522072565  0.6276811568074854  0.1946321410514769  1.0000
  C   C38       1.0  0.12249229315539557  0.5913416385414181  0.19416451412010718  1.0000
  H   H18       1.0  0.8733804822911033  0.3892450912662397  0.5569608824903585  1.0000
  H   H19       1.0  0.0076094735237262085  0.4523042944408532  0.3203972050018045  1.0000
  H   H20       1.0  0.007101251157841658  0.4553463184496019  0.9029896041888144  1.0000
  H   H21       1.0  0.8063848209139077  0.3566670034418682  0.10990875652668186  1.0000
  H   H22       1.0  0.8734389098460077  0.3888960856859329  0.6640467456064267  1.0000
  H   H23       1.0  0.1297766315599509  0.36578313877392005  0.9687871083841886  1.0000
  H   H24       1.0  0.2621049611909265  0.4315699058458605  0.9699139025772423  1.0000
  H   H25       1.0  0.21714981030227687  0.7006681636381553  0.2575938315940758  1.0000
  H   H26       1.0  0.08426151762775524  0.63823275802389  0.2563692392105834  1.0000
  Zn  Zn1       1.0  0.8199553955055108  0.4047307269936666  0.6068196856479035  1.0000
  Zn  Zn2       1.0  0.9845861874588097  0.4013174794067624  0.6146999761096696  1.0000
  C   C39       1.0  0.9022840639243025  0.39777703807403103  0.8479564971998084  1.0000
  C   C40       1.0  0.9022593171132585  0.40827276961120623  0.37356337813863477  1.0000
  C   C41       1.0  0.9023141839219919  0.6402148834909593  0.6055937707318206  1.0000
  C   C42       1.0  0.9022291406531904  0.16583336505639476  0.6159261710983993  1.0000
  O   O1        1.0  0.964737428737332  0.4086934299169054  0.42494006552885805  1.0000
  O   O2        1.0  0.9647569138946973  0.39476482223425946  0.802560394047839  1.0000
  O   O3        1.0  0.964780394030364  0.5905364654950909  0.6068507374045049  1.0000
  O   O4        1.0  0.9647138924209949  0.21292179714114656  0.6206496221083131  1.0000
  O   O5        1.0  0.839827634362916  0.5931264104254725  0.6008700369532718  1.0000
  O   O6        1.0  0.8398041545092185  0.39735632746871397  0.7965796244088419  1.0000
  O   O7        1.0  0.8397846693123961  0.4112848903803324  0.41895773448107887  1.0000
  O   O8        1.0  0.8397611329963198  0.21551324828569052  0.6146673884284266  1.0000
