data_image0
_chemical_formula_structural       NC5N2C2NH4C6NH7C6IH3Zn2C4O8
_chemical_formula_sum              "N5 C23 H14 I1 Zn2 O8"
_cell_length_a       13.87973921873968
_cell_length_b       9.274771166103582
_cell_length_c       9.275433903346869
_cell_angle_alpha    86.06373460888793
_cell_angle_beta     89.96562650524481
_cell_angle_gamma    90.59705032410349

_space_group_name_H-M_alt    "P 1"
_space_group_IT_number       1

loop_
  _space_group_symop_operation_xyz
  'x, y, z'

loop_
  _atom_site_type_symbol
  _atom_site_label
  _atom_site_symmetry_multiplicity
  _atom_site_fract_x
  _atom_site_fract_y
  _atom_site_fract_z
  _atom_site_occupancy
  N   N1        1.0  0.9187464638153339  0.5617183633841216  0.40768701281946274  1.0000
  C   C1        1.0  0.8458267217077784  0.5856573319807241  0.35102533527494617  1.0000
  C   C2        1.0  0.7552630937894231  0.6153918652941397  0.2806454091807471  1.0000
  C   C3        1.0  0.6685856631668856  0.5854671292617504  0.35387184292146023  1.0000
  C   C4        1.0  0.5823836921733733  0.6153918010757116  0.2806454491866876  1.0000
  C   C5        1.0  0.49134959899687813  0.5856571861501032  0.35102523235233063  1.0000
  N   N2        1.0  0.41805103250021247  0.561718338638517  0.4076870018753185  1.0000
  N   N3        1.0  0.5844757519774929  0.6725702139478105  0.14183497145846347  1.0000
  C   C6        1.0  0.6695130574457102  0.7024637288159699  0.07265041527079741  1.0000
  C   C7        1.0  0.6699849189622117  0.7613586004513151  0.9188491241296082  1.0000
  N   N4        1.0  0.7540786503104436  0.6725701673881295  0.1418349822906537  1.0000
  H   H1        1.0  0.6682227046075883  0.5397136645173781  0.4646453487176019  1.0000
  H   H2        1.0  0.7354669047033279  0.8290073672224338  0.8963375575702884  1.0000
  H   H3        1.0  0.6693828965310602  0.6706277880770113  0.8468205982752512  1.0000
  H   H4        1.0  0.6054620702552195  0.8290052948919682  0.8963367956216342  1.0000
  C   C8        1.0  0.16544520331463897  0.13813014625250442  0.4084724263260888  1.0000
  C   C9        1.0  0.14331698932775372  0.22006787905820113  0.2796142573044646  1.0000
  C   C10       1.0  0.1301844074468652  0.15363877542132065  0.14993853909457067  1.0000
  C   C11       1.0  0.13923085454525208  0.003884472537182943  0.14818173656505818  1.0000
  C   C12       1.0  0.1595780623175782  0.9206084779819146  0.2752697710882164  1.0000
  C   C13       1.0  0.17136143621218247  0.9852956044456522  0.4069141141613772  1.0000
  N   N5        1.0  0.10864859216763566  0.23866093784495843  0.019664144132578446  1.0000
  H   H5        1.0  0.2737706943736349  0.22114576162943703  0.7238280095567624  1.0000
  H   H6        1.0  0.13845933619884687  0.3366546983507405  0.2790607484159455  1.0000
  H   H7        1.0  0.12958265425513749  0.9513356960594319  0.04840935442057814  1.0000
  H   H8        1.0  0.16382533315381842  0.8044005540382331  0.27114296408053185  1.0000
  H   H9        1.0  0.2404173663502105  0.6905120842446169  0.6214675679482984  1.0000
  H   H10       1.0  0.10201055670564152  0.35073434168056905  0.019617342385976448  1.0000
  H   H11       1.0  0.09909032126893824  0.19015458227481674  0.9222614747745673  1.0000
  C   C14       1.0  0.168540978134623  0.5572107097363892  0.9845492089003421  1.0000
  C   C15       1.0  0.257271854404328  0.5545102689720014  0.05800903927920342  1.0000
  C   C16       1.0  0.34414057295726486  0.5651019677122255  0.981870812497583  1.0000
  C   C17       1.0  0.3436710575063273  0.5787308708872705  0.831300098802902  1.0000
  C   C18       1.0  0.2565573584432159  0.5792509756609592  0.7563237576179191  1.0000
  C   C19       1.0  0.16826563647577575  0.5662149577258366  0.8308372692247055  1.0000
  I   I1        1.0  0.47609652976405736  0.5631870876044596  0.09465872461834877  1.0000
  H   H12       1.0  0.9394716679100341  0.6426668455504161  0.08188163102604973  1.0000
  H   H13       1.0  0.41092764361315415  0.5875484990100788  0.7720729453717684  1.0000
  H   H14       1.0  0.013519369616787461  0.6176834504032309  0.5462670720056724  1.0000
  Zn  Zn1       1.0  0.06283494812082457  0.5617145794163365  0.4076953405947007  1.0000
  Zn  Zn2       1.0  0.27396244746389464  0.5617104323230144  0.4076905081174153  1.0000
  C   C20       1.0  0.16827540916476447  0.5587665692986958  0.6708813005223331  1.0000
  C   C21       1.0  0.1685243045898801  0.5646602639226457  0.1445046862182393  1.0000
  C   C22       1.0  0.17024003952773104  0.8251021746725357  0.40146658379683964  1.0000
  C   C23       1.0  0.16655959005612941  0.29832292633215807  0.4139194829562897  1.0000
  O   O1        1.0  0.248640450549221  0.5671525355940304  0.19818538329328714  1.0000
  O   O2        1.0  0.2484001425845952  0.5562700574836912  0.6171965229134198  1.0000
  O   O3        1.0  0.2499855258813805  0.7713394430592815  0.3996422302695517  1.0000
  O   O4        1.0  0.24705499531613295  0.3520831591890192  0.41573956787873945  1.0000
  O   O5        1.0  0.08974232822114558  0.771341852553237  0.39964628082744347  1.0000
  O   O6        1.0  0.08815695704770475  0.5562741991971992  0.6172004934528222  1.0000
  O   O7        1.0  0.08839726528900349  0.5671566086088334  0.19818762148871438  1.0000
  O   O8        1.0  0.08681180994477831  0.35208722303614826  0.4157419141266499  1.0000
