data_image0
_chemical_formula_structural       NC5NC3H4C7NH5C6FH3Zn2C4O8
_chemical_formula_sum              "N3 C25 H12 F1 Zn2 O8"
_cell_length_a       13.859018345313864
_cell_length_b       9.275154477615127
_cell_length_c       9.275646106892307
_cell_angle_alpha    85.17883559390603
_cell_angle_beta     90.02253309595986
_cell_angle_gamma    89.43370600770291

_space_group_name_H-M_alt    "P 1"
_space_group_IT_number       1

loop_
  _space_group_symop_operation_xyz
  'x, y, z'

loop_
  _atom_site_type_symbol
  _atom_site_label
  _atom_site_symmetry_multiplicity
  _atom_site_fract_x
  _atom_site_fract_y
  _atom_site_fract_z
  _atom_site_occupancy
  N   N1        1.0  0.897624012766685  0.5947708827348223  0.41428951460019486  1.0000
  C   C1        1.0  0.8255480487802586  0.5546934823598639  0.46545003151859393  1.0000
  C   C2        1.0  0.7358897608184395  0.5048425638305598  0.5290869095204029  1.0000
  C   C3        1.0  0.6479368081784393  0.5534413672263903  0.46704874779023786  1.0000
  C   C4        1.0  0.5606594582265174  0.5048422748044338  0.5290867826612813  1.0000
  C   C5        1.0  0.4703081698678249  0.5546933707414223  0.4654499336384583  1.0000
  N   N2        1.0  0.3976751104102527  0.5947708495816291  0.4142894453538395  1.0000
  C   C6        1.0  0.5615176404675543  0.4076300032701847  0.6531815414710056  1.0000
  C   C7        1.0  0.6492867515589865  0.35921827787449034  0.7149809656975694  1.0000
  C   C8        1.0  0.736382982137221  0.40763029617920804  0.6531817465517191  1.0000
  H   H1        1.0  0.6474137583572194  0.6286863163015202  0.3709960667556962  1.0000
  H   H2        1.0  0.4944880451490363  0.369377780070012  0.7020113831609376  1.0000
  H   H3        1.0  0.6498086767717248  0.2841260876148395  0.8108388342182304  1.0000
  H   H4        1.0  0.803944303454078  0.36937830534687244  0.7020118110965528  1.0000
  C   C9        1.0  0.15044577017034075  0.1713993303637673  0.4126193954642525  1.0000
  C   C10       1.0  0.1239181289926845  0.25593326550732726  0.2853684651492092  1.0000
  C   C11       1.0  0.0895444250742352  0.19117792385041188  0.1648582068833886  1.0000
  C   C12       1.0  0.08113257305434196  0.041000743051667905  0.1701796093424972  1.0000
  C   C13       1.0  0.10855352816113581  0.9552900153941241  0.2945299559485206  1.0000
  C   C14       1.0  0.14486265091220418  0.018131153051199833  0.41597208188720036  1.0000
  C   C15       1.0  0.06173257255439956  0.27931000092763725  0.036073571086300285  1.0000
  N   N3        1.0  0.039379556736475634  0.3501519336327846  0.9325637117932107  1.0000
  H   H5        1.0  0.1692733510280091  0.24429851339211683  0.7668840353311346  1.0000
  H   H6        1.0  0.1278572243773759  0.37293825902126665  0.2810861719082065  1.0000
  H   H7        1.0  0.054200090472791944  0.9898602974981354  0.07755990725056061  1.0000
  H   H8        1.0  0.10348677672166534  0.8388237723947876  0.29440294267978184  1.0000
  H   H9        1.0  0.16163395344555842  0.7168336438604513  0.6533394672902937  1.0000
  C   C16       1.0  0.14751215749500513  0.5992776972849807  0.9904731407279241  1.0000
  C   C17       1.0  0.23576024799488304  0.6143458799430156  0.06259365124382499  1.0000
  C   C18       1.0  0.3229015979205685  0.6158768203590625  0.9871538905765901  1.0000
  C   C19       1.0  0.3233262085826009  0.6022217624047501  0.8387235686555479  1.0000
  C   C20       1.0  0.23657426176721255  0.5895574502169316  0.7646806171855192  1.0000
  C   C21       1.0  0.14779622108225116  0.5902527835590405  0.838118289424213  1.0000
  F   F1        1.0  0.40731353272682  0.6288931214565046  0.05864063792403674  1.0000
  H   H10       1.0  0.9245460053137793  0.48214816153137474  0.10316228409588057  1.0000
  H   H11       1.0  0.39098450325308876  0.6028248888700337  0.7804105906582679  1.0000
  H   H12       1.0  0.9968059406748353  0.5173247698078274  0.5629837844585142  1.0000
  Zn  Zn1       1.0  0.04192798458380653  0.5947669144827268  0.4142978230480576  1.0000
  Zn  Zn2       1.0  0.2533711970548147  0.5947628594032675  0.4142929440908655  1.0000
  C   C22       1.0  0.14777827428598034  0.586215180771462  0.6778724670049532  1.0000
  C   C23       1.0  0.14752320435882216  0.6033164106529609  0.15071844893930678  1.0000
  C   C24       1.0  0.14591108095873406  0.8581420299547022  0.40958704977931504  1.0000
  C   C25       1.0  0.14939033698239454  0.33138782850346415  0.41900393625436694  1.0000
  O   O1        1.0  0.2277685504473228  0.6046640111271441  0.20449636179088437  1.0000
  O   O2        1.0  0.22801344103233756  0.5848634193838282  0.6240904313690397  1.0000
  O   O3        1.0  0.22650457761457576  0.804447773126321  0.40744806475607576  1.0000
  O   O4        1.0  0.22927734160956545  0.38507966885161216  0.42113862023201665  1.0000
  O   O5        1.0  0.06602176787385126  0.804450105037416  0.40745214690098597  1.0000
  O   O6        1.0  0.0675306198400829  0.5848674842642135  0.6240944434186078  1.0000
  O   O7        1.0  0.0672857290689297  0.6046680442421866  0.20449863842704996  1.0000
  O   O8        1.0  0.06879452033148747  0.38508369050272745  0.4211410050340943  1.0000
