data_image0
_chemical_formula_structural       NC9NC3NH7C9H10C8NH7Zn2C4O8
_chemical_formula_sum              "N4 C33 H24 Zn2 O8"
_cell_length_a       16.053384444249904
_cell_length_b       9.272676604525723
_cell_length_c       9.274266800404105
_cell_angle_alpha    86.24029602187467
_cell_angle_beta     89.35588104550887
_cell_angle_gamma    89.72820801156413

_space_group_name_H-M_alt    "P 1"
_space_group_IT_number       1

loop_
  _space_group_symop_operation_xyz
  'x, y, z'

loop_
  _atom_site_type_symbol
  _atom_site_label
  _atom_site_symmetry_multiplicity
  _atom_site_fract_x
  _atom_site_fract_y
  _atom_site_fract_z
  _atom_site_occupancy
  N   N1        1.0  0.8002553444826599  0.54679078413163  0.41337171373889936  1.0000
  C   C1        1.0  0.7497483269173747  0.5230540037033518  0.33019020582322  1.0000
  C   C2        1.0  0.6869817569058468  0.4935609643468388  0.22685846857295935  1.0000
  C   C3        1.0  0.7011818651337979  0.47905282826038276  0.08168604457164252  1.0000
  C   C4        1.0  0.6246643139410556  0.4504926842777341  0.02356225679796187  1.0000
  C   C5        1.0  0.5670455793842396  0.4491652764628706  0.13640862655665043  1.0000
  C   C6        1.0  0.4762978577671685  0.42262979513260457  0.12491981116942055  1.0000
  C   C7        1.0  0.4201930173675633  0.4708434262460335  0.2293627398724114  1.0000
  C   C8        1.0  0.3345545937322756  0.445676186776279  0.21835970567306262  1.0000
  C   C9        1.0  0.2776685114733596  0.4958470939529709  0.3254438701169071  1.0000
  N   N2        1.0  0.2319488014632308  0.5361774157968737  0.41152277186256647  1.0000
  C   C10       1.0  0.3042942215264893  0.3721710928502895  0.10292842117456649  1.0000
  C   C11       1.0  0.3593901829511335  0.3240920496894859  0.9987210221784976  1.0000
  C   C12       1.0  0.4448236134244454  0.34907194914574413  0.009283049150177636  1.0000
  N   N3        1.0  0.6058148862253512  0.4756087101019639  0.26034569808254693  1.0000
  H   H1        1.0  0.7602290608422765  0.4882070339900397  0.024433764550038095  1.0000
  H   H2        1.0  0.6128277588280636  0.4343500390366554  0.9111909109328957  1.0000
  H   H3        1.0  0.4424328519068835  0.5297597369332089  0.3181920962867535  1.0000
  H   H4        1.0  0.2382036254597357  0.3521514444377577  0.09348166185570797  1.0000
  H   H5        1.0  0.3358713062963024  0.2669966591967272  0.9096400043880997  1.0000
  H   H6        1.0  0.4860926651177834  0.3091022110661543  0.9278069052470844  1.0000
  H   H7        1.0  0.5791991259327536  0.47901667096761136  0.36332009997961423  1.0000
  C   C13       1.0  0.01375410800979826  0.11803949642824918  0.4106157874125055  1.0000
  C   C14       1.0  0.9798707299890529  0.18387538206528228  0.530147046735505  1.0000
  C   C15       1.0  0.9535927773176153  0.10131494358028864  0.6531688279587058  1.0000
  C   C16       1.0  0.9603494484910935  0.9504575277315396  0.6607988049658063  1.0000
  C   C17       1.0  0.9928730589686163  0.8831969982124781  0.5401627350959418  1.0000
  C   C18       1.0  0.01845790124241731  0.964917531926353  0.41429107780073005  1.0000
  C   C19       1.0  0.9310228395779327  0.8686109920128257  0.799399769693423  1.0000
  C   C20       1.0  0.8889877718328046  0.7234413187192804  0.7852270446747776  1.0000
  C   C21       1.0  0.9766701275514889  0.7291909335373513  0.8458462157708029  1.0000
  H   H8        1.0  0.03331934989649121  0.41459537442665106  0.17431229965965866  1.0000
  H   H9        1.0  0.9754760570964429  0.3005049040419395  0.5300272925574292  1.0000
  H   H10       1.0  0.9285065799622816  0.1560641554579071  0.743850788473793  1.0000
  H   H11       1.0  0.9968409066814362  0.7667092460308059  0.54148434739629  1.0000
  H   H12       1.0  0.04166745301300345  0.8848581174239973  0.061224651059544666  1.0000
  H   H13       1.0  0.9070324343625273  0.9300111475995984  0.8902647376145959  1.0000
  H   H14       1.0  0.885618590408867  0.6834415759613934  0.6753470972080899  1.0000
  H   H15       1.0  0.840335762929898  0.6964850492829923  0.8685986419337126  1.0000
  H   H16       1.0  0.026537533373406363  0.6925565741475572  0.7728744035756031  1.0000
  H   H17       1.0  0.9792620080120975  0.7055891806182245  0.964665854865581  1.0000
  C   C22       1.0  0.018004308928447846  0.5382786453001618  0.9891208103431173  1.0000
  C   C23       1.0  0.969024984569432  0.43624334709389373  0.07002964052633298  1.0000
  C   C24       1.0  0.9150674208644181  0.3455464855738082  0.0019622247135999697  1.0000
  C   C25       1.0  0.9082998496957836  0.35551500609948233  0.8513361144383232  1.0000
  C   C26       1.0  0.9584035593081804  0.45407481891975604  0.7691011744413987  1.0000
  C   C27       1.0  0.014207647807562123  0.544678395902868  0.8357860012559568  1.0000
  C   C28       1.0  0.8510043258108649  0.25619603324348095  0.7780602425446173  1.0000
  C   C29       1.0  0.8953791536843799  0.12325874393997104  0.7460798519348408  1.0000
  N   N4        1.0  0.9304072523757456  0.01834038310227993  0.7208371019869153  1.0000
  H   H18       1.0  0.11152747830728416  0.8533804945124326  0.06954034544957488  1.0000
  H   H19       1.0  0.9711101929126721  0.4287230400002537  0.18700214523355396  1.0000
  H   H20       1.0  0.877873029752353  0.2682777215443968  0.06702439262512105  1.0000
  H   H21       1.0  0.955177900979386  0.4574446911046919  0.652238350903311  1.0000
  H   H22       1.0  0.08018484373505141  0.7539513883415853  0.5400835634964922  1.0000
  H   H23       1.0  0.8275380089022162  0.3095790981321468  0.6756221052229183  1.0000
  H   H24       1.0  0.7962078538816972  0.22791164774445602  0.8483272230742847  1.0000
  Zn  Zn1       1.0  0.9248326901493306  0.5437242125091266  0.41284644967142947  1.0000
  Zn  Zn2       1.0  0.10737131425315827  0.5392323287634038  0.4120597671278814  1.0000
  C   C30       1.0  0.014891551934431703  0.5377242737103438  0.675723258567794  1.0000
  C   C31       1.0  0.01731445525508856  0.545234038985595  0.149183099028952  1.0000
  C   C32       1.0  0.017590233828188587  0.8047962517628026  0.40785175582688526  1.0000
  C   C33       1.0  0.01461570110658084  0.278160330599275  0.4170546713771006  1.0000
  O   O1        1.0  0.08635535565899288  0.5458573953417949  0.20260289607264495  1.0000
  O   O2        1.0  0.08439323938797426  0.5336905905762166  0.6217059679733019  1.0000
  O   O3        1.0  0.08657151859911139  0.7493546247495506  0.40539784480605245  1.0000
  O   O4        1.0  0.08417701470177774  0.3301933721994075  0.41891091146387077  1.0000
  O   O5        1.0  0.9480269274092804  0.7527631706074951  0.40599530559632035  1.0000
  O   O6        1.0  0.9458486581614622  0.5371008683023931  0.62230335941721  1.0000
  O   O7        1.0  0.9478107819808826  0.5492676097167088  0.20319855408977294  1.0000
  O   O8        1.0  0.9456324404783144  0.33360357707774674  0.41950667751790316  1.0000
