data_image0
_chemical_formula_structural       NC5N2C2NH4C6NH7C6SCH6Zn2C4O8
_chemical_formula_sum              "N5 C24 H17 S1 Zn2 O8"
_cell_length_a       13.87973921873968
_cell_length_b       9.274771166103582
_cell_length_c       9.27527408847023
_cell_angle_alpha    86.00109441054587
_cell_angle_beta     89.72578350354677
_cell_angle_gamma    90.59705032410349

_space_group_name_H-M_alt    "P 1"
_space_group_IT_number       1

loop_
  _space_group_symop_operation_xyz
  'x, y, z'

loop_
  _atom_site_type_symbol
  _atom_site_label
  _atom_site_symmetry_multiplicity
  _atom_site_fract_x
  _atom_site_fract_y
  _atom_site_fract_z
  _atom_site_occupancy
  N   N1        1.0  0.9232139170866033  0.5635348417376594  0.4075158942510366  1.0000
  C   C1        1.0  0.8504531471150161  0.5875384488265452  0.3508481275360964  1.0000
  C   C2        1.0  0.7600869797672852  0.6173532701318964  0.2804606380342658  1.0000
  C   C3        1.0  0.6732041023050924  0.587344998869394  0.3536949410837229  1.0000
  C   C4        1.0  0.587207578038993  0.617353205867831  0.2804606780445056  1.0000
  C   C5        1.0  0.49597602469287944  0.5875383031133365  0.35084802460242037  1.0000
  N   N2        1.0  0.4225184858021873  0.5635348170045396  0.40751588330571586  1.0000
  N   N3        1.0  0.5896890897459773  0.6746899709169623  0.1416352829913441  1.0000
  C   C6        1.0  0.6749205020100006  0.7046624101233181  0.07244329185696441  1.0000
  C   C7        1.0  0.6758238742199186  0.7637327351515284  0.9186254723969233  1.0000
  N   N4        1.0  0.7592919880485369  0.6746899243449243  0.14163529382469853  1.0000
  H   H1        1.0  0.6725303534270429  0.5414651659568006  0.4644803512001102  1.0000
  H   H2        1.0  0.7413690192597885  0.8314071826611003  0.8961114866228689  1.0000
  H   H3        1.0  0.6754239377329521  0.6730840914583223  0.8465892059674855  1.0000
  H   H4        1.0  0.611364186949432  0.8314051111998495  0.8961107245923312  1.0000
  C   C8        1.0  0.1699104530002009  0.13994572862224697  0.4083013921624472  1.0000
  C   C9        1.0  0.1481437683441449  0.22203046021310022  0.2794293753448238  1.0000
  C   C10       1.0  0.13537500954087123  0.15574928800490515  0.14973972148067216  1.0000
  C   C11       1.0  0.1444263855905823  0.005996989245454107  0.14798273015565488  1.0000
  C   C12       1.0  0.1644170303880783  0.9225760152385553  0.275084422246582  1.0000
  C   C13       1.0  0.1758310579570288  0.9871129645063004  0.40674291253307926  1.0000
  N   N5        1.0  0.11420469700929314  0.24092006481552192  0.019451326527379232  1.0000
  H   H5        1.0  0.2773511705609846  0.22260159274724775  0.7236908652102498  1.0000
  H   H6        1.0  0.143287668160617  0.3386179109373513  0.2788758069732453  1.0000
  H   H7        1.0  0.13505811045248373  0.9535620310772345  0.04819962593119498  1.0000
  H   H8        1.0  0.16867587954944363  0.8063727990725904  0.2709571717498895  1.0000
  H   H9        1.0  0.2442850288466554  0.6920846860776937  0.621319423394934  1.0000
  H   H10       1.0  0.10756679285604132  0.3529935220416155  0.019404519751208264  1.0000
  H   H11       1.0  0.1049197027071922  0.19252482423463843  0.9220381897515452  1.0000
  C   C14       1.0  0.17419560276072987  0.5595098951127115  0.9843326176542222  1.0000
  C   C15       1.0  0.25659689934878815  0.6102833045094276  0.05358755555355297  1.0000
  C   C16       1.0  0.33372737061296776  0.6725487691123329  0.9734089427626587  1.0000
  C   C17       1.0  0.32973703948165123  0.6841791648853226  0.822827420669205  1.0000
  C   C18       1.0  0.24938690583769718  0.6323138791005316  0.7520715794454204  1.0000
  C   C19       1.0  0.17154589817782348  0.5675487871018196  0.8307116526622755  1.0000
  S   S1        1.0  0.43765963210191905  0.7379493256990224  0.06397698043366294  1.0000
  C   C20       1.0  0.38940018453970904  0.9184985264413117  0.0753769941483371  1.0000
  H   H12       1.0  0.9404756590264608  0.500158205302117  0.09314651502196059  1.0000
  H   H13       1.0  0.3892759447775582  0.7325096336106776  0.7602406359478435  1.0000
  H   H14       1.0  0.015299138093199936  0.5217039585938146  0.553881190222151  1.0000
  H   H15       1.0  0.3759801458311758  0.968907495557199  0.9653221668810876  1.0000
  H   H16       1.0  0.32124909186041717  0.913080041970229  0.1387525292124161  1.0000
  H   H17       1.0  0.44250384949904753  0.9858019119447888  0.13025249868043143  1.0000
  Zn  Zn1       1.0  0.06730237802737427  0.5635310482697173  0.40752422292122165  1.0000
  Zn  Zn2       1.0  0.27842989092862447  0.5635269066891875  0.40751938992461234  1.0000
  C   C21       1.0  0.17200443463255333  0.5602828009480769  0.670738466236012  1.0000
  C   C22       1.0  0.17373015210611342  0.5667769753353582  0.1443052846531123  1.0000
  C   C23       1.0  0.17472494506888056  0.8269257491653135  0.40129479674745605  1.0000
  C   C24       1.0  0.17100955727451517  0.3001322948101979  0.4137490341628234  1.0000
  O   O1        1.0  0.253695689480532  0.5692080091565062  0.19799175054629425  1.0000
  O   O2        1.0  0.25227978808580515  0.5578475316383  0.6170479193704486  1.0000
  O   O3        1.0  0.25447554989747756  0.7731650987375531  0.39947024716526797  1.0000
  O   O4        1.0  0.25149985603573  0.35389045135110275  0.41556931468144576  1.0000
  O   O5        1.0  0.09423234087284493  0.7731675036107142  0.3994742981584547  1.0000
  O   O6        1.0  0.09203659140901999  0.5578516688222968  0.6170518903365463  1.0000
  O   O7        1.0  0.09345249794074958  0.5692120796180209  0.19799398898224974  1.0000
  O   O8        1.0  0.09125666408165367  0.3538945125216797  0.415571661181497  1.0000
