data_image0
_chemical_formula_structural       NC8NH4C6H4C12H8Zn2C4O8
_chemical_formula_sum              "N2 C30 H16 Zn2 O8"
_cell_length_a       13.859017981522156
_cell_length_b       10.681118228259551
_cell_length_c       13.024585202197207
_cell_angle_alpha    85.80459198147678
_cell_angle_beta     93.99278861396841
_cell_angle_gamma    89.9983355177366

_space_group_name_H-M_alt    "P 1"
_space_group_IT_number       1

loop_
  _space_group_symop_operation_xyz
  'x, y, z'

loop_
  _atom_site_type_symbol
  _atom_site_label
  _atom_site_symmetry_multiplicity
  _atom_site_fract_x
  _atom_site_fract_y
  _atom_site_fract_z
  _atom_site_occupancy
  N   N1        1.0  0.8342736729091773  0.3648862043867971  0.8648086243650253  1.0000
  C   C1        1.0  0.7590545964863876  0.3585632272421355  0.8210326395768097  1.0000
  C   C2        1.0  0.6654867129286929  0.35069859426566236  0.7665810106847725  1.0000
  C   C3        1.0  0.6583561118267659  0.335361794674939  0.6603976630407802  1.0000
  C   C4        1.0  0.5674632852419106  0.32772496209622864  0.6075181333895115  1.0000
  C   C5        1.0  0.48349082424090994  0.33536328948353833  0.660397485777936  1.0000
  C   C6        1.0  0.4902564674331827  0.3506994387982866  0.766580879473094  1.0000
  C   C7        1.0  0.5813451979736926  0.3583661099729696  0.8196645947804035  1.0000
  C   C8        1.0  0.4038147684687067  0.3585640112093529  0.8210324679290499  1.0000
  N   N2        1.0  0.33432475286417773  0.36488647628324256  0.8648085575376614  1.0000
  H   H1        1.0  0.7229175713530238  0.32932664652541654  0.6186156358368309  1.0000
  H   H2        1.0  0.5620961104715725  0.3158781691549819  0.525496066249857  1.0000
  H   H3        1.0  0.413461281944682  0.32932933510842166  0.6186153360293947  1.0000
  H   H4        1.0  0.5867232766452934  0.3702367925548238  0.9018534182169561  1.0000
  C   C9        1.0  0.0843041371042923  0.9971363683251829  0.8648130158505885  1.0000
  C   C10       1.0  0.13201059793022374  0.9230295996963135  0.9465450335328711  1.0000
  C   C11       1.0  0.13201058009915856  0.7921473612865061  0.9465449864803395  1.0000
  C   C12       1.0  0.084304123815647  0.7326267725032506  0.864813060339639  1.0000
  C   C13       1.0  0.03663714691181586  0.8067224772688908  0.7831485838785851  1.0000
  C   C14       1.0  0.03663716434884901  0.9376147355754743  0.7831486256481711  1.0000
  H   H5        1.0  0.16940522784059028  0.9661238516920262  0.01061041445478039  1.0000
  H   H6        1.0  0.16940510801987754  0.7376198230058022  0.010610396275520408  1.0000
  H   H7        1.0  0.9992376404939034  0.7636737267222865  0.7190748379969254  1.0000
  H   H8        1.0  0.9992376146542542  0.9920981657145479  0.7190748296285876  1.0000
  C   C15       1.0  0.06452673731301321  0.3633785425884771  0.5625941572713442  1.0000
  C   C16       1.0  0.04319579139420827  0.4634498687032152  0.48816437570266263  1.0000
  C   C17       1.0  0.07616272768447074  0.4615325766334904  0.3892842716243254  1.0000
  C   C18       1.0  0.13038162515235552  0.3592083163187223  0.3628370161409048  1.0000
  C   C19       1.0  0.1526291316107147  0.2598495377485661  0.43719361165528214  1.0000
  C   C20       1.0  0.1197107711828254  0.2616617346937993  0.53611697940778  1.0000
  C   C21       1.0  0.1666679055142238  0.358052546832127  0.2586369396979285  1.0000
  C   C22       1.0  0.2672998147730865  0.3539697475106349  0.2509547132514778  1.0000
  C   C23       1.0  0.3060874487860122  0.36061053333577636  0.1547303795382129  1.0000
  C   C24       1.0  0.2450583120462344  0.37167814499401597  0.06488180226970776  1.0000
  C   C25       1.0  0.144922171369116  0.3745900540582605  0.07082140358164968  1.0000
  C   C26       1.0  0.10408147364862887  0.3663845755162862  0.16703188651807252  1.0000
  H   H9        1.0  0.0012087153436752785  0.5433917192105797  0.5063471721507651  1.0000
  H   H10       1.0  0.05955183953945632  0.5399309210091465  0.33328686838220556  1.0000
  H   H11       1.0  0.19502074489735735  0.180554763277732  0.4183294538453528  1.0000
  H   H12       1.0  0.13756891062923615  0.18339636913679436  0.5917962360356218  1.0000
  H   H13       1.0  0.31604582734577424  0.34785901149953996  0.31990155557682987  1.0000
  H   H14       1.0  0.3837026658293508  0.358126357309618  0.14984917116942634  1.0000
  H   H15       1.0  0.27537208224876997  0.3772005390843267  0.9903148521870598  1.0000
  H   H16       1.0  0.8665390781149916  0.41002979923267163  0.08249739593110106  1.0000
  Zn  Zn1       1.0  0.9785780076238235  0.36488296828116834  0.8648145455036216  1.0000
  Zn  Zn2       1.0  0.1900209718976729  0.3648795365697764  0.8648110569287378  1.0000
  C   C27       1.0  0.09660265859774175  0.3608274404996583  0.052780238391819695  1.0000
  C   C28       1.0  0.07199863648457064  0.36893664491965406  0.6768454650143589  1.0000
  C   C29       1.0  0.08403077131382002  0.5935830088676697  0.8607119447795188  1.0000
  C   C30       1.0  0.08457045520848028  0.13617957224246166  0.8689138134964722  1.0000
  O   O1        1.0  0.1547477771010295  0.37079522910494495  0.7151879236951858  1.0000
  O   O2        1.0  0.17433381602074904  0.35896530551544403  0.014434835706005789  1.0000
  O   O3        1.0  0.16418084638123775  0.5469183759080696  0.8593383297169548  1.0000
  O   O4        1.0  0.16490066953963292  0.1828421672881901  0.8702843525200851  1.0000
  O   O5        1.0  0.0036982378264025654  0.5469203375652619  0.8593412499080517  1.0000
  O   O6        1.0  0.01385120387046479  0.35896877148432504  0.014437701023066858  1.0000
  O   O7        1.0  0.9942650840423377  0.3707986452803447  0.715189551667643  1.0000
  O   O8        1.0  0.004417981526388306  0.18284557489022663  0.8702860576524717  1.0000
