data_image0
_chemical_formula_structural       NC8NC6H8C10IC2H7C9N2CH7Zn2C4O8
_chemical_formula_sum              "N4 C40 H22 I1 Zn2 O8"
_cell_length_a       17.457602349358154
_cell_length_b       10.299770258652044
_cell_length_c       10.299047444628409
_cell_angle_alpha    85.54383262812712
_cell_angle_beta     92.89777200526842
_cell_angle_gamma    91.70636658755173

_space_group_name_H-M_alt    "P 1"
_space_group_IT_number       1

loop_
  _space_group_symop_operation_xyz
  'x, y, z'

loop_
  _atom_site_type_symbol
  _atom_site_label
  _atom_site_symmetry_multiplicity
  _atom_site_fract_x
  _atom_site_fract_y
  _atom_site_fract_z
  _atom_site_occupancy
  N   N1        1.0  0.7223972915018023  0.4532483191070411  0.6264332220600397  1.0000
  C   C1        1.0  0.6613083093576793  0.40732673666043917  0.6158147460679109  1.0000
  C   C2        1.0  0.5853110357264042  0.35020599947167663  0.6026149050040615  1.0000
  C   C3        1.0  0.5268065499459528  0.3903442986815691  0.6775211199185334  1.0000
  C   C4        1.0  0.45224789623892364  0.3353416178393655  0.6649358554926605  1.0000
  C   C5        1.0  0.3901539152272371  0.3777216761359268  0.7442643731184839  1.0000
  C   C6        1.0  0.3155984462521222  0.39620726107483323  0.688496361572085  1.0000
  C   C7        1.0  0.2570939465850301  0.43616160263551035  0.7635105332052283  1.0000
  C   C8        1.0  0.18109994821503872  0.4552537242478676  0.7055268769373735  1.0000
  N   N2        1.0  0.12001368885675581  0.47059741032704777  0.658908168115432  1.0000
  C   C9        1.0  0.2726529115086939  0.45787334101785016  0.8948012908089205  1.0000
  C   C10       1.0  0.3464238357554417  0.4397766195285484  0.9509569515889642  1.0000
  C   C11       1.0  0.4049168656517002  0.40000218880591665  0.8764005509283858  1.0000
  C   C12       1.0  0.43748192949250064  0.23952366835810388  0.5760112966310392  1.0000
  C   C13       1.0  0.4959748382344869  0.1996639228627621  0.5015051330834421  1.0000
  C   C14       1.0  0.5697488689550639  0.2547788076803781  0.5146404029921756  1.0000
  H   H1        1.0  0.5391795499082955  0.46551738777853197  0.7441609378086055  1.0000
  H   H2        1.0  0.30322809138927714  0.3812687829312108  0.5864617764149631  1.0000
  H   H3        1.0  0.2278107787905829  0.48873761096537266  0.9536438069796916  1.0000
  H   H4        1.0  0.3582806925161081  0.45627286264474387  0.05261830104306009  1.0000
  H   H5        1.0  0.461409813094972  0.3849961676453122  0.9225107362233853  1.0000
  H   H6        1.0  0.3809863291903087  0.19419176096249258  0.5653567229742164  1.0000
  H   H7        1.0  0.484115595266357  0.1256076593672264  0.43366692480605246  1.0000
  H   H8        1.0  0.6145909935072286  0.22304468738399216  0.4563090261967293  1.0000
  C   C15       1.0  0.9211368531278226  0.08055460042216198  0.6426619921783165  1.0000
  C   C16       1.0  0.9268007197870793  0.09040611112069796  0.5067185746117742  1.0000
  C   C17       1.0  0.9297441711119545  0.9782618708250896  0.43785010736657143  1.0000
  C   C18       1.0  0.9269468920620189  0.8551246886531031  0.5067481305928017  1.0000
  C   C19       1.0  0.9212814502514395  0.8432813963736518  0.6426912514890073  1.0000
  C   C20       1.0  0.9184085776578564  0.9565549750131683  0.7098870131084923  1.0000
  C   C21       1.0  0.9357365237710311  0.989737301286016  0.2940351712925546  1.0000
  C   C22       1.0  0.9848169690799149  0.9090630570147196  0.23409227999604737  1.0000
  C   C23       1.0  0.9903797796809556  0.9200723916880529  0.09871614135173434  1.0000
  C   C24       1.0  0.9470849091919775  0.011469495538133364  0.02165660066168673  1.0000
  I   I1        1.0  0.9555918973998092  0.027760678529585192  0.8174680169035944  1.0000
  C   C25       1.0  0.898144957228413  0.09205606604060401  0.08009207620215353  1.0000
  C   C26       1.0  0.8924284017025803  0.08146537622528059  0.2154371268057198  1.0000
  H   H9        1.0  0.929994867996423  0.18557168586309003  0.4542844355711311  1.0000
  H   H10       1.0  0.9281394237370454  0.7683592588190161  0.4539098888618214  1.0000
  H   H11       1.0  0.9140384669078101  0.948186723882832  0.8147609937689272  1.0000
  H   H12       1.0  0.019608271981061076  0.83869703331061  0.2920166339470245  1.0000
  H   H13       1.0  0.02850146282958011  0.857743448915426  0.05382910655797879  1.0000
  H   H14       1.0  0.864368413602944  0.16270606270035493  0.020687320704045217  1.0000
  H   H15       1.0  0.8534310831957712  0.14377709817413686  0.2584621320086424  1.0000
  C   C27       1.0  0.9211250010170686  0.4620356338071216  0.2612724600154901  1.0000
  C   C28       1.0  0.0015494763018819558  0.4736308038721879  0.2664857308871957  1.0000
  C   C29       1.0  0.042429903856029405  0.47939027431079223  0.1520032997473801  1.0000
  C   C30       1.0  0.0017676554061005767  0.4733901138361827  0.031240867337983584  1.0000
  C   C31       1.0  0.921293302014672  0.4618004230230335  0.024080774181772117  1.0000
  C   C32       1.0  0.881468929260474  0.456192410284205  0.13958428407054055  1.0000
  C   C33       1.0  0.12752399239328316  0.49163730855868687  0.15855212391306917  1.0000
  C   C34       1.0  0.17154240621739963  0.42143714291647977  0.07933406859792158  1.0000
  C   C35       1.0  0.25125569794875635  0.43498623660745234  0.08786279433051546  1.0000
  N   N3        1.0  0.28530427383752  0.5160211202200411  0.17257723228819574  1.0000
  N   N4        1.0  0.244009707033968  0.5833684725903723  0.24825504170718093  1.0000
  C   C36       1.0  0.16614843169694218  0.5737512318513108  0.2441671354043264  1.0000
  H   H16       1.0  0.032633997629699436  0.4763647229330747  0.35997826788978937  1.0000
  H   H17       1.0  0.03287895397509665  0.47959868345748713  0.9425095630858981  1.0000
  H   H18       1.0  0.8194365707937619  0.44725450928158916  0.13484973457586658  1.0000
  H   H19       1.0  0.7693684788885475  0.4407572093722429  0.8032103061285021  1.0000
  H   H20       1.0  0.14467614309420188  0.3554480916869205  0.012803394387660207  1.0000
  H   H21       1.0  0.2859751292951678  0.38112170448719657  0.027714806897840547  1.0000
  H   H22       1.0  0.13480429722452825  0.631245736987883  0.30615584215994684  1.0000
  Zn  Zn1       1.0  0.8371407958181758  0.45825140706164436  0.6358122890220079  1.0000
  Zn  Zn2       1.0  0.005270170617969191  0.4655836712875499  0.6495397342551422  1.0000
  C   C37       1.0  0.9212588037914534  0.4566711092653113  0.8798933194600891  1.0000
  C   C38       1.0  0.921153998951032  0.46716568773004935  0.40545898126137414  1.0000
  C   C39       1.0  0.9212490348254168  0.699111241499649  0.6375097296158019  1.0000
  C   C40       1.0  0.921163710265723  0.2247239926718838  0.6478426356066629  1.0000
  O   O1        1.0  0.9849679513713152  0.4716642710177123  0.45905878865924965  1.0000
  O   O2        1.0  0.9850511563270514  0.4577365652621803  0.8367119514445722  1.0000
  O   O3        1.0  0.9850424079499907  0.6535100001886804  0.6409854175654719  1.0000
  O   O4        1.0  0.9849766423574834  0.27589084290944993  0.6547852204707942  1.0000
  O   O5        1.0  0.8574342667043564  0.6479442329390184  0.630566798115021  1.0000
  O   O6        1.0  0.857443015358457  0.45217235833562053  0.8262932628017845  1.0000
  O   O7        1.0  0.8573598101006189  0.4661000193190421  0.4486385384739464  1.0000
  O   O8        1.0  0.8573685011033743  0.27032658189181613  0.6443650676617119  1.0000
