data_image0
_chemical_formula_structural       NC9NC5H8C6NH7C6NCOH6Zn2C4O8
_chemical_formula_sum              "N4 C31 H21 O9 Zn2"
_cell_length_a       17.807436237873137
_cell_length_b       9.274771166103582
_cell_length_c       10.29962270195845
_cell_angle_alpha    85.47454724786482
_cell_angle_beta     89.41121966804023
_cell_angle_gamma    88.98784114054227

_space_group_name_H-M_alt    "P 1"
_space_group_IT_number       1

loop_
  _space_group_symop_operation_xyz
  'x, y, z'

loop_
  _atom_site_type_symbol
  _atom_site_label
  _atom_site_symmetry_multiplicity
  _atom_site_fract_x
  _atom_site_fract_y
  _atom_site_fract_z
  _atom_site_occupancy
  N   N1        1.0  0.7155287169202662  0.5404641066063978  0.5545013350667781  1.0000
  C   C1        1.0  0.654726363509921  0.5013853569897346  0.5435456723702236  1.0000
  C   C2        1.0  0.579094918654464  0.45277569603764034  0.5299180174239018  1.0000
  C   C3        1.0  0.5605519389772913  0.3734390804704104  0.42505648494805753  1.0000
  C   C4        1.0  0.487117025685421  0.32611901033991986  0.4117424987121534  1.0000
  C   C5        1.0  0.4311740850518382  0.35771633328257446  0.5032583226684748  1.0000
  C   C6        1.0  0.3531324125921783  0.3075549187732316  0.4891908532703213  1.0000
  C   C7        1.0  0.2914552206315476  0.3983465548632021  0.5149711781953559  1.0000
  C   C8        1.0  0.2178767775751364  0.3508010348898898  0.5016712642848664  1.0000
  C   C9        1.0  0.1551658354015835  0.4445812915937668  0.52781028809578  1.0000
  N   N2        1.0  0.10475919072892238  0.5199741302755848  0.5488253480470651  1.0000
  C   C10       1.0  0.20539041719948053  0.21217740750015324  0.4625661742066709  1.0000
  C   C11       1.0  0.2662101540090342  0.12137038679037881  0.4367774865887606  1.0000
  C   C12       1.0  0.3396667416088561  0.16847773492017937  0.4498756300382205  1.0000
  C   C13       1.0  0.45041149932749447  0.4376019731920995  0.6083381237269281  1.0000
  C   C14       1.0  0.5238981035334728  0.48471057356713926  0.6214968317323917  1.0000
  H   H1        1.0  0.6027973884578114  0.3484461391408182  0.3533895247272181  1.0000
  H   H2        1.0  0.4738642824512174  0.26648074876836203  0.32892839749930225  1.0000
  H   H3        1.0  0.300547368195443  0.5065822556230267  0.5436592141617163  1.0000
  H   H4        1.0  0.1487176248993107  0.1743798657629705  0.4520373109178393  1.0000
  H   H5        1.0  0.2564243931933374  0.014044906766206948  0.40688749774243244  1.0000
  H   H6        1.0  0.38590651287951583  0.09546739040035244  0.43095470734535013  1.0000
  H   H7        1.0  0.4088799156236859  0.4619968065330222  0.6813005785582087  1.0000
  H   H8        1.0  0.5376863788600642  0.5457038137657222  0.7032669866097835  1.0000
  C   C15       1.0  0.9078418621289419  0.10674403333921888  0.5524047819477693  1.0000
  C   C16       1.0  0.8905372421659293  0.19092091323831134  0.43652431653159224  1.0000
  C   C17       1.0  0.8802447768977952  0.12637024924040352  0.3198047841807985  1.0000
  C   C18       1.0  0.8872961456276709  0.9762628558797397  0.3181186478176896  1.0000
  C   C19       1.0  0.9032116396809342  0.8908390862162717  0.4324240448723327  1.0000
  C   C20       1.0  0.9124531717073983  0.9536828048763345  0.5509331162011306  1.0000
  N   N3        1.0  0.8634013575510134  0.21362187785190367  0.2026412264454798  1.0000
  H   H9        1.0  0.9924202886967197  0.1820567611689905  0.83538413253011  1.0000
  H   H10       1.0  0.8867502472430082  0.30771279300560406  0.4360806930793619  1.0000
  H   H11       1.0  0.8797326018982585  0.9251406365201279  0.22830955990493831  1.0000
  H   H12       1.0  0.906520828065719  0.7744994965353218  0.42865652356962736  1.0000
  H   H13       1.0  0.9663764288571476  0.6538491590864525  0.7435120572862466  1.0000
  H   H14       1.0  0.8582266891791814  0.3259681693071676  0.20267450611160312  1.0000
  H   H15       1.0  0.8559089233691713  0.16651391040432603  0.11496679391639875  1.0000
  C   C21       1.0  0.910075277936112  0.530076582968793  0.17031343700091228  1.0000
  C   C22       1.0  0.8314393157870471  0.5453440802486226  0.1693481580979772  1.0000
  C   C23       1.0  0.7919735371119698  0.5553898399889099  0.051893195071153864  1.0000
  C   C24       1.0  0.831607064835367  0.545644424445507  0.934173006825425  1.0000
  C   C25       1.0  0.910219743503882  0.5303502135302648  0.9330243899653948  1.0000
  C   C26       1.0  0.9490309947250287  0.523230742806799  0.051603419529261625  1.0000
  N   N4        1.0  0.7113957069967705  0.5687791706596368  0.054935690329360964  1.0000
  C   C27       1.0  0.6677631105376151  0.6498081779144742  0.9573679179978495  1.0000
  O   O1        1.0  0.6984714688087565  0.7315735832533103  0.869671934141012  1.0000
  H   H16       1.0  0.8004490155608908  0.5507290326600189  0.25994951260140375  1.0000
  H   H17       1.0  0.8011230215726156  0.5469768790937832  0.8437657645030604  1.0000
  H   H18       1.0  0.009651710569422043  0.5114797924805767  0.05147008771651862  1.0000
  H   H19       1.0  0.9403077233262604  0.5222964993408308  0.6052936268230669  1.0000
  H   H20       1.0  0.6826334481208837  0.5254429177220722  0.13752678292891152  1.0000
  H   H21       1.0  0.6071449566803738  0.6440026622125379  0.9611616294191543  1.0000
  Zn  Zn1       1.0  0.8278522030996677  0.5345472968599769  0.5528708850353938  1.0000
  Zn  Zn2       1.0  0.9924356243726769  0.5258791888850562  0.5504664947409592  1.0000
  C   C28       1.0  0.9101594816520687  0.524553691711473  0.7888657306152669  1.0000
  C   C29       1.0  0.9101301529970236  0.5358745189593217  0.3144717472054479  1.0000
  C   C30       1.0  0.9115766808190251  0.7935916654144306  0.546036336876758  1.0000
  C   C31       1.0  0.9087128882490895  0.2668348156673108  0.5573012140112259  1.0000
  O   O2        1.0  0.9726070859542273  0.5345245661584275  0.3619401503584849  1.0000
  O   O3        1.0  0.9725975512459265  0.519323663100419  0.7395720789200624  1.0000
  O   O4        1.0  0.9737411157808049  0.7365752741436288  0.5434856351129291  1.0000
  O   O5        1.0  0.9714634652958994  0.3172729683540547  0.5580264975969058  1.0000
  O   O6        1.0  0.848824306012208  0.7431535203505455  0.5453108829931139  1.0000
  O   O7        1.0  0.8476807508940705  0.5259036418559568  0.7413972545466461  1.0000
  O   O8        1.0  0.8476902850829763  0.541104494098612  0.36376376472590377  1.0000
  O   O9        1.0  0.8465466643838611  0.3238528860149696  0.5598502093467048  1.0000
