data_image0
_chemical_formula_structural       NC9NC4H8C6SCNH4C7F3H5Zn2C4O8
_chemical_formula_sum              "N3 C31 H17 S1 F3 Zn2 O8"
_cell_length_a       16.32274767691083
_cell_length_b       10.302215558581764
_cell_length_c       9.272721663655245
_cell_angle_alpha    85.88255001393937
_cell_angle_beta     89.98655041730063
_cell_angle_gamma    89.54366289277024

_space_group_name_H-M_alt    "P 1"
_space_group_IT_number       1

loop_
  _space_group_symop_operation_xyz
  'x, y, z'

loop_
  _atom_site_type_symbol
  _atom_site_label
  _atom_site_symmetry_multiplicity
  _atom_site_fract_x
  _atom_site_fract_y
  _atom_site_fract_z
  _atom_site_occupancy
  N   N1        1.0  0.7635782130218042  0.40376299420654177  0.39795073918780055  1.0000
  C   C1        1.0  0.7109326057502594  0.35603884756259907  0.3376670592516369  1.0000
  C   C2        1.0  0.6454938707260698  0.2967650858159965  0.26279424672554796  1.0000
  C   C3        1.0  0.6565198526927039  0.2156891337348288  0.16037679766173255  1.0000
  C   C4        1.0  0.5768971927722757  0.17612365853995104  0.11040048674489956  1.0000
  C   C5        1.0  0.5183403967716035  0.23402686031941222  0.18354798769279257  1.0000
  C   C6        1.0  0.4283034965722455  0.21872358382910106  0.16421967803353366  1.0000
  C   C7        1.0  0.3731460549803547  0.28621346464225206  0.24946960599267134  1.0000
  C   C8        1.0  0.2883525742908953  0.2731345476637512  0.2329504077294924  1.0000
  C   C9        1.0  0.2327966825876034  0.3426991873409204  0.3208202230719004  1.0000
  N   N2        1.0  0.18814861055559798  0.3986177084297773  0.3914526721921334  1.0000
  C   C10       1.0  0.2576627912879666  0.1924566014252531  0.13104410253069299  1.0000
  C   C11       1.0  0.3114988972313203  0.12505611775611802  0.04590747323924438  1.0000
  C   C12       1.0  0.39613129239502254  0.13778274830721804  0.06198154678410206  1.0000
  C   C13       1.0  0.5566429730086222  0.3184560884157832  0.2901985012567361  1.0000
  H   H1        1.0  0.7152225442671842  0.18416250681577195  0.12054897458949942  1.0000
  H   H2        1.0  0.5681714450967893  0.10986038294167244  0.02669462817709367  1.0000
  H   H3        1.0  0.3956675924823902  0.3491962031497675  0.32902477526109775  1.0000
  H   H4        1.0  0.1922010562272589  0.18168228455554591  0.11743595894184056  1.0000
  H   H5        1.0  0.2875850223070641  0.06264420569419091  0.967073613783414  1.0000
  H   H6        1.0  0.43556233730363514  0.08386670208184732  0.9938781614037042  1.0000
  H   H7        1.0  0.5404369615326734  0.2842756008143547  0.40288551137314754  1.0000
  H   H8        1.0  0.5397594243834033  0.4223720447121376  0.26560337753499574  1.0000
  C   C14       1.0  0.9757857621710112  0.019918862253305303  0.39466319817233475  1.0000
  C   C15       1.0  0.058123490799273564  0.015076970690687258  0.43877595514403844  1.0000
  C   C16       1.0  0.09910061927102348  0.8956289875014408  0.46118431287374273  1.0000
  C   C17       1.0  0.0583370548837625  0.7798997862437868  0.4388947820372164  1.0000
  C   C18       1.0  0.9759489463509811  0.7824517476802271  0.39475252983728715  1.0000
  C   C19       1.0  0.9351168255010248  0.9029755412972921  0.3729351104671288  1.0000
  S   S1        1.0  0.20429227830670726  0.8909632591033979  0.5169009129725757  1.0000
  C   C20       1.0  0.178210213653323  0.8793732461550804  0.7020777328727785  1.0000
  N   N3        1.0  0.1610861809177426  0.8717756971589524  0.8234773606834014  1.0000
  H   H9        1.0  0.09074169470733028  0.10374472580061213  0.4561691676353052  1.0000
  H   H10       1.0  0.09110164843076407  0.6882844344660346  0.4563695181911907  1.0000
  H   H11       1.0  0.8716147134315345  0.905860241506908  0.33893381584205073  1.0000
  H   H12       1.0  0.8206818031547853  0.5800535945156007  0.31140075125583566  1.0000
  C   C21       1.0  0.9736993171085498  0.39910573909304525  0.9712975858101416  1.0000
  C   C22       1.0  0.008543787151042755  0.2924852538813083  0.05347383399395045  1.0000
  C   C23       1.0  0.050570356332445554  0.19350064182586243  0.9869137471339404  1.0000
  C   C24       1.0  0.05524202649845722  0.1994228283594954  0.8356931485955226  1.0000
  C   C25       1.0  0.01991144875671469  0.3033460006643862  0.7525557126530882  1.0000
  C   C26       1.0  0.9780354376034679  0.40326491949561527  0.8181181568201272  1.0000
  C   C27       1.0  0.08560681301479667  0.07829114928061176  0.07671103930422185  1.0000
  F   F1        1.0  0.11320454327390639  0.11569187355260313  0.2085261513974468  1.0000
  F   F2        1.0  0.15089847194136885  0.023796125336453595  0.006585363170895859  1.0000
  F   F3        1.0  0.025440853323009712  0.985564317708639  0.10065632919278467  1.0000
  H   H13       1.0  0.9218355294690294  0.7089100238506323  0.04834800311913701  1.0000
  H   H14       1.0  0.004452153386580449  0.28792216742929866  0.17038153433216618  1.0000
  H   H15       1.0  0.08550612525242272  0.12278600851334076  0.7813129070374081  1.0000
  H   H16       1.0  0.023422086739493198  0.30371870816833885  0.63584741483887  1.0000
  H   H17       1.0  0.8310656097964024  0.6240342276612503  0.6991030683171178  1.0000
  Zn  Zn1       1.0  0.8861001066228164  0.402274732085851  0.3960838637837194  1.0000
  Zn  Zn2       1.0  0.06562678132949906  0.40009537431776  0.3933313583704563  1.0000
  C   C28       1.0  0.9772128665074298  0.3973063952464444  0.6580503759694154  1.0000
  C   C29       1.0  0.9745159829458651  0.4050653262545108  0.13136495783759372  1.0000
  C   C30       1.0  0.9758844857355757  0.6382886555380396  0.3889900660850909  1.0000
  C   C31       1.0  0.9758443025175499  0.16408150718032347  0.4004253453497  1.0000
  O   O1        1.0  0.04291949968888442  0.4062326989388185  0.18404046800012266  1.0000
  O   O2        1.0  0.045065939567366035  0.39448395893239163  0.6032853627139572  1.0000
  O   O3        1.0  0.04399234455382439  0.5890802002671274  0.38601727307564637  1.0000
  O   O4        1.0  0.04399303289055445  0.2116364671046196  0.4013084504696993  1.0000
  O   O5        1.0  0.9077337937980796  0.5907336400440755  0.388106772616188  1.0000
  O   O6        1.0  0.908807388748109  0.3961389582370163  0.6053747855584277  1.0000
  O   O7        1.0  0.9066609400379961  0.40788764448416437  0.18612815731193444  1.0000
  O   O8        1.0  0.907734473787856  0.21329140389451243  0.40339624788195666  1.0000
