data_image0
_chemical_formula_structural       NC8NH4C7NH5C7F3H5Zn2C4O8
_chemical_formula_sum              "N3 C26 H14 F3 Zn2 O8"
_cell_length_a       13.859017124695912
_cell_length_b       9.275154477615127
_cell_length_c       10.299327507215196
_cell_angle_alpha    85.77882767837892
_cell_angle_beta     89.98117985165102
_cell_angle_gamma    89.43373790894346

_space_group_name_H-M_alt    "P 1"
_space_group_IT_number       1

loop_
  _space_group_symop_operation_xyz
  'x, y, z'

loop_
  _atom_site_type_symbol
  _atom_site_label
  _atom_site_symmetry_multiplicity
  _atom_site_fract_x
  _atom_site_fract_y
  _atom_site_fract_z
  _atom_site_occupancy
  N   N1        1.0  0.898499827352348  0.578107592565195  0.57308084278419  1.0000
  C   C1        1.0  0.8263087965383105  0.5552620097008947  0.5223939214965845  1.0000
  C   C2        1.0  0.7365074264183881  0.5268454478951452  0.4593459071880408  1.0000
  C   C3        1.0  0.6486939966377365  0.5545487214084841  0.5208097912512526  1.0000
  C   C4        1.0  0.5612770985784082  0.52684667349046  0.4593453895949213  1.0000
  C   C5        1.0  0.5618560934189029  0.47143385704901486  0.3363982406884231  1.0000
  C   C6        1.0  0.6494862009429035  0.4438370595440191  0.27517094699000966  1.0000
  C   C7        1.0  0.7367214675738666  0.4714315080192637  0.33639929403655433  1.0000
  C   C8        1.0  0.4710689518013518  0.5552629360901231  0.5223934760733288  1.0000
  N   N2        1.0  0.3985509508543353  0.5781079151239341  0.573080649303542  1.0000
  H   H1        1.0  0.6483870382662593  0.5974404065187275  0.6159738330589886  1.0000
  H   H2        1.0  0.4947166933877257  0.4496303615757251  0.2880194427216234  1.0000
  H   H3        1.0  0.6497925987351164  0.40103298805626664  0.18019963112179369  1.0000
  H   H4        1.0  0.8041729389628777  0.4496259122082678  0.28802138891026496  1.0000
  C   C9        1.0  0.15132252796675405  0.15471870546765332  0.5715778940918466  1.0000
  C   C10       1.0  0.1248651614896026  0.2379153517727415  0.45706976267651717  1.0000
  C   C11       1.0  0.09055800895260947  0.17189355154915065  0.3486273008978795  1.0000
  C   C12       1.0  0.08214321738720942  0.021772285588794744  0.3534158254613162  1.0000
  C   C13       1.0  0.1094954997729436  0.9373683656166957  0.4653138346927241  1.0000
  C   C14       1.0  0.14573755665951071  0.0014857563924888276  0.5745948472076787  1.0000
  C   C15       1.0  0.06281727804708614  0.2586722211453512  0.232739048231936  1.0000
  N   N3        1.0  0.04052142578948059  0.32842636090846744  0.13959457759728577  1.0000
  H   H5        1.0  0.169954460596488  0.23134083303607467  0.8903667931577204  1.0000
  H   H6        1.0  0.12880662218187888  0.35487534650569885  0.45321629319424694  1.0000
  H   H7        1.0  0.0552618836796428  0.9696584866471676  0.2700709830345005  1.0000
  H   H8        1.0  0.10442881806118098  0.8209007835124911  0.465199541893966  1.0000
  H   H9        1.0  0.16237776965796494  0.7026827294959942  0.7881924759908019  1.0000
  C   C16       1.0  0.14862205381904703  0.5781607809710583  0.191704978019561  1.0000
  C   C17       1.0  0.24200659562710516  0.6359709385036623  0.1866404424328667  1.0000
  C   C18       1.0  0.28839470447797766  0.6675810537128135  0.06679805483193202  1.0000
  C   C19       1.0  0.24176497683550813  0.6358180490323158  0.9514024401370711  1.0000
  C   C20       1.0  0.14843805634675644  0.578043681355225  0.9544677371721015  1.0000
  C   C21       1.0  0.10226100270371963  0.5500846011966185  0.07509569952071615  1.0000
  C   C22       1.0  0.38999983592682913  0.7247543723611998  0.06273938459353157  1.0000
  F   F1        1.0  0.4062988320911316  0.8089489935812566  0.1659305154079007  1.0000
  F   F2        1.0  0.45449254210747436  0.6098014847929327  0.0701987585242545  1.0000
  F   F3        1.0  0.40603388841566956  0.8089294318421141  0.9482870421391371  1.0000
  H   H10       1.0  0.9730649311390629  0.46665573265752386  0.40865985566886026  1.0000
  H   H11       1.0  0.27887575166917467  0.6562494098609177  0.2761092091152044  1.0000
  H   H12       1.0  0.2784684288288494  0.6559877708047037  0.8590942565081131  1.0000
  H   H13       1.0  0.030284284652289717  0.505530655927775  0.0781942533067268  1.0000
  H   H14       1.0  0.11320373224316715  0.553465728356705  0.628348652601546  1.0000
  Zn  Zn1       1.0  0.04280380648377546  0.5781038351257659  0.5730882771365524  1.0000
  Zn  Zn2       1.0  0.2542470390900329  0.578099909733949  0.5730838250731684  1.0000
  C   C23       1.0  0.14850854051241644  0.5723220691646966  0.8102687677126884  1.0000
  C   C24       1.0  0.14854460198558206  0.5838834947991924  0.3359034684004687  1.0000
  C   C25       1.0  0.1467895130550716  0.841429534587877  0.5688492060385404  1.0000
  C   C26       1.0  0.15026356870053958  0.314774297146266  0.5773230931453668  1.0000
  O   O1        1.0  0.22876025475780848  0.5857963101654409  0.38429608709650503  1.0000
  O   O2        1.0  0.22877341608906243  0.5704051869036197  0.7618723922700905  1.0000
  O   O3        1.0  0.22738419765616236  0.7877128683739609  0.5669243934987711  1.0000
  O   O4        1.0  0.2301494009949241  0.3684886390252325  0.5792439885282412  1.0000
  O   O5        1.0  0.06690137242367755  0.7877151058373926  0.5669281136761726  1.0000
  O   O6        1.0  0.06829057944375827  0.5704091565997076  0.7618760493714356  1.0000
  O   O7        1.0  0.06827741888478255  0.5858002298589153  0.3842981825671503  1.0000
  O   O8        1.0  0.0696665651624764  0.3684925483914843  0.5792461813331637  1.0000
