data_image0
_chemical_formula_structural       NC8NC6H8C12H10C7F3H5Zn2C4O8
_chemical_formula_sum              "N2 C37 H23 F3 Zn2 O8"
_cell_length_a       17.457602349358154
_cell_length_b       10.299137764757564
_cell_length_c       9.272721663655245
_cell_angle_alpha    85.85599579155343
_cell_angle_beta     93.38388695232669
_cell_angle_gamma    91.70779885892506

_space_group_name_H-M_alt    "P 1"
_space_group_IT_number       1

loop_
  _space_group_symop_operation_xyz
  'x, y, z'

loop_
  _atom_site_type_symbol
  _atom_site_label
  _atom_site_symmetry_multiplicity
  _atom_site_fract_x
  _atom_site_fract_y
  _atom_site_fract_z
  _atom_site_occupancy
  N   N1        1.0  0.7153881161991987  0.44504466053730013  0.4737642802185789  1.0000
  C   C1        1.0  0.6542448333246855  0.39905458152818496  0.4619896477100047  1.0000
  C   C2        1.0  0.578180058314149  0.3418486930161708  0.4473526019755778  1.0000
  C   C3        1.0  0.5200580532093966  0.3824449773216119  0.5305342132111793  1.0000
  C   C4        1.0  0.44543503985057264  0.32736106165046075  0.5165788874590451  1.0000
  C   C5        1.0  0.3837461200966455  0.3702261321391905  0.6046714169615428  1.0000
  C   C6        1.0  0.3089059904609678  0.38837504198018713  0.542721971677641  1.0000
  C   C7        1.0  0.250784522220856  0.4287880072151286  0.6260235681462083  1.0000
  C   C8        1.0  0.17449455345718118  0.44753006637777565  0.5616129456595211  1.0000
  N   N2        1.0  0.11317033465939179  0.46259230259558115  0.5098269753794646  1.0000
  C   C9        1.0  0.2670137760180704  0.45129815122747957  0.77183938241557  1.0000
  C   C10       1.0  0.3410713406784298  0.4335404910593392  0.8342192269017792  1.0000
  C   C11       1.0  0.399183676452255  0.3933102297176441  0.7514260019902723  1.0000
  C   C12       1.0  0.4302149154741502  0.2309951383128408  0.41785051067153917  1.0000
  C   C13       1.0  0.4883273863836107  0.19067985938348375  0.3351131201596292  1.0000
  C   C14       1.0  0.5621685847845863  0.24587932561218426  0.3496792910637745  1.0000
  H   H1        1.0  0.5327714044570713  0.4580290156499731  0.6045195673394818  1.0000
  H   H2        1.0  0.296014714444909  0.3728162428111786  0.4293982057398724  1.0000
  H   H3        1.0  0.2224720993346697  0.4825221317997472  0.8371829099742397  1.0000
  H   H4        1.0  0.35344721636142573  0.45065492934686285  0.9471277832097116  1.0000
  H   H5        1.0  0.4559119879842355  0.3785826034512748  0.8026470118210347  1.0000
  H   H6        1.0  0.37366483135510214  0.18559456775179473  0.40603553613613586  1.0000
  H   H7        1.0  0.4761216765567938  0.11620547582131023  0.2597962407842074  1.0000
  H   H8        1.0  0.6067128609295761  0.21378851825040532  0.2849038534442714  1.0000
  C   C15       1.0  0.9142097719619232  0.07241628550558186  0.49194652524492427  1.0000
  C   C16       1.0  0.9134474148132219  0.08148000401330635  0.34004518505611925  1.0000
  C   C17       1.0  0.9131359932041702  0.9689464782454938  0.26287646757559635  1.0000
  C   C18       1.0  0.9135971869593251  0.8462294474321054  0.3396622427005478  1.0000
  C   C19       1.0  0.9143560651098614  0.8352110402965665  0.4916578910164007  1.0000
  C   C20       1.0  0.9146589724297719  0.9488171679173456  0.5668644000107077  1.0000
  C   C21       1.0  0.9123285856615347  0.9795798703973918  0.10217977489701927  1.0000
  C   C22       1.0  0.9582481640354269  0.8989047953465582  0.02877149562790415  1.0000
  C   C23       1.0  0.9573927635420972  0.9091601105817204  0.8775002608163202  1.0000
  C   C24       1.0  0.9108021359866806  0.9997172499949748  0.7979447976567391  1.0000
  C   C25       1.0  0.8649697425876253  0.08027256841308449  0.8694988475313018  1.0000
  C   C26       1.0  0.865632154099997  0.0705036414183331  0.020753560442524632  1.0000
  H   H9        1.0  0.9144638535395683  0.3964039890502209  0.5503742742874492  1.0000
  H   H10       1.0  0.9141561880424783  0.17634612899248325  0.2814842768867454  1.0000
  H   H11       1.0  0.912302657438626  0.7591102776100894  0.2806460507044539  1.0000
  H   H12       1.0  0.9152448947295904  0.9411104916510941  0.684029198842196  1.0000
  H   H13       1.0  0.9153003503534002  0.6071012787063301  0.7784974573678508  1.0000
  H   H14       1.0  0.9955127790283855  0.829164154687033  0.08835516163172152  1.0000
  H   H15       1.0  0.9930467387754154  0.8470315004801497  0.8219382381298113  1.0000
  H   H16       1.0  0.9102147542413175  0.007467412846864588  0.6808572839268847  1.0000
  H   H17       1.0  0.8287270814392546  0.15016862851769952  0.8077109868395822  1.0000
  H   H18       1.0  0.8289335321656108  0.1327822214331218  0.07392539932000086  1.0000
  C   C27       1.0  0.9122516822203636  0.4516175039822312  0.06817565751750256  1.0000
  C   C28       1.0  0.9448985672679537  0.346824175022167  0.15389978992074327  1.0000
  C   C29       1.0  0.9842743311117721  0.2500531600514695  0.0916035573773395  1.0000
  C   C30       1.0  0.9886511911639067  0.2562270281189709  0.940848174837448  1.0000
  C   C31       1.0  0.9555488927478233  0.35829616480546295  0.8541155232474505  1.0000
  C   C32       1.0  0.9163141793788733  0.4560098444971847  0.9154287215149419  1.0000
  C   C33       1.0  0.017101163908814564  0.13667823498823117  0.18497242033388253  1.0000
  F   F1        1.0  0.04295729264446326  0.1755665610822761  0.3195345305342978  1.0000
  F   F2        1.0  0.07827372218378796  0.08565516957493591  0.12141963501023612  1.0000
  F   F3        1.0  0.9607321760835738  0.040704560484277945  0.2029347519990084  1.0000
  H   H19       1.0  0.8636575501227235  0.7587523412081465  0.13986712200791462  1.0000
  H   H20       1.0  0.9410651344675075  0.34204086298066083  0.27039971303450105  1.0000
  H   H21       1.0  0.01700644311707933  0.18118248193803366  0.8895411827248348  1.0000
  H   H22       1.0  0.9588380240050371  0.35885665084669055  0.737758932045773  1.0000
  H   H23       1.0  0.7786154892415638  0.6689964287272396  0.781567488313883  1.0000
  Zn  Zn1       1.0  0.8301795111804139  0.45010509115824  0.48417952570014383  1.0000
  Zn  Zn2       1.0  0.9983789800166409  0.4575212844493852  0.49942354459343546  1.0000
  C   C34       1.0  0.9155435600369278  0.4500053732980751  0.7552815695019971  1.0000
  C   C35       1.0  0.9130167688863114  0.4576227227915126  0.22832180822605322  1.0000
  C   C36       1.0  0.9142969032564512  0.6909966199978705  0.48596347010287433  1.0000
  C   C37       1.0  0.9142633683415594  0.21662991352035155  0.49763997992457076  1.0000
  O   O1        1.0  0.9771043597182529  0.4624468695479895  0.28785334722630207  1.0000
  O   O2        1.0  0.9791154720018039  0.45080896368925893  0.707319473219852  1.0000
  O   O3        1.0  0.9781079276078034  0.6454124129864147  0.4898431239877457  1.0000
  O   O4        1.0  0.9781118462003155  0.26784342645048254  0.5053295830888619  1.0000
  O   O5        1.0  0.8504465875984792  0.6397829466277347  0.4782734819950936  1.0000
  O   O6        1.0  0.851454131919448  0.44518105737253627  0.6957497537181802  1.0000
  O   O7        1.0  0.8494430113619642  0.4568189089820638  0.27628189333451103  1.0000
  O   O8        1.0  0.8504504983577047  0.2622154571555  0.49375823735699287  1.0000
