data_image0
_chemical_formula_structural       NC8NH4C10H6C6BrH3Zn2C4O8
_chemical_formula_sum              "N2 C28 H13 Br1 Zn2 O8"
_cell_length_a       11.048855714531884
_cell_length_b       9.275150299802176
_cell_length_c       9.275428193871798
_cell_angle_alpha    85.84136921910526
_cell_angle_beta     89.94092889072596
_cell_angle_gamma    89.4838956589931

_space_group_name_H-M_alt    "P 1"
_space_group_IT_number       1

loop_
  _space_group_symop_operation_xyz
  'x, y, z'

loop_
  _atom_site_type_symbol
  _atom_site_label
  _atom_site_symmetry_multiplicity
  _atom_site_fract_x
  _atom_site_fract_y
  _atom_site_fract_z
  _atom_site_occupancy
  N   N1        1.0  0.12925191197269004  0.5621104516775923  0.4016836490585243  1.0000
  C   C1        1.0  0.07525903963817959  0.5032335546656281  0.31705480063715274  1.0000
  C   C2        1.0  0.00789258621068534  0.42977196988313654  0.21146188381254882  1.0000
  C   C3        1.0  0.880175832168608  0.42977178029652263  0.21146198657958504  1.0000
  C   C4        1.0  0.8180449167513139  0.3571517282931731  0.10707896901740499  1.0000
  C   C5        1.0  0.8821049722926123  0.28510610050992335  0.0035215407646953514  1.0000
  C   C6        1.0  0.008511185523338188  0.28510599057329866  0.003521564044971726  1.0000
  C   C7        1.0  0.07130245484990483  0.3571518264820859  0.1070789407530599  1.0000
  C   C8        1.0  0.8115156180058586  0.5032336294952953  0.3170547870845146  1.0000
  N   N2        1.0  0.7564857977619406  0.562110494674672  0.4016836775976764  1.0000
  H   H1        1.0  0.7199906841891694  0.35624234978429814  0.10577120101947379  1.0000
  H   H2        1.0  0.8336991902798275  0.22922583582328462  0.9232006040644262  1.0000
  H   H3        1.0  0.05790123068018206  0.2292259452917776  0.9232006028355307  1.0000
  H   H4        1.0  0.16937269606221994  0.35624230363200815  0.10577147631856532  1.0000
  C   C9        1.0  0.4460658016918227  0.1384304970272041  0.40409591535138123  1.0000
  C   C10       1.0  0.5098168205281326  0.2193268289462005  0.29508342534873555  1.0000
  C   C11       1.0  0.5631934556689695  0.1519628057228044  0.18053106235452354  1.0000
  C   C12       1.0  0.5533609954079026  0.0027209167653110614  0.17351570276648176  1.0000
  C   C13       1.0  0.49225291148538153  0.9203738785707419  0.28188060323919517  1.0000
  C   C14       1.0  0.439683558071969  0.9857794147609275  0.3992839344476078  1.0000
  C   C15       1.0  0.6269615276434917  0.23657485018910165  0.06902611267028114  1.0000
  C   C16       1.0  0.6803515148222996  0.30744011042846586  0.9756732290389264  1.0000
  C   C17       1.0  0.7428687125063151  0.39042831505484277  0.8663610736267201  1.0000
  C   C18       1.0  0.7962484055043779  0.4612882828652749  0.7730260850869808  1.0000
  H   H5        1.0  0.3884590357623987  0.40318012032145883  0.6329089564680959  1.0000
  H   H6        1.0  0.515629863011434  0.3357987930224331  0.2973094213289169  1.0000
  H   H7        1.0  0.5940159025712766  0.949636027704317  0.08487624195270027  1.0000
  H   H8        1.0  0.4885574045705814  0.8043078651238078  0.2756596700481557  1.0000
  H   H9        1.0  0.3607160523369018  0.8589381532110734  0.7416376161348004  1.0000
  H   H10       1.0  0.8431202287293129  0.5235093522968808  0.6910702561703017  1.0000
  C   C19       1.0  0.44327407943742836  0.5576161364649972  0.9785617222838748  1.0000
  C   C20       1.0  0.5547437897188425  0.5603021447833174  0.05159179465046405  1.0000
  C   C21       1.0  0.66322240257183  0.5761544945746073  0.9749650363874921  1.0000
  C   C22       1.0  0.661939517810543  0.5897412564430258  0.8243306358057674  1.0000
  C   C23       1.0  0.5526005707330393  0.5849737894651402  0.749805237149213  1.0000
  C   C24       1.0  0.4424753501070289  0.5665938149953962  0.8248181282645386  1.0000
  Br  Br1       1.0  0.8132435762139432  0.5816701997245077  0.07649764714337226  1.0000
  H   H11       1.0  0.15156995229623726  0.6291071570641209  0.0767210820284816  1.0000
  H   H12       1.0  0.7458741326689615  0.6026344287081145  0.7646775498897331  1.0000
  H   H13       1.0  0.24572078393882626  0.608624025030468  0.5408433362345968  1.0000
  Zn  Zn1       1.0  0.31025809808239196  0.5621066817534326  0.40169199713019843  1.0000
  Zn  Zn2       1.0  0.5754797167798764  0.5621025561155808  0.40168718896742117  1.0000
  C   C25       1.0  0.4426668904185329  0.5591491570692331  0.6648901821862558  1.0000
  C   C26       1.0  0.44307380681075587  0.5650619026718338  0.13848913494476855  1.0000
  C   C27       1.0  0.4408891583657941  0.8255515407458602  0.3944516523509307  1.0000
  C   C28       1.0  0.44485146134538167  0.2986577864007005  0.40892775144570126  1.0000
  O   O1        1.0  0.5436568629780351  0.5675529098416914  0.19216044666069232  1.0000
  O   O2        1.0  0.5433809146215607  0.5566539258172754  0.6112148125854471  1.0000
  O   O3        1.0  0.5419440152791887  0.7717772356696413  0.39283377785127316  1.0000
  O   O4        1.0  0.5450936718424708  0.3524296091655319  0.4105413733008585  1.0000
  O   O5        1.0  0.3406440525126715  0.7717796287063801  0.3928378127908141  1.0000
  O   O6        1.0  0.34208093886602886  0.5566580514514183  0.611218760853433  1.0000
  O   O7        1.0  0.3423568893168274  0.5675569668207492  0.19216266284263295  1.0000
  O   O8        1.0  0.3437936981520726  0.3524336569712814  0.41054369757086046  1.0000
