data_image0
_chemical_formula_structural       NC5NC3H4C10H6C9H6Zn2C4O8
_chemical_formula_sum              "N2 C31 H16 Zn2 O8"
_cell_length_a       13.859018345313864
_cell_length_b       9.275150299802176
_cell_length_c       9.27515367178086
_cell_angle_alpha    85.37735250896073
_cell_angle_beta     89.40940085297899
_cell_angle_gamma    89.48388887768701

_space_group_name_H-M_alt    "P 1"
_space_group_IT_number       1

loop_
  _space_group_symop_operation_xyz
  'x, y, z'

loop_
  _atom_site_type_symbol
  _atom_site_label
  _atom_site_symmetry_multiplicity
  _atom_site_fract_x
  _atom_site_fract_y
  _atom_site_fract_z
  _atom_site_occupancy
  N   N1        1.0  0.9101291165000649  0.5749702767981248  0.4005682336858789  1.0000
  C   C1        1.0  0.837657069293714  0.5355399286722324  0.45206176074911375  1.0000
  C   C2        1.0  0.7475061065145567  0.4864938571005209  0.5161128587223673  1.0000
  C   C3        1.0  0.6600334516489688  0.534308033481736  0.45367088071218925  1.0000
  C   C4        1.0  0.572275804652969  0.48649356618941597  0.5161127347826242  1.0000
  C   C5        1.0  0.48241719101699293  0.5355398156798541  0.45206166404746506  1.0000
  N   N2        1.0  0.41018021462307486  0.5749702427060139  0.4005681648315169  1.0000
  C   C6        1.0  0.5721732484745976  0.39085078168418835  0.6410152483017486  1.0000
  C   C7        1.0  0.6594639101287404  0.34322066391510453  0.7032169342655064  1.0000
  C   C8        1.0  0.7470385888505833  0.39085107751456016  0.6410154503439522  1.0000
  H   H1        1.0  0.6602540392283733  0.6083381574088532  0.35699297545738107  1.0000
  H   H2        1.0  0.5047656135701604  0.35321613310670963  0.6901629352115315  1.0000
  H   H3        1.0  0.6592437062704415  0.26934083502154715  0.7996987575075489  1.0000
  H   H4        1.0  0.8142218691200097  0.3532166644173951  0.6901633576353232  1.0000
  C   C9        1.0  0.16268848103130695  0.15127087073531054  0.40298215551038874  1.0000
  C   C10       1.0  0.2141848745684103  0.23304430335917997  0.29389359023738115  1.0000
  C   C11       1.0  0.25744462693681713  0.16660195578144868  0.17926128711959666  1.0000
  C   C12       1.0  0.2496491205007798  0.017416513386245835  0.17224103302591076  1.0000
  C   C13       1.0  0.20026375197809623  0.934197584606974  0.28068155664483085  1.0000
  C   C14       1.0  0.15763001526208487  0.9986585062904405  0.3981668173317692  1.0000
  C   C15       1.0  0.30896998102858064  0.25211115516087723  0.06767852290757626  1.0000
  C   C16       1.0  0.35210968983251645  0.32372752105429425  0.9742604922975038  1.0000
  C   C17       1.0  0.40262428875826783  0.4075952376442534  0.8648720526144316  1.0000
  C   C18       1.0  0.44575568039209523  0.47920616712707265  0.7714719295841967  1.0000
  H   H5        1.0  0.11535195040178922  0.4141794830379853  0.6319548690274155  1.0000
  H   H6        1.0  0.21880549665921403  0.3494983564003791  0.2961211390237968  1.0000
  H   H7        1.0  0.28260695660685897  0.965044807712085  0.0835397154091242  1.0000
  H   H8        1.0  0.19735592498798057  0.8181816249838227  0.2744562827666561  1.0000
  H   H9        1.0  0.0925640720060954  0.869062694085024  0.740759402750022  1.0000
  H   H10       1.0  0.48362863966380676  0.5420866429325095  0.6894589072050921  1.0000
  C   C19       1.0  0.1630861169468027  0.5738803381674416  0.9771510219302431  1.0000
  C   C20       1.0  0.18769441624949845  0.7013930028604503  0.040170125064608264  1.0000
  C   C21       1.0  0.20327939040915183  0.8302637471523131  0.9544454135578405  1.0000
  C   C22       1.0  0.19434689820621545  0.8332269430478064  0.8044880557769445  1.0000
  C   C23       1.0  0.17159351309302928  0.7073235949159294  0.7398414046274464  1.0000
  C   C24       1.0  0.15723243607968795  0.5760490444314534  0.8239979753874822  1.0000
  C   C25       1.0  0.22736320114638794  0.9601498983437196  0.02081639051230422  1.0000
  C   C26       1.0  0.24752852537439218  0.06889272855141382  0.07641013818090125  1.0000
  C   C27       1.0  0.2913025406154457  0.3049478326300168  0.19710724055182105  1.0000
  H   H11       1.0  0.16894165780907633  0.3349060991725765  0.27704546685222464  1.0000
  H   H12       1.0  0.19256111244753016  0.701466053090027  0.15678510196440065  1.0000
  H   H13       1.0  0.20591783801600272  0.9327021183729722  0.7372161063443898  1.0000
  H   H14       1.0  0.16746357437857218  0.7118411399089948  0.6229840568119394  1.0000
  H   H15       1.0  0.17144555296387187  0.22121028218255323  0.7495155508078724  1.0000
  H   H16       1.0  0.3090059200094084  0.40041469715892397  0.24592119409620003  1.0000
  Zn  Zn1       1.0  0.054433025640322485  0.574966415461828  0.4005765717199774  1.0000
  Zn  Zn2       1.0  0.26587627077730325  0.57496229298646  0.40057173695868675  1.0000
  C   C28       1.0  0.15837104344396935  0.5698911931234973  0.6639584067195132  1.0000
  C   C29       1.0  0.16194055008168617  0.5800393361421701  0.137190033083739  1.0000
  C   C30       1.0  0.15862094816673444  0.8384695124228849  0.39333116312895156  1.0000
  C   C31       1.0  0.16169058302471884  0.31145928355097885  0.407817363400391  1.0000
  O   O1        1.0  0.24179773453600206  0.5820984930510982  0.19089878820418682  1.0000
  O   O2        1.0  0.23899439895163455  0.5678278178202998  0.6102455732413994  1.0000
  O   O3        1.0  0.23919510811683373  0.7847082111516812  0.3917121508088828  1.0000
  O   O4        1.0  0.24159695390524494  0.36521810976565416  0.409432102467274  1.0000
  O   O5        1.0  0.07871227035722116  0.7847105986855918  0.39171620620544645  1.0000
  O   O6        1.0  0.07851155137106502  0.5678319386489716  0.6102495419059291  1.0000
  O   O7        1.0  0.08131489930287095  0.5821025591609655  0.19090102357400918  1.0000
  O   O8        1.0  0.0811141179825121  0.3652221658325421  0.40943444600058276  1.0000
