data_image0
_chemical_formula_structural       NC9NC5H8C9H10C7OCH10Zn2C4O8
_chemical_formula_sum              "N2 C35 H28 O9 Zn2"
_cell_length_a       17.807436237873137
_cell_length_b       9.272676604525724
_cell_length_c       10.300835455316063
_cell_angle_alpha    85.82006583043875
_cell_angle_beta     89.41013499251636
_cell_angle_gamma    88.94495835625186

_space_group_name_H-M_alt    "P 1"
_space_group_IT_number       1

loop_
  _space_group_symop_operation_xyz
  'x, y, z'

loop_
  _atom_site_type_symbol
  _atom_site_label
  _atom_site_symmetry_multiplicity
  _atom_site_fract_x
  _atom_site_fract_y
  _atom_site_fract_z
  _atom_site_occupancy
  N   N1        1.0  0.7148972615712457  0.5403605214861753  0.5632705001859826  1.0000
  C   C1        1.0  0.6541113717713541  0.5012927441796597  0.5520974321114108  1.0000
  C   C2        1.0  0.5785004058343955  0.45269673157604334  0.5381993488185433  1.0000
  C   C3        1.0  0.5599916216704253  0.3733968676810797  0.43290521043464913  1.0000
  C   C4        1.0  0.48657664444823673  0.3260900922017622  0.4193279752634238  1.0000
  C   C5        1.0  0.4306196201854135  0.3576640607959578  0.5110108148447026  1.0000
  C   C6        1.0  0.3525990804320979  0.30751673116570055  0.4966642847935987  1.0000
  C   C7        1.0  0.2908836355209  0.3982828179924345  0.522949672812438  1.0000
  C   C8        1.0  0.2173252227930054  0.35075064243096876  0.5093852475319686  1.0000
  C   C9        1.0  0.15457477305799097  0.44450459469769354  0.5360460117509569  1.0000
  N   N2        1.0  0.10413636702883582  0.5198762862402544  0.5574805147804291  1.0000
  C   C10       1.0  0.2048972658669327  0.21216597943274265  0.46950898339109176  1.0000
  C   C11       1.0  0.2657552621463062  0.12138451301535812  0.443215147520285  1.0000
  C   C12       1.0  0.3391920047534986  0.1684786535901863  0.45657537304748047  1.0000
  C   C13       1.0  0.44982260704672633  0.4375127836062597  0.6165262693517131  1.0000
  C   C14       1.0  0.5232893651702129  0.4846081655245782  0.6299470600138231  1.0000
  H   H1        1.0  0.6022482043322398  0.3484222730025066  0.36110606728264544  1.0000
  H   H2        1.0  0.4733496436271484  0.2664801561198329  0.3361891022412169  1.0000
  H   H3        1.0  0.2999301995842193  0.506488419037531  0.552240028131554  1.0000
  H   H4        1.0  0.14824039678166495  0.17437903842843983  0.4587698352483381  1.0000
  H   H5        1.0  0.2560147149687412  0.014089132446844616  0.41272805769658577  1.0000
  H   H6        1.0  0.3854625203335578  0.095488537376889  0.43724811042175943  1.0000
  H   H7        1.0  0.4082801284766803  0.4618891818634472  0.6896174244633029  1.0000
  H   H8        1.0  0.5370513405366297  0.545572949259886  0.7120496758466215  1.0000
  C   C15       1.0  0.9073920141784233  0.10674128847871465  0.5587483714788783  1.0000
  C   C16       1.0  0.87734291976858  0.1724569939723024  0.6667344727636186  1.0000
  C   C17       1.0  0.8541661207439771  0.0895760639701515  0.7777918382061086  1.0000
  C   C18       1.0  0.8602905243572257  0.9385067410765103  0.7845996383312628  1.0000
  C   C19       1.0  0.8891089051945988  0.8714058089363382  0.6756314207705911  1.0000
  C   C20       1.0  0.9116487595587253  0.9534840678885635  0.5620137808390638  1.0000
  C   C21       1.0  0.8344303470098975  0.8562927363756018  0.9097183755098186  1.0000
  C   C22       1.0  0.7964688059988612  0.7121918054933488  0.8973545555353133  1.0000
  C   C23       1.0  0.8757846577244565  0.7154792949028911  0.9511167748048828  1.0000
  H   H9        1.0  0.9240397405792445  0.4046205424272933  0.3457217776014803  1.0000
  H   H10       1.0  0.87337985267042  0.2891880410049452  0.6666685980837266  1.0000
  H   H11       1.0  0.8319278951968205  0.1442199210149251  0.8597091889519428  1.0000
  H   H12       1.0  0.8926921692939415  0.7548172956205875  0.6767838927572121  1.0000
  H   H13       1.0  0.9310914324681604  0.8755398590308191  0.24378344098859217  1.0000
  H   H14       1.0  0.8131809386616312  0.9175610742897187  0.9917900922463966  1.0000
  H   H15       1.0  0.7929688135113683  0.6730928882649213  0.79841736202043  1.0000
  H   H16       1.0  0.7529511515155454  0.6857245809612396  0.9729125850390812  1.0000
  H   H17       1.0  0.9204419395162159  0.6782501023446091  0.8849142680933659  1.0000
  H   H18       1.0  0.8786213728407335  0.6909275012592452  0.05811341714254081  1.0000
  C   C24       1.0  0.9094517593010361  0.5300427186432546  0.17906526066652062  1.0000
  C   C25       1.0  0.9787594361252066  0.6001757232309206  0.17238789967788914  1.0000
  C   C26       1.0  0.013239032124856774  0.6370487315111975  0.051813867179173245  1.0000
  C   C27       1.0  0.9789397812618431  0.6003578678125823  0.9370871852415412  1.0000
  C   C28       1.0  0.9095890033247696  0.5301826352400987  0.9416969013026506  1.0000
  C   C29       1.0  0.8751700543761215  0.4957509806629285  0.0631155323475261  1.0000
  C   C30       1.0  0.08842333378236722  0.7082587720062321  0.0460256547417246  1.0000
  O   O1        1.0  0.14529329824265802  0.6000046505090455  0.05227408801586809  1.0000
  C   C31       1.0  0.21619032070663974  0.6654902564079688  0.04695163142953929  1.0000
  H   H19       1.0  0.8833184024508448  0.5016657911154323  0.5091134530280153  1.0000
  H   H20       1.0  0.006215836588280287  0.6263829003240691  0.26082666754429007  1.0000
  H   H21       1.0  0.006519882811824032  0.6266914068544438  0.8443498054999536  1.0000
  H   H22       1.0  0.8217205239624693  0.44165026293651327  0.06750297102840985  1.0000
  H   H23       1.0  0.7791736945493544  0.39634390928478563  0.7432310670171192  1.0000
  H   H24       1.0  0.09275168564769087  0.7784222793900855  0.12892055324153073  1.0000
  H   H25       1.0  0.09292582090098202  0.7784351117017215  0.9538040015076726  1.0000
  H   H26       1.0  0.26026233837624235  0.5791973252170111  0.05194357997190414  1.0000
  H   H27       1.0  0.22412439413731688  0.7320347037389934  0.13123966863334302  1.0000
  H   H28       1.0  0.22430808512287848  0.7320851905789352  0.9537261565851433  1.0000
  Zn  Zn1       1.0  0.82722324019776  0.5344453680664825  0.5616071303793579  1.0000
  Zn  Zn2       1.0  0.9918103130454965  0.5257796893710052  0.5591545143906709  1.0000
  C   C32       1.0  0.9095324990005326  0.5244127287508142  0.7975210465238747  1.0000
  C   C33       1.0  0.9095028606963729  0.5358140531956705  0.32324070592763143  1.0000
  C   C34       1.0  0.9108393262993479  0.7934309254975422  0.5562221433793542  1.0000
  C   C35       1.0  0.9081959685400335  0.2667941272477532  0.5645396724580711  1.0000
  O   O2        1.0  0.9719799155644168  0.5344560960635114  0.37069652317422497  1.0000
  O   O3        1.0  0.9719732186032787  0.5191925485551279  0.7482033725031701  1.0000
  O   O4        1.0  0.9730276564272972  0.7364281892069331  0.5533528193125512  1.0000
  O   O5        1.0  0.9709254216123079  0.317220468664396  0.5655469798804207  1.0000
  O   O6        1.0  0.8481080754654651  0.7430045917318311  0.5552146657197417  1.0000
  O   O7        1.0  0.847053646333487  0.5257706832399547  0.7500651563545753  1.0000
  O   O8        1.0  0.8470603428110851  0.5410341802183081  0.37255674564787866  1.0000
  O   O9        1.0  0.846005848821583  0.3237985425252421  0.5674072996686312  1.0000
