data_image0
_chemical_formula_structural       NC12NC2H8C12SCH12C12IH8Zn2C4O8
_chemical_formula_sum              "N2 C43 H28 S1 I1 Zn2 O8"
_cell_length_a       19.240039667572717
_cell_length_b       10.299776766347529
_cell_length_c       10.299773350644648
_cell_angle_alpha    85.54589617011163
_cell_angle_beta     90.00916568916979
_cell_angle_gamma    89.97991714870845

_space_group_name_H-M_alt    "P 1"
_space_group_IT_number       1

loop_
  _space_group_symop_operation_xyz
  'x, y, z'

loop_
  _atom_site_type_symbol
  _atom_site_label
  _atom_site_symmetry_multiplicity
  _atom_site_fract_x
  _atom_site_fract_y
  _atom_site_fract_z
  _atom_site_occupancy
  N   N1        1.0  0.6540876850475102  0.4216705261771689  0.5675318763747232  1.0000
  C   C1        1.0  0.5939393162074501  0.42167061018107566  0.567531794442589  1.0000
  C   C2        1.0  0.5191212790325139  0.4216707275049889  0.5675316571446168  1.0000
  C   C3        1.0  0.4826685230205057  0.3571763701551962  0.6709399441793404  1.0000
  C   C4        1.0  0.4099978031413739  0.3570654651753158  0.6710264799859671  1.0000
  C   C5        1.0  0.3727890440583028  0.4216708201346712  0.5675314294682552  1.0000
  C   C6        1.0  0.4099559633440328  0.48627636202239266  0.4640365735021445  1.0000
  C   C7        1.0  0.4826266800833085  0.48616522151031294  0.4641232317956011  1.0000
  C   C8        1.0  0.2955839536252581  0.4216707415018064  0.5675313340480617  1.0000
  C   C9        1.0  0.2584209840929962  0.30839911344778526  0.6093952718107808  1.0000
  C   C10       1.0  0.185750267824718  0.30850603882647176  0.6093039527787452  1.0000
  C   C11       1.0  0.14925166673151774  0.42167061231277003  0.5675313949505992  1.0000
  C   C12       1.0  0.0744336296192165  0.4216704984994921  0.5675316436045927  1.0000
  N   N2        1.0  0.014285312792637896  0.42167045761633104  0.5675318520215078  1.0000
  C   C13       1.0  0.18570057647617008  0.5348352616411098  0.5257587842362461  1.0000
  C   C14       1.0  0.2583712447621765  0.5349423671856599  0.5256673026204386  1.0000
  H   H1        1.0  0.5103996730566909  0.30724324066813447  0.7516782223960566  1.0000
  H   H2        1.0  0.38292072630081564  0.307930090572029  0.7528803130867794  1.0000
  H   H3        1.0  0.3828465093870291  0.5354117636924749  0.3821826895545244  1.0000
  H   H4        1.0  0.5103253015526529  0.5360982506564426  0.38338522936830643  1.0000
  H   H5        1.0  0.2855336581523354  0.21923569730730796  0.6405575258739253  1.0000
  H   H6        1.0  0.15805474453300758  0.2202414952513292  0.6414992277457091  1.0000
  H   H7        1.0  0.1579662763259415  0.6230997806754637  0.49356352381824226  1.0000
  H   H8        1.0  0.2854450495013546  0.6241058625148126  0.49450500379051876  1.0000
  C   C15       1.0  0.8342553690661549  0.04030536617510783  0.5675302527740897  1.0000
  C   C16       1.0  0.8384437074570034  0.028704851397934664  0.7040434395402178  1.0000
  C   C17       1.0  0.8404990561630816  0.9056881557074571  0.7732211164362746  1.0000
  C   C18       1.0  0.8383108100760231  0.7934170707183382  0.7040586298127568  1.0000
  C   C19       1.0  0.8341243278657513  0.803025638197303  0.5675446936681066  1.0000
  C   C20       1.0  0.8321196512410337  0.9269084173341121  0.500044672018775  1.0000
  C   C21       1.0  0.8449221862177508  0.8944800261226965  0.9176366651296093  1.0000
  C   C22       1.0  0.8051509486390461  0.8009985870233761  0.9916789776719895  1.0000
  C   C23       1.0  0.8093345050974624  0.7906848822419883  0.12758757852027547  1.0000
  C   C24       1.0  0.8531161672156583  0.8735735354402685  0.1912605298024865  1.0000
  C   C25       1.0  0.8930533842327242  0.966480798010631  0.11859127495233435  1.0000
  C   C26       1.0  0.8889717407244803  0.9771443944986468  0.98267225913812  1.0000
  S   S1        1.0  0.8585608891536604  0.8598790955595229  0.3656499631477933  1.0000
  C   C27       1.0  0.788721552380949  0.9759353836085215  0.38517858806432725  1.0000
  H   H9        1.0  0.8326867654375693  0.37217917085301866  0.5155125317661986  1.0000
  H   H10       1.0  0.8391587189242431  0.11552089966405822  0.7570014965054941  1.0000
  H   H11       1.0  0.8408380156934251  0.6983883667755324  0.7568205511263959  1.0000
  H   H12       1.0  0.8288890014582165  0.9350892329485532  0.39473055294799875  1.0000
  H   H13       1.0  0.8324943893370295  0.47923316740474603  0.51553163840999  1.0000
  H   H14       1.0  0.770159520474718  0.737047885452948  0.9445650991557869  1.0000
  H   H15       1.0  0.7782654136123582  0.7186067974741498  0.1833087917924764  1.0000
  H   H16       1.0  0.9273052384118314  0.03048692454507052  0.16729407987626876  1.0000
  H   H17       1.0  0.9209181591313371  0.04885312758899719  0.9283640811126128  1.0000
  H   H18       1.0  0.8026307919284194  0.07227895207449507  0.33630118134824205  1.0000
  H   H19       1.0  0.7806771470978892  0.9865849147158807  0.49045732102924555  1.0000
  H   H20       1.0  0.739811269702377  0.9404148342435495  0.34305672603984805  1.0000
  C   C28       1.0  0.8341566837006773  0.4217715822149084  0.18616826832939526  1.0000
  C   C29       1.0  0.8971482084743578  0.49077441109787673  0.17983234790932867  1.0000
  C   C30       1.0  0.9290999447774282  0.5256308581492202  0.059491849228457065  1.0000
  C   C31       1.0  0.8972151005870423  0.4905602566615934  0.9445627304814592  1.0000
  C   C32       1.0  0.8342229933984118  0.4215594327054135  0.948906692737688  1.0000
  C   C33       1.0  0.8030467841303796  0.3875504146590165  0.07017764615499122  1.0000
  C   C34       1.0  0.9957394504183957  0.5986277736492978  0.05384299177994745  1.0000
  C   C35       1.0  0.006654962500680204  0.7016458747404284  0.13365555909581728  1.0000
  C   C36       1.0  0.06941245909064618  0.7702374380561557  0.12813701853836656  1.0000
  C   C37       1.0  0.1219519358951071  0.7368781462673679  0.043147030693208015  1.0000
  C   C38       1.0  0.1117067015750224  0.63474623394427  0.9634772206122073  1.0000
  C   C39       1.0  0.0490197512794972  0.5659287008954221  0.9685898152408523  1.0000
  I   I1        1.0  0.21656753318828567  0.8405159340001126  0.03513073169167713  1.0000
  H   H21       1.0  0.9219972284298225  0.516021148717583  0.2688096876956878  1.0000
  H   H22       1.0  0.9211462471279286  0.5187476909009252  0.8514504582562709  1.0000
  H   H23       1.0  0.7544513001828678  0.3343190095913984  0.07429716087997118  1.0000
  H   H24       1.0  0.8102309478043972  0.39523123690434375  0.623111186400366  1.0000
  H   H25       1.0  0.9663484896723292  0.7302235154147616  0.19904680645636041  1.0000
  H   H26       1.0  0.07709081062594735  0.849513614995617  0.189724380878449  1.0000
  H   H27       1.0  0.15235413740003675  0.6084047999572801  0.8977948747698123  1.0000
  H   H28       1.0  0.04254929749751613  0.48611164239102456  0.9071633524436689  1.0000
  Zn  Zn1       1.0  0.7580329501360217  0.42166703714135  0.5675393577126906  1.0000
  Zn  Zn2       1.0  0.9103400692169316  0.42166335032901764  0.567534969390858  1.0000
  C   C40       1.0  0.8342097944420455  0.41642590373206495  0.8047326703419921  1.0000
  C   C41       1.0  0.8341648878294191  0.4269061222659147  0.33034178421115734  1.0000
  C   C42       1.0  0.8341450515243438  0.6588567167317565  0.5623667705008806  1.0000
  C   C43       1.0  0.8342295790494818  0.1844737489611237  0.5727077532629508  1.0000
  O   O1        1.0  0.8919674001195316  0.4286222560003632  0.3787260677300379  1.0000
  O   O2        1.0  0.8920048615233526  0.41470599218356496  0.7563446823235502  1.0000
  O   O3        1.0  0.8919518017475307  0.6104719392801601  0.5606325034708783  1.0000
  O   O4        1.0  0.8920204079131895  0.2328563182222405  0.5744381492096438  1.0000
  O   O5        1.0  0.776352559464818  0.610474069250801  0.5606361778885712  1.0000
  O   O6        1.0  0.7764056189633328  0.4147096824619792  0.7563482875252279  1.0000
  O   O7        1.0  0.7763681574777782  0.4286259014575577  0.37872811152903035  1.0000
  O   O8        1.0  0.7764211652786543  0.23285995436363627  0.5744402903763689  1.0000
