data_image0
_chemical_formula_structural       NC6NC2H4C6NH5C6SCH6Zn2C4O8
_chemical_formula_sum              "N3 C25 H15 S1 Zn2 O8"
_cell_length_a       14.927258858638513
_cell_length_b       9.274771166103582
_cell_length_c       9.275274088470228
_cell_angle_alpha    86.00109441054587
_cell_angle_beta     89.7257804702982
_cell_angle_gamma    90.59705168739299

_space_group_name_H-M_alt    "P 1"
_space_group_IT_number       1

loop_
  _space_group_symop_operation_xyz
  'x, y, z'

loop_
  _atom_site_type_symbol
  _atom_site_label
  _atom_site_symmetry_multiplicity
  _atom_site_fract_x
  _atom_site_fract_y
  _atom_site_fract_z
  _atom_site_occupancy
  N   N1        1.0  0.8584274273445222  0.5635348799038276  0.4075158184489065  1.0000
  C   C1        1.0  0.7809009359612387  0.5635348514875885  0.40751582908641937  1.0000
  C   C2        1.0  0.6844684293081302  0.5635349661410598  0.4075157790315509  1.0000
  C   C3        1.0  0.6376313409994812  0.5386353996493551  0.2809130102432096  1.0000
  C   C4        1.0  0.5439200302106576  0.5386354240244295  0.28091287678014987  1.0000
  C   C5        1.0  0.49665236411139724  0.5635347887236759  0.4075157979795754  1.0000
  C   C6        1.0  0.40021979046678924  0.5635349033800554  0.4075157479187792  1.0000
  N   N2        1.0  0.3226932990835063  0.563534874963817  0.4075157585562923  1.0000
  C   C7        1.0  0.5434893854285471  0.5884343552182888  0.5341185667619888  1.0000
  C   C8        1.0  0.6372006962173706  0.588434330843215  0.5341187002250483  1.0000
  H   H1        1.0  0.6734950430652343  0.5192621318425052  0.18240878999990473  1.0000
  H   H2        1.0  0.5083913888488513  0.5192623293824559  0.18240878470507904  1.0000
  H   H3        1.0  0.5076257499690727  0.6078076137312924  0.6326228950753163  1.0000
  H   H4        1.0  0.6727293378874636  0.6078075238829942  0.632622902116527  1.0000
  C   C9        1.0  0.08781204637994927  0.1399457769869843  0.40830129610485666  1.0000
  C   C10       1.0  0.06757283771411493  0.22203050767799093  0.2794292810744261  1.0000
  C   C11       1.0  0.05570012591134321  0.1557493349419281  0.14973962825867604  1.0000
  C   C12       1.0  0.06411632210648  0.005997036556665948  0.14798263619047924  1.0000
  C   C13       1.0  0.08270412442062443  0.9225760633761916  0.2750843266400391  1.0000
  C   C14       1.0  0.093317173184635  0.9871130131157986  0.4067428159893671  1.0000
  N   N3        1.0  0.036015438986441356  0.24092011087735288  0.019451235043609575  1.0000
  H   H5        1.0  0.18771311704275312  0.22260164555364367  0.723690760331047  1.0000
  H   H6        1.0  0.05540546520038861  0.9535620780011572  0.048199532735218924  1.0000
  H   H7        1.0  0.156967390143818  0.6920847375171165  0.621319321230686  1.0000
  H   H8        1.0  0.029843349420009223  0.3529935678290319  0.01940442881245552  1.0000
  H   H9        1.0  0.02738201868791146  0.19252486991262216  0.9220380990301371  1.0000
  C   C15       1.0  0.09179648597367265  0.5595099436545989  0.9843325212447912  1.0000
  C   C16       1.0  0.16841527575877546  0.6102833564578298  0.053587452378417  1.0000
  C   C17       1.0  0.24013312011940102  0.6725488242493511  0.9734088332545867  1.0000
  C   C18       1.0  0.2364228102725582  0.6841792198573784  0.822827311488767  1.0000
  C   C19       1.0  0.16171124317613428  0.6323139307508686  0.7520714768622736  1.0000
  C   C20       1.0  0.08933272427529487  0.5675488355341671  0.830711556470404  1.0000
  S   S1        1.0  0.3367719404370213  0.7379493851326575  0.06397686239204736  1.0000
  C   C21       1.0  0.2918990971564215  0.9184985838798742  0.07537688006914944  1.0000
  H   H10       1.0  0.8744778274204632  0.5001582441818946  0.09314643780252418  1.0000
  H   H11       1.0  0.29178357591326987  0.732509691044104  0.760240521878857  1.0000
  H   H12       1.0  0.9440505726439331  0.5217040005668357  0.5538811068591993  1.0000
  H   H13       1.0  0.27942080898266397  0.9689075524409696  0.9653220539037757  1.0000
  H   H14       1.0  0.2285305039445467  0.9130800965913883  0.1387524207288957  1.0000
  H   H15       1.0  0.3412762151243411  0.985801971578686  0.13025238024107266  1.0000
  Zn  Zn1       1.0  0.9924044878569394  0.5635310923925809  0.4075241352884511  1.0000
  Zn  Zn2       1.0  0.1887161382633814  0.5635269595401776  0.4075192849568394  1.0000
  C   C22       1.0  0.08975908295760299  0.5602828493993806  0.6707383700064917  1.0000
  C   C23       1.0  0.0913636982951041  0.5667770238580039  0.1443051882818982  1.0000
  C   C24       1.0  0.09228868171223416  0.8269257977290839  0.4012947002945635  1.0000
  C   C25       1.0  0.08883402106763616  0.30013234322037263  0.413748938014989  1.0000
  O   O1        1.0  0.16571765814567385  0.5692080609849706  0.19799164760936683  1.0000
  O   O2        1.0  0.16440111755940923  0.5578475834082308  0.6170478165497764  1.0000
  O   O3        1.0  0.1664427918974687  0.7731651505982576  0.3994701441643087  1.0000
  O   O4        1.0  0.16367591720133567  0.3538905030887902  0.41556921192481155  1.0000
  O   O5        1.0  0.017444641927484957  0.7731675488468766  0.39947420831455105  1.0000
  O   O6        1.0  0.015402979070763049  0.5578517139676862  0.6170518006729286  1.0000
  O   O7        1.0  0.01671952443354186  0.5692121248219446  0.19799389920237642  1.0000
  O   O8        1.0  0.014677783103982829  0.353894557634826  0.4155715715819166  1.0000
