data_image0
_chemical_formula_structural       NC14NH8C12H10C12H10Zn2C4O8
_chemical_formula_sum              "N2 C42 H28 Zn2 O8"
_cell_length_a       17.45760127107867
_cell_length_b       14.99405791820965
_cell_length_c       14.388202922059103
_cell_angle_alpha    85.84309809662012
_cell_angle_beta     89.19068272388164
_cell_angle_gamma    89.75310963527127

_space_group_name_H-M_alt    "P 1"
_space_group_IT_number       1

loop_
  _space_group_symop_operation_xyz
  'x, y, z'

loop_
  _atom_site_type_symbol
  _atom_site_label
  _atom_site_symmetry_multiplicity
  _atom_site_fract_x
  _atom_site_fract_y
  _atom_site_fract_z
  _atom_site_occupancy
  N   N1        1.0  0.6848825771350522  0.9715227188691418  0.9271996779365126  1.0000
  C   C1        1.0  0.6247048435291646  0.947917026770406  0.9529301501017653  1.0000
  C   C2        1.0  0.5498409810435289  0.9185519312415521  0.9849306656916581  1.0000
  C   C3        1.0  0.4891268710021918  0.9185713207869233  0.9222563188412136  1.0000
  C   C4        1.0  0.4156568514362737  0.8902561000957145  0.9529935471300464  1.0000
  C   C5        1.0  0.4042299815935522  0.8619742224130756  0.04756633911838805  1.0000
  C   C6        1.0  0.46491984888166066  0.8619925128269742  0.10987927584598389  1.0000
  C   C7        1.0  0.5375917620381269  0.890200885400304  0.0787580986740457  1.0000
  C   C8        1.0  0.3512246905948403  0.890201537047067  0.8866725509044331  1.0000
  C   C9        1.0  0.2775952581641586  0.9185637317707777  0.9130808912994242  1.0000
  C   C10       1.0  0.21688159615647956  0.9184414440206059  0.8504172396069374  1.0000
  C   C11       1.0  0.22929072231077607  0.8899397304671772  0.7609322408851624  1.0000
  C   C12       1.0  0.30212134552209235  0.8616837423846241  0.7341238513361539  1.0000
  C   C13       1.0  0.3628110293030451  0.86176784051717  0.7964317614561107  1.0000
  C   C14       1.0  0.14185234153638956  0.9478553246415345  0.8779282213331814  1.0000
  N   N2        1.0  0.0815418223885224  0.9715003676962368  0.9000497443506466  1.0000
  H   H1        1.0  0.4989473629443937  0.9417412670924729  0.8499737186374219  1.0000
  H   H2        1.0  0.34863768581264015  0.8387260179323281  0.07307204881612209  1.0000
  H   H3        1.0  0.4556222102518041  0.8398543588678629  0.18242794856619615  1.0000
  H   H4        1.0  0.5841616476992239  0.8899057113595917  0.12776416032338267  1.0000
  H   H5        1.0  0.2676440799722454  0.9418493975122813  0.9818151848436103  1.0000
  H   H6        1.0  0.18272264904507646  0.8895642045959247  0.7119773950566723  1.0000
  H   H7        1.0  0.3115438588620987  0.8394290929331427  0.6649658652153061  1.0000
  H   H8        1.0  0.41853417145646254  0.838480670619774  0.7744803095722814  1.0000
  C   C15       1.0  0.883247408496772  0.7095433071585684  0.9136126954761572  1.0000
  C   C16       1.0  0.9297303832250631  0.6574133055967161  0.9754521853081707  1.0000
  C   C17       1.0  0.9296934298513343  0.5641898396629587  0.9754932087805375  1.0000
  C   C18       1.0  0.8832374849009117  0.5210426052477987  0.9136628932003625  1.0000
  C   C19       1.0  0.8367978030637754  0.5732718285351299  0.8518230922115201  1.0000
  C   C20       1.0  0.8367861001855602  0.6664955561319414  0.8518346454061798  1.0000
  C   C21       1.0  0.8832198346572954  0.42196814105721564  0.9136717385697446  1.0000
  C   C22       1.0  0.881460588638109  0.3801446859272848  0.82939239822532  1.0000
  C   C23       1.0  0.8814756718578427  0.28692029149225895  0.8293905898880076  1.0000
  C   C24       1.0  0.8831845976479648  0.23347294319193237  0.9136442116506822  1.0000
  C   C25       1.0  0.8849125587285789  0.27519458216711684  0.9979605725268204  1.0000
  C   C26       1.0  0.8849621031045117  0.36841535058481706  0.9979581724248534  1.0000
  H   H9        1.0  0.8363123219492491  0.9269258971269924  0.8510052578394403  1.0000
  H   H10       1.0  0.9663450521004875  0.6886344378125517  0.023737868064365175  1.0000
  H   H11       1.0  0.9668474023300332  0.5258886807990671  0.023124526476892008  1.0000
  H   H12       1.0  0.799632245508744  0.5419743659779961  0.8042008898620645  1.0000
  H   H13       1.0  0.8001774955638592  0.7047749162707315  0.8035341737102863  1.0000
  H   H14       1.0  0.881109790888042  0.41954158008317094  0.7632810540935453  1.0000
  H   H15       1.0  0.8803425350581027  0.2567890688053849  0.7632735274857543  1.0000
  H   H16       1.0  0.8813458045540322  0.026620350076819586  0.8283884457330766  1.0000
  H   H17       1.0  0.8860330753268006  0.2358267733341955  0.06407222405879753  1.0000
  H   H18       1.0  0.8853262373980932  0.3986165627481244  0.06406620898660154  1.0000
  C   C27       1.0  0.8737103031151562  0.9702461176366299  0.6411370556406619  1.0000
  C   C28       1.0  0.7967904236451988  0.9594144078279032  0.6697320072005375  1.0000
  C   C29       1.0  0.7396175054707279  0.9512341813632899  0.6040595563526728  1.0000
  C   C30       1.0  0.758334980259007  0.9537555197645197  0.5092731964037223  1.0000
  C   C31       1.0  0.8348326796752754  0.9646044278816945  0.47891863417518765  1.0000
  C   C32       1.0  0.8922065592524999  0.9727700263324104  0.5455210276693636  1.0000
  C   C33       1.0  0.8547759243903903  0.9674065979168243  0.37804194839296623  1.0000
  C   C34       1.0  0.8196431155242254  0.9087795967572828  0.3198489542506089  1.0000
  C   C35       1.0  0.8384294414166082  0.9113907419804089  0.22493623251085215  1.0000
  C   C36       1.0  0.8927217002076179  0.9727701595086593  0.18611987419264242  1.0000
  C   C37       1.0  0.9278157594342791  0.03142003697264495  0.2442019553744295  1.0000
  C   C38       1.0  0.9090724419729249  0.028757633259828053  0.33913199925306925  1.0000
  H   H19       1.0  0.05271917256098945  0.9954318523606596  0.7286212906459693  1.0000
  H   H20       1.0  0.7807563044375023  0.957265285448751  0.7428359818784229  1.0000
  H   H21       1.0  0.6805049374436756  0.9431503860242955  0.6267092275947586  1.0000
  H   H22       1.0  0.7128497078999824  0.9484160364585414  0.45960873580098793  1.0000
  H   H23       1.0  0.9514171086212545  0.9798671287939711  0.5228147304380741  1.0000
  H   H24       1.0  0.7783095779234166  0.8600127600906117  0.34797642986661637  1.0000
  H   H25       1.0  0.8105315578777731  0.8651435295350727  0.1820278166674967  1.0000
  H   H26       1.0  0.9808071724470734  0.03944785689191188  0.9792170788790537  1.0000
  H   H27       1.0  0.9696948436059216  0.07964929954114691  0.21634229219907392  1.0000
  H   H28       1.0  0.9363640126698385  0.07559141931337288  0.3818976898972035  1.0000
  Zn  Zn1       1.0  0.7993500513697621  0.9715139070487344  0.9193701417288186  1.0000
  Zn  Zn2       1.0  0.9670745899721913  0.9715019209233434  0.907886846318455  1.0000
  C   C39       1.0  0.8891268414401244  0.9687391660978535  0.08310634134937134  1.0000
  C   C40       1.0  0.8772996344907124  0.9742777877584715  0.7441506124442805  1.0000
  C   C41       1.0  0.8830635210367614  0.13442197079208648  0.9099408237940619  1.0000
  C   C42       1.0  0.883362899515734  0.8085939115012923  0.917316183325154  1.0000
  O   O1        1.0  0.942154835651874  0.9756224125229291  0.7743650521513465  1.0000
  O   O2        1.0  0.951570674959087  0.9673847699177918  0.04417607897447995  1.0000
  O   O3        1.0  0.9466736426703275  0.10117573458338015  0.9043437571763728  1.0000
  O   O4        1.0  0.9470518082797634  0.8418314539208004  0.9141973082932633  1.0000
  O   O5        1.0  0.8193727758258663  0.10118437405631597  0.9130596836678146  1.0000
  O   O6        1.0  0.824269806256643  0.9673944809587117  0.052891956054162304  1.0000
  O   O7        1.0  0.8148539280858687  0.9756320873098893  0.7830798135913264  1.0000
  O   O8        1.0  0.8197509031383042  0.8418411226493396  0.922912139303238  1.0000
