data_image0
_chemical_formula_structural       NC9NC4H8C8NH7C6NO2H3Zn2C4O8
_chemical_formula_sum              "N4 C31 H18 O10 Zn2"
_cell_length_a       16.32274767691083
_cell_length_b       9.274263428431858
_cell_length_c       9.273395971720358
_cell_angle_alpha    84.92461197253164
_cell_angle_beta     89.35243876569035
_cell_angle_gamma    90.1410557844374

_space_group_name_H-M_alt    "P 1"
_space_group_IT_number       1

loop_
  _space_group_symop_operation_xyz
  'x, y, z'

loop_
  _atom_site_type_symbol
  _atom_site_label
  _atom_site_symmetry_multiplicity
  _atom_site_fract_x
  _atom_site_fract_y
  _atom_site_fract_z
  _atom_site_occupancy
  N   N1        1.0  0.7829468233895539  0.5849180066226107  0.3944930604943031  1.0000
  C   C1        1.0  0.7303677147770744  0.5328603321716061  0.3341807989568075  1.0000
  C   C2        1.0  0.6650115716850654  0.4682042953455872  0.25927248784321977  1.0000
  C   C3        1.0  0.6761505548646428  0.37976642521833287  0.15680647695396477  1.0000
  C   C4        1.0  0.5965830153237982  0.33660823433601195  0.10680647261619967  1.0000
  C   C5        1.0  0.5379454996097718  0.399769164866561  0.1799886588962203  1.0000
  C   C6        1.0  0.44792990828241885  0.3830762577528657  0.16065118718475047  1.0000
  C   C7        1.0  0.3926784342460173  0.4566944870705337  0.2459415327258514  1.0000
  C   C8        1.0  0.3079031670029052  0.4424279295256712  0.22941450375711045  1.0000
  C   C9        1.0  0.2522503574812717  0.5183093275013321  0.31732597811125585  1.0000
  N   N2        1.0  0.2075243821309211  0.5793054893143685  0.3879919136850593  1.0000
  C   C10       1.0  0.2773257775932537  0.3544240720973568  0.12745988578648326  1.0000
  C   C11       1.0  0.3312557890466335  0.28090335154885615  0.04228289292977094  1.0000
  C   C12       1.0  0.4158704624429152  0.29478563578958683  0.058364586036615755  1.0000
  C   C13       1.0  0.5761304191925719  0.4918648435926529  0.2866897391081624  1.0000
  H   H1        1.0  0.7348972030380484  0.34537713403094294  0.11695976729796496  1.0000
  H   H2        1.0  0.5879496246879362  0.2643280754443915  0.023060924268818454  1.0000
  H   H3        1.0  0.41511222885641264  0.5253963324622968  0.3255344184076283  1.0000
  H   H4        1.0  0.2118790450451198  0.34267138154099697  0.11384529164019241  1.0000
  H   H5        1.0  0.3074288599879793  0.21282416161549708  0.9634116592541457  1.0000
  H   H6        1.0  0.45537662296290243  0.23597378729379662  0.9902289129575971  1.0000
  H   H7        1.0  0.5589873009797887  0.45210141464559417  0.3995547706359168  1.0000
  H   H8        1.0  0.5600867817445033  0.6076959114620604  0.26195836329898015  1.0000
  C   C14       1.0  0.9926466660540442  0.15855929340837568  0.3915889229579106  1.0000
  C   C15       1.0  0.9822124603605562  0.243437107164566  0.25981149139066484  1.0000
  C   C16       1.0  0.9798122540588446  0.17992517356923798  0.12910536745944023  1.0000
  C   C17       1.0  0.9884528498199382  0.030050457516943147  0.12693349044381375  1.0000
  C   C18       1.0  0.9966894323118659  0.9437063487899799  0.257859621332011  1.0000
  C   C19       1.0  0.9978323126888141  0.005652870394891262  0.39090845148119246  1.0000
  C   C20       1.0  0.9846426631431408  0.9615864675502023  0.9861351015599804  1.0000
  C   C21       1.0  0.8996779386862168  0.9241089178467742  0.9553509153851172  1.0000
  N   N3        1.0  0.8326170822074573  0.8945272413096826  0.9310631604584895  1.0000
  H   H9        1.0  0.06295518569947678  0.23241490986398405  0.7233482888643075  1.0000
  H   H10       1.0  0.9776863900369464  0.36014057161952073  0.25751634554247915  1.0000
  H   H11       1.0  0.9719790611849771  0.24800316309977588  0.02917869948702867  1.0000
  H   H12       1.0  0.00022908774481300256  0.827189886274397  0.25590381454346023  1.0000
  H   H13       1.0  0.04197805205297376  0.7052097862213007  0.6162772183091856  1.0000
  H   H14       1.0  0.022486843807467242  0.8619124748952222  0.9911424364259931  1.0000
  H   H15       1.0  0.008942319406283204  0.03701803061491482  0.8959224724198749  1.0000
  C   C22       1.0  0.9957328239535587  0.5865308285049811  0.967301265369075  1.0000
  C   C23       1.0  0.9229155467621435  0.620417023136675  0.0389795827480024  1.0000
  C   C24       1.0  0.8497854649550937  0.6406681579182432  0.9636562446952323  1.0000
  C   C25       1.0  0.8473969970727123  0.6274478759710456  0.8144075817926333  1.0000
  C   C26       1.0  0.9201856236881167  0.5960336764926378  0.74129027144276  1.0000
  C   C27       1.0  0.9947461274132036  0.5776812872408355  0.815196111162547  1.0000
  N   N4        1.0  0.7715644401053491  0.6472540304938037  0.7374178806642155  1.0000
  O   O1        1.0  0.7005581112302163  0.6791923619213319  0.8092577277697384  1.0000
  O   O2        1.0  0.7688825964992015  0.6354020834993187  0.6044718376444509  1.0000
  H   H16       1.0  0.1740106894239586  0.42257811801709  0.08110808659094482  1.0000
  H   H17       1.0  0.7947962157243467  0.6653134306198513  0.022864251966419055  1.0000
  H   H18       1.0  0.11633414423313759  0.47149563096623864  0.5419592850750079  1.0000
  Zn  Zn1       1.0  0.9054707082696888  0.5832943972281779  0.3926253104036086  1.0000
  Zn  Zn2       1.0  0.08500041720574436  0.5809171395258081  0.3898715002907074  1.0000
  C   C28       1.0  0.9948956481186543  0.5736081258320089  0.6549304547881034  1.0000
  C   C29       1.0  0.9955774487913897  0.5906052033515559  0.1275664660703757  1.0000
  C   C30       1.0  0.9968545882389223  0.8455942168583197  0.3852841614758882  1.0000
  C   C31       1.0  0.9936184367124139  0.31861737944472446  0.39721283868322743  1.0000
  O   O3        1.0  0.063655853861593  0.5910641514293311  0.1803078799350497  1.0000
  O   O4        1.0  0.06307613191888106  0.5713438104115499  0.6000985480560288  1.0000
  O   O5        1.0  0.06465708066040231  0.7909760151428298  0.38235727129745656  1.0000
  O   O6        1.0  0.06207484404786912  0.37143195895683934  0.3980490493788149  1.0000
  O   O7        1.0  0.9283962201629037  0.7927795786100378  0.38444776224764543  1.0000
  O   O8        1.0  0.9268152821154297  0.5731491075721684  0.6021889606377266  1.0000
  O   O9        1.0  0.9273950058247648  0.5928694164433674  0.18239655683071265  1.0000
  O   O10       1.0  0.9258139958185833  0.3732372125249783  0.40013783452143015  1.0000
