data_image0
_chemical_formula_structural       NC12NC2H8C6NCSNH8C9NC2H9Zn2C4O8
_chemical_formula_sum              "N5 C36 H25 S1 Zn2 O8"
_cell_length_a       17.80743265337812
_cell_length_b       9.275078345756787
_cell_length_c       9.273598843048156
_cell_angle_alpha    84.94141642220173
_cell_angle_beta     91.13569736745053
_cell_angle_gamma    90.00966593732542

_space_group_name_H-M_alt    "P 1"
_space_group_IT_number       1

loop_
  _space_group_symop_operation_xyz
  'x, y, z'

loop_
  _atom_site_type_symbol
  _atom_site_label
  _atom_site_symmetry_multiplicity
  _atom_site_fract_x
  _atom_site_fract_y
  _atom_site_fract_z
  _atom_site_occupancy
  N   N1        1.0  0.7211380441204532  0.5743196280037582  0.44143277639694317  1.0000
  C   C1        1.0  0.6707640115882836  0.6077362241239388  0.3650046559385116  1.0000
  C   C2        1.0  0.6080936532999209  0.6493040128388612  0.2699376901296151  1.0000
  C   C3        1.0  0.6206393089076586  0.7103841878277246  0.12907323449300678  1.0000
  C   C4        1.0  0.5598580322541025  0.7502615182690711  0.03667331334562139  1.0000
  C   C5        1.0  0.48638096095665134  0.7293569293847137  0.08440376367257893  1.0000
  C   C6        1.0  0.47285597066357793  0.6681408084716185  0.2257887732000565  1.0000
  C   C7        1.0  0.5344946483552984  0.6282672329277028  0.31817033702239983  1.0000
  C   C8        1.0  0.39479280483846  0.645974374802565  0.27670096542250827  1.0000
  C   C9        1.0  0.3756546153202698  0.6750866529412393  0.41778178507139985  1.0000
  C   C10       1.0  0.3021476751253727  0.6542278932664145  0.4655571764412218  1.0000
  C   C11       1.0  0.24683113305405016  0.6039672925562731  0.3731836630468326  1.0000
  C   C12       1.0  0.1711787903703158  0.5824825685204023  0.4225174444817383  1.0000
  N   N2        1.0  0.1103596634929884  0.5652102959271281  0.4621784110127493  1.0000
  C   C13       1.0  0.2652746812338991  0.5746627749028287  0.23270669946655542  1.0000
  C   C14       1.0  0.3387298764270316  0.5955401385896228  0.18464693073887184  1.0000
  H   H1        1.0  0.6773283266146671  0.7271424500664472  0.0907616757488956  1.0000
  H   H2        1.0  0.569690295862182  0.7978520906217614  0.9278929356800897  1.0000
  H   H3        1.0  0.4401750737887687  0.7628321133446248  0.011428820603136549  1.0000
  H   H4        1.0  0.5253532875480315  0.5791390717695817  0.4268167938625433  1.0000
  H   H5        1.0  0.4172825400577328  0.7158222173176493  0.49052690141676836  1.0000
  H   H6        1.0  0.288437605809134  0.6776558663683127  0.5743917961131983  1.0000
  H   H7        1.0  0.22293552250781493  0.5353312482988019  0.16041645416185552  1.0000
  H   H8        1.0  0.3519014925856373  0.570404060360596  0.07615419516214339  1.0000
  C   C15       1.0  0.9135537325996003  0.14618199456037378  0.45302207199498906  1.0000
  C   C16       1.0  0.889342405865762  0.23047223071016346  0.32737505564742897  1.0000
  C   C17       1.0  0.8726212894001488  0.16674933186282792  0.19989448562705633  1.0000
  C   C18       1.0  0.8805543322941991  0.01703545305024767  0.19447397920363274  1.0000
  C   C19       1.0  0.9020503415291525  0.9313171728923015  0.3203762950118314  1.0000
  C   C20       1.0  0.9179510519011287  0.9933366137548367  0.4506019312157121  1.0000
  N   N3        1.0  0.8626059971001292  0.9490261277758598  0.06473526971540733  1.0000
  C   C21       1.0  0.8728247047837198  0.01643567335444509  0.9211007890478169  1.0000
  S   S1        1.0  0.8242367509935817  0.9586850856552828  0.786027514473969  1.0000
  N   N4        1.0  0.9306752981114562  0.12131893710920608  0.8918355138466185  1.0000
  H   H9        1.0  0.9174701762533847  0.40636630202058766  0.6917318559033659  1.0000
  H   H10       1.0  0.8846590948512156  0.3469736544263857  0.326807706214012  1.0000
  H   H11       1.0  0.85327243468723  0.2346154797282787  0.10555349905532993  1.0000
  H   H12       1.0  0.9051780972368173  0.8149889738456582  0.3168654180830216  1.0000
  H   H13       1.0  0.9830073981940254  0.694273527017087  0.656601416419134  1.0000
  H   H14       1.0  0.8413796850956171  0.8436055135669992  0.07551456359349618  1.0000
  H   H15       1.0  0.9690579646507204  0.1458588083118677  0.9725535239540076  1.0000
  H   H16       1.0  0.9376374183824696  0.17024297215485773  0.7871671935411007  1.0000
  C   C22       1.0  0.917283944004702  0.5730236293391829  0.028044514078199297  1.0000
  C   C23       1.0  0.8675589575761525  0.6652829323306266  0.09151049705563108  1.0000
  C   C24       1.0  0.814070965095499  0.7462865055259891  0.007643709190254142  1.0000
  C   C25       1.0  0.8088488066332876  0.7373346129414404  0.8576733935448386  1.0000
  C   C26       1.0  0.8591522316754847  0.6472262931222597  0.7928220627245366  1.0000
  C   C27       1.0  0.914220821221929  0.5664949551671246  0.8755795047639157  1.0000
  C   C28       1.0  0.7514758514607685  0.8230316526965451  0.7687525220280653  1.0000
  C   C29       1.0  0.7695075904214512  0.8923542001497243  0.6329346523904253  1.0000
  C   C30       1.0  0.7146534293336059  0.972439332164414  0.5512481031852382  1.0000
  N   N5        1.0  0.6441630286670993  0.9832553591492342  0.6027853331850599  1.0000
  C   C31       1.0  0.6249395057136502  0.9175779966778854  0.7336191885889658  1.0000
  C   C32       1.0  0.6780588091420638  0.8365261053017512  0.8189223990553125  1.0000
  H   H17       1.0  0.028821323804824044  0.4686231886414498  0.3226251667379782  1.0000
  H   H18       1.0  0.8689285622237847  0.6725870513516816  0.20748264110633927  1.0000
  H   H19       1.0  0.7768427757438815  0.8165862593163531  0.060343209979435875  1.0000
  H   H20       1.0  0.8559036160060656  0.6407921542174899  0.6767578446161289  1.0000
  H   H21       1.0  0.08224899331950941  0.4192961555213958  0.7918924694383954  1.0000
  H   H22       1.0  0.8256654602216739  0.8863933290476933  0.5911721067233686  1.0000
  H   H23       1.0  0.7282359667151957  0.0264000122586947  0.4468351091489713  1.0000
  H   H24       1.0  0.5682757646322683  0.9279806883395583  0.7714165252018335  1.0000
  H   H25       1.0  0.6616268257332535  0.7834382858990597  0.9221481480204407  1.0000
  Zn  Zn1       1.0  0.8334589491035989  0.5716869563791125  0.44742784870837804  1.0000
  Zn  Zn2       1.0  0.9980386524009702  0.567831110825507  0.4561951430446933  1.0000
  C   C33       1.0  0.9147683358917614  0.561982700180629  0.7153935841641084  1.0000
  C   C34       1.0  0.9167310717532318  0.5775371438264822  0.18822963976576457  1.0000
  C   C35       1.0  0.9171367897402393  0.8332507284250839  0.44530869023690184  1.0000
  C   C36       1.0  0.9143625524715892  0.3062673832918057  0.45831461258830636  1.0000
  O   O1        1.0  0.9790026297976049  0.5775823543418463  0.24531639174238926  1.0000
  O   O2        1.0  0.9774089603879568  0.5590099071397072  0.6649605934277194  1.0000
  O   O3        1.0  0.9793206694486508  0.778062278766563  0.44686508154931515  1.0000
  O   O4        1.0  0.9770908650216157  0.3585299951827714  0.4634117923993608  1.0000
  O   O5        1.0  0.8544066803200131  0.7809880733392875  0.4402111963542678  1.0000
  O   O6        1.0  0.8524949805295438  0.5619374353200927  0.6583066263378956  1.0000
  O   O7        1.0  0.8540886559986903  0.5805098456205329  0.23866068980982247  1.0000
  O   O8        1.0  0.8521768907750565  0.3614574753111167  0.4567561986887847  1.0000
