data_image0
_chemical_formula_structural       NC8NH4C7NH5C6IH3Zn2C4O8
_chemical_formula_sum              "N3 C25 H12 I1 Zn2 O8"
_cell_length_a       13.859017124695912
_cell_length_b       9.275154477615127
_cell_length_c       9.275433903346869
_cell_angle_alpha    86.39417635758981
_cell_angle_beta     89.96561328277663
_cell_angle_gamma    89.43373790894346

_space_group_name_H-M_alt    "P 1"
_space_group_IT_number       1

loop_
  _space_group_symop_operation_xyz
  'x, y, z'

loop_
  _atom_site_type_symbol
  _atom_site_label
  _atom_site_symmetry_multiplicity
  _atom_site_fract_x
  _atom_site_fract_y
  _atom_site_fract_z
  _atom_site_occupancy
  N   N1        1.0  0.898900276312348  0.5610511371365863  0.41673036402608465  1.0000
  C   C1        1.0  0.8267234702179187  0.5375996760700186  0.36048957210045685  1.0000
  C   C2        1.0  0.7369397938206099  0.5084294796659261  0.29053325666494345  1.0000
  C   C3        1.0  0.6491091148858448  0.5368674521239752  0.3587318654327889  1.0000
  C   C4        1.0  0.5617094661258869  0.5084306990742726  0.29053268235807694  1.0000
  C   C5        1.0  0.5623229647136089  0.45154825307827773  0.15411396045021664  1.0000
  C   C6        1.0  0.6499702549952742  0.4232195846745692  0.08617786574201867  1.0000
  C   C7        1.0  0.7371883385729622  0.45154591663955884  0.15411512921587778  1.0000
  C   C8        1.0  0.47148362560596313  0.5376005971349496  0.3604890778712552  1.0000
  N   N2        1.0  0.3989513998686333  0.5610514573825853  0.41673014934536257  1.0000
  H   H1        1.0  0.6487754497865347  0.5808966657545219  0.4643232278227416  1.0000
  H   H2        1.0  0.49519714165295153  0.42916646919457735  0.10043419768411477  1.0000
  H   H3        1.0  0.6503033054289327  0.3792802883859505  0.9808003466707732  1.0000
  H   H4        1.0  0.8046533866819275  0.4291620430905821  0.10043635712066479  1.0000
  C   C9        1.0  0.15172339871255613  0.1376442847764352  0.4150627341418115  1.0000
  C   C10       1.0  0.12529816766641644  0.21947217600537086  0.28800771029887207  1.0000
  C   C11       1.0  0.09102144829784731  0.15215412574088405  0.16768298404080872  1.0000
  C   C12       1.0  0.0826053128863915  0.0020900986614917887  0.17299619712934655  1.0000
  C   C13       1.0  0.10992619234281742  0.919023734077415  0.29715510231056186  1.0000
  C   C14       1.0  0.14613758073104124  0.984447398379447  0.4184102610407947  1.0000
  C   C15       1.0  0.06331324013898532  0.23754754319697538  0.03909661621176518  1.0000
  N   N3        1.0  0.04104352783906906  0.30618829506858614  0.9357461135789088  1.0000
  H   H5        1.0  0.17026586679032496  0.21807700569245836  0.7687819912028584  1.0000
  H   H6        1.0  0.12924070979196012  0.33638610889233056  0.2837320082077075  1.0000
  H   H7        1.0  0.05574736898006382  0.948980050154591  0.08051908820407161  1.0000
  H   H8        1.0  0.10485954270605502  0.8025547857920792  0.29702828621381994  1.0000
  H   H9        1.0  0.16271784993529192  0.6881975773997504  0.6554122231058395  1.0000
  C   C16       1.0  0.14912953166547127  0.5565456086691011  0.9935663581875892  1.0000
  C   C17       1.0  0.23802977080472365  0.5538463929552428  0.06701051560699955  1.0000
  C   C18       1.0  0.32488446055183157  0.5644336301869748  0.9909335897050995  1.0000
  C   C19       1.0  0.3242290599191542  0.5780567038678076  0.8404417994554643  1.0000
  C   C20       1.0  0.23697804137796163  0.5785765174042798  0.7654685045404013  1.0000
  C   C21       1.0  0.14873143280534773  0.5655460052967938  0.8399065610853209  1.0000
  I   I1        1.0  0.4570637366047421  0.5625196732744862  0.1037103608757752  1.0000
  H   H10       1.0  0.9185565786517517  0.6419650137551259  0.0913937364985773  1.0000
  H   H11       1.0  0.3914663983710982  0.5868706137713855  0.7812656812313626  1.0000
  H   H12       1.0  0.9930544592841605  0.6169923625519051  0.5556344725396052  1.0000
  Zn  Zn1       1.0  0.043204253357407074  0.5610474685625284  0.4167386129757873  1.0000
  Zn  Zn2       1.0  0.25464748721308655  0.5610434899536665  0.4167336730906243  1.0000
  C   C22       1.0  0.14884242532448866  0.5581008025758267  0.679907459700998  1.0000
  C   C23       1.0  0.14901161213261682  0.563991976645136  0.15356497494092713  1.0000
  C   C24       1.0  0.14719114957676704  0.8243224969499139  0.4120350581035461  1.0000
  C   C25       1.0  0.15066282712025125  0.2977685507952088  0.42143744651992043  1.0000
  O   O1        1.0  0.22921368405568976  0.5664832456257247  0.207260072802109  1.0000
  O   O2        1.0  0.22912088280457743  0.5556054217947259  0.6262081934587755  1.0000
  O   O3        1.0  0.22778637435504723  0.7705828227897342  0.40989933987890304  1.0000
  O   O4        1.0  0.23054812033675254  0.35150585379731636  0.42356881837669946  1.0000
  O   O5        1.0  0.06730354807853602  0.7705851047217254  0.4099034676838244  1.0000
  O   O6        1.0  0.06863804513294826  0.5556094352054038  0.6262122512762671  1.0000
  O   O7        1.0  0.06873084759459361  0.5664871903670807  0.20726239787780004  1.0000
  O   O8        1.0  0.07006528388891846  0.3515097893749195  0.42357125145178487  1.0000
