data_image0
_chemical_formula_structural       NC8NC6H8C7OC4NC3H7C7OC6OH11Zn2C4O8
_chemical_formula_sum              "N3 C45 H26 O11 Zn2"
_cell_length_a       17.457602349358154
_cell_length_b       10.299371701877257
_cell_length_c       10.29936253279653
_cell_angle_alpha    85.59861751689631
_cell_angle_beta     92.89066602148195
_cell_angle_gamma    91.69730494660953

_space_group_name_H-M_alt    "P 1"
_space_group_IT_number       1

loop_
  _space_group_symop_operation_xyz
  'x, y, z'

loop_
  _atom_site_type_symbol
  _atom_site_label
  _atom_site_symmetry_multiplicity
  _atom_site_fract_x
  _atom_site_fract_y
  _atom_site_fract_z
  _atom_site_occupancy
  N   N1        1.0  0.7223621987345887  0.4523957414631603  0.6270116539499615  1.0000
  C   C1        1.0  0.6612777640963216  0.406466996604006  0.616379474865234  1.0000
  C   C2        1.0  0.5852861464733775  0.34933735545550526  0.6031625881621518  1.0000
  C   C3        1.0  0.5267735087526646  0.3895233429588223  0.6780752228951192  1.0000
  C   C4        1.0  0.4522202933630323  0.3345121673060558  0.6654735342920026  1.0000
  C   C5        1.0  0.3901176899228508  0.37694272803184536  0.7448088100720767  1.0000
  C   C6        1.0  0.31556421216372854  0.3953932924491461  0.6890513994260177  1.0000
  C   C7        1.0  0.2570515691941181  0.43539538861506233  0.7640719232396178  1.0000
  C   C8        1.0  0.1810596519327678  0.45445109707329845  0.7060992483755522  1.0000
  N   N2        1.0  0.11997506631410111  0.4697655070079842  0.6594893665608428  1.0000
  C   C9        1.0  0.2726003467420229  0.45719022560774547  0.8953584663185307  1.0000
  C   C10       1.0  0.34636922231341416  0.439128773244257  0.9515036170220792  1.0000
  C   C11       1.0  0.4048703512061395  0.3993068786979404  0.8769408826229508  1.0000
  C   C12       1.0  0.4374680651670308  0.23863712327435516  0.5765260375311771  1.0000
  C   C13       1.0  0.49596907690064934  0.19872994481608508  0.502013508861904  1.0000
  C   C14       1.0  0.5697376248352277  0.25385367277484194  0.5151651920490987  1.0000
  H   H1        1.0  0.5391359291812309  0.4647392522231606  0.7447333011574646  1.0000
  H   H2        1.0  0.3032016114237003  0.3803902523205837  0.5870207049892291  1.0000
  H   H3        1.0  0.22775186645247925  0.4880919503928245  0.9542058136875369  1.0000
  H   H4        1.0  0.358218217374048  0.4556893583040016  0.0531616027081544  1.0000
  H   H5        1.0  0.46136162880981196  0.3843298160361912  0.9230423913476847  1.0000
  H   H6        1.0  0.38097696495320243  0.19329803657437883  0.5658579513459876  1.0000
  H   H7        1.0  0.4841203955868731  0.12463011579747095  0.43415749683205673  1.0000
  H   H8        1.0  0.6145861377605558  0.22208241161669887  0.45682866417044776  1.0000
  C   C15       1.0  0.9211321489682608  0.07970854124854099  0.6431205390587962  1.0000
  C   C16       1.0  0.9248385003144042  0.08916924019777349  0.5067619954457909  1.0000
  C   C17       1.0  0.9258367066643015  0.9767339656923577  0.43785296996677614  1.0000
  C   C18       1.0  0.9248480405626195  0.8539014389966544  0.5070801622023129  1.0000
  C   C19       1.0  0.9212124509289319  0.8424429889290965  0.6433923033122035  1.0000
  C   C20       1.0  0.9191736810459176  0.9559399953677127  0.710591472384168  1.0000
  C   C21       1.0  0.9305561195284309  0.9866152712223959  0.29399228163934943  1.0000
  O   O1        1.0  0.9674735776810276  0.9024642624492074  0.24206334646813987  1.0000
  C   C22       1.0  0.8933820618734287  0.09187936266477759  0.20904581803732292  1.0000
  C   C23       1.0  0.9262220634977921  0.1379213075755723  0.09176114323719431  1.0000
  C   C24       1.0  0.8910719447322559  0.23626471650104006  0.010101319765352997  1.0000
  C   C25       1.0  0.9254000133936706  0.28355504529293696  0.8907521014617005  1.0000
  N   N3        1.0  0.9529982540748683  0.3215667789602019  0.794812919124028  1.0000
  C   C26       1.0  0.8225088707825792  0.28846034186193803  0.04467174879235069  1.0000
  C   C27       1.0  0.789020938490074  0.24217892929442741  0.16016399558905525  1.0000
  C   C28       1.0  0.8239507706696256  0.1441233680663052  0.2417944283576554  1.0000
  H   H9        1.0  0.9278126593760176  0.18420660540472908  0.4541197019515608  1.0000
  H   H10       1.0  0.9261862446228631  0.7671060422741894  0.4541786080582244  1.0000
  H   H11       1.0  0.9163167747809314  0.9478426145232179  0.8157142250888723  1.0000
  H   H12       1.0  0.9794232352879265  0.09814452617788572  0.06453065111395162  1.0000
  H   H13       1.0  0.794841676996411  0.36444937070624706  0.9821739455146266  1.0000
  H   H14       1.0  0.7356885830934001  0.28196581000306487  0.18623079667132747  1.0000
  H   H15       1.0  0.796246866019341  0.10823101181487815  0.32968547807560156  1.0000
  C   C29       1.0  0.9211124104760736  0.46095262452977126  0.26188461019713927  1.0000
  C   C30       1.0  0.8482780537510992  0.39909015777472945  0.2592026253757771  1.0000
  C   C31       1.0  0.8112118517101872  0.36919735782860275  0.14065185077174913  1.0000
  C   C32       1.0  0.8484941280017736  0.3992631550270427  0.02396603170929912  1.0000
  C   C33       1.0  0.9212321985217871  0.46119891212830955  0.024628253593939053  1.0000
  C   C34       1.0  0.9570586552167836  0.4919391534399318  0.1440869233375086  1.0000
  C   C35       1.0  0.7346906135398619  0.3025567694668003  0.14018226485724572  1.0000
  O   O2        1.0  0.7190073561315121  0.22266494707174697  0.23477025066824586  1.0000
  C   C36       1.0  0.6759642775194249  0.3265425629012775  0.03247981761019326  1.0000
  C   C37       1.0  0.67007734140267  0.4496581058156639  0.964188462385409  1.0000
  C   C38       1.0  0.6139230988824038  0.4713846426676971  0.8639145062998819  1.0000
  C   C39       1.0  0.56230389888945  0.37146523116659685  0.8306153912616795  1.0000
  C   C40       1.0  0.5673840064880642  0.24850799666983156  0.8997591266529019  1.0000
  C   C41       1.0  0.6235313602400054  0.22665395960109813  0.00010488083240512352  1.0000
  O   O3        1.0  0.5070769903175739  0.3982122659317231  0.7291299513575997  1.0000
  H   H16       1.0  0.05868171088423124  0.577201367936687  0.4742641516996651  1.0000
  H   H17       1.0  0.8198690411976649  0.3751081421576029  0.34940830102689957  1.0000
  H   H18       1.0  0.8210651767303068  0.3729848162985748  0.9326627935501235  1.0000
  H   H19       1.0  0.01317097179467486  0.5397139070769885  0.1453305770401132  1.0000
  H   H20       1.0  0.7083267806779026  0.5295798548107261  0.9891641583750005  1.0000
  H   H21       1.0  0.6102776366706273  0.5666848977529126  0.8120862955253839  1.0000
  H   H22       1.0  0.5282533494149707  0.16923354094004184  0.8768084654507328  1.0000
  H   H23       1.0  0.6264313895387288  0.1311392716797639  0.05175894795083136  1.0000
  H   H24       1.0  0.41509627079999245  0.3531278546553953  0.6041465103667267  1.0000
  H   H25       1.0  0.41366102408404287  0.2721569707590652  0.7656342145944892  1.0000
  H   H26       1.0  0.4797193723707033  0.22193572094823533  0.6488060091622811  1.0000
  Zn  Zn1       1.0  0.8371046842505103  0.45740480028047287  0.6363915175368411  1.0000
  Zn  Zn2       1.0  0.005232567096938201  0.46474580371176755  0.6501201317882899  1.0000
  C   C42       1.0  0.921207289301016  0.4559785706972106  0.880451375178155  1.0000
  C   C43       1.0  0.9211317981902153  0.4661737521335261  0.40606055211429526  1.0000
  C   C44       1.0  0.9211925084572555  0.6982681145748975  0.6381654039658882  1.0000
  C   C45       1.0  0.9211465215102855  0.22388264545710326  0.6483465873251484  1.0000
  O   O4        1.0  0.9849419596220975  0.4707062170065559  0.4596572508275696  1.0000
  O   O5        1.0  0.9850023005733223  0.4570167777175491  0.8372740028252572  1.0000
  O   O6        1.0  0.9849895049633212  0.6526686114494415  0.6416262971055877  1.0000
  O   O7        1.0  0.984954697847128  0.27505439002853516  0.6553048544904954  1.0000
  O   O8        1.0  0.8573824961265247  0.6470962114599927  0.6312067901429026  1.0000
  O   O9        1.0  0.8573952918864197  0.45144593802312305  0.8268544271722533  1.0000
  O   O10       1.0  0.8573349507362632  0.46513533155379777  0.4492361137500547  1.0000
  O   O11       1.0  0.8573476889724685  0.2694834953181926  0.6448838147779912  1.0000
