data_image0
_chemical_formula_structural       NC12NH6C6H6C6H6Zn2C4O8
_chemical_formula_sum              "N2 C28 H18 Zn2 O8"
_cell_length_a       10.983627670091314
_cell_length_b       10.30227716192359
_cell_length_c       10.681121600428288
_cell_angle_alpha    85.56070482122752
_cell_angle_beta     90.0305547582157
_cell_angle_gamma    89.98547613505998

_space_group_name_H-M_alt    "P 1"
_space_group_IT_number       1

loop_
  _space_group_symop_operation_xyz
  'x, y, z'

loop_
  _atom_site_type_symbol
  _atom_site_label
  _atom_site_symmetry_multiplicity
  _atom_site_fract_x
  _atom_site_fract_y
  _atom_site_fract_z
  _atom_site_occupancy
  N   N1        1.0  0.14641275566081902  0.420602731278415  0.6193350867697511  1.0000
  C   C1        1.0  0.09272080254066963  0.37741584735390576  0.7059856953094923  1.0000
  C   C2        1.0  0.025683254496839503  0.3234852500599142  0.8141920074471545  1.0000
  C   C3        1.0  0.09105326810217405  0.27137973743510974  0.9187323649137936  1.0000
  C   C4        1.0  0.03042461895402117  0.21829395461589307  0.025244828991481283  1.0000
  C   C5        1.0  0.9029940961024984  0.21640652693433804  0.02903765618063991  1.0000
  C   C6        1.0  0.8426560001693021  0.16271825998034137  0.13675661232212288  1.0000
  C   C7        1.0  0.7156962365738883  0.16050766907673242  0.1411899412414871  1.0000
  C   C8        1.0  0.6478839480262668  0.2116884014781863  0.038502837974987325  1.0000
  C   C9        1.0  0.7064635273389552  0.2654783221994286  0.9305821447277056  1.0000
  C   C10       1.0  0.8348549895394987  0.2687974596747724  0.9239223029524759  1.0000
  C   C11       1.0  0.897109506187146  0.32270468320805  0.8157603276181002  1.0000
  C   C12       1.0  0.8304793891030933  0.3770389759377548  0.7067427141406106  1.0000
  N   N2        1.0  0.7773717430236988  0.42042308914070314  0.619696019995297  1.0000
  H   H1        1.0  0.18972018705014262  0.2717955395567897  0.9178951622143887  1.0000
  H   H2        1.0  0.08335264527064146  0.17859442149343052  0.10489282329256232  1.0000
  H   H3        1.0  0.8937139140002  0.12247140747081463  0.21750742433791984  1.0000
  H   H4        1.0  0.6697212126838888  0.11898197108641306  0.2245050827982138  1.0000
  H   H5        1.0  0.549423176265555  0.20969882843609988  0.0424919812519774  1.0000
  H   H6        1.0  0.6506228827994559  0.30418434635353847  0.8529210571085133  1.0000
  C   C13       1.0  0.46189807669938865  0.0392397889682401  0.6195209581240027  1.0000
  C   C14       1.0  0.4046463464605079  0.918294694929505  0.6472928231914354  1.0000
  C   C15       1.0  0.46189801808559316  0.8017760231478831  0.6195209892912168  1.0000
  C   C16       1.0  0.5776721552792847  0.8074819601557979  0.5633608252137654  1.0000
  C   C17       1.0  0.6349349094505634  0.9271969796575696  0.5355835381323388  1.0000
  C   C18       1.0  0.5776721373397926  0.04248490356170343  0.5633607401895926  1.0000
  H   H7        1.0  0.24357485663331535  0.24031581159931537  0.7254260724242421  1.0000
  H   H8        1.0  0.31544626348499505  0.9148465282290271  0.6905622232864297  1.0000
  H   H9        1.0  0.24357526209614938  0.5838203018572933  0.7254270519901596  1.0000
  H   H10       1.0  0.6240390822036568  0.7194820043925391  0.5408690180466036  1.0000
  H   H11       1.0  0.7240982094549508  0.930643887335673  0.4923318685160522  1.0000
  H   H12       1.0  0.6240390994716691  0.13406965427268913  0.5408688837738349  1.0000
  C   C19       1.0  0.46189809112207814  0.4205078902950308  0.2517757345840117  1.0000
  C   C20       1.0  0.37475563463753314  0.3483228719581566  0.19030339515506411  1.0000
  C   C21       1.0  0.3747555586239771  0.34832295523156875  0.05942125515869012  1.0000
  C   C22       1.0  0.46189799541181975  0.42050795396758034  0.9872661702056084  1.0000
  C   C23       1.0  0.5489685270314882  0.49263315245928496  0.0487378881419731  1.0000
  C   C24       1.0  0.5489685114547571  0.4926331323308878  0.1796301867961081  1.0000
  H   H13       1.0  0.5500222145892328  0.4935067782872218  0.5450838903696316  1.0000
  H   H14       1.0  0.306449263370918  0.29174084296770186  0.24330115405393182  1.0000
  H   H15       1.0  0.3064492379438615  0.2917409040907959  0.014797124813855419  1.0000
  H   H16       1.0  0.6172838182469438  0.5492226375275071  0.9957844697136342  1.0000
  H   H17       1.0  0.6172837569053584  0.5492225920302974  0.22420883716295004  1.0000
  H   H18       1.0  0.5500225945701775  0.4935063258261891  0.6831548648735506  1.0000
  Zn  Zn1       1.0  0.3284938886428786  0.4205474138724194  0.6194464696645978  1.0000
  Zn  Zn2       1.0  0.5952905827243894  0.42046778026870824  0.6195948727702032  1.0000
  C   C25       1.0  0.46189532985227477  0.4153355402490988  0.8482427435144155  1.0000
  C   C26       1.0  0.4618920549265345  0.42568129123037357  0.3907987234539134  1.0000
  C   C27       1.0  0.4618917902175271  0.6576404472982494  0.6145306630867915  1.0000
  C   C28       1.0  0.4618955035222634  0.18337482429779325  0.6245108705960905  1.0000
  O   O1        1.0  0.563137984105629  0.42738164698818953  0.4375124267144432  1.0000
  O   O2        1.0  0.563141918225823  0.41357376495226483  0.8016413142861263  1.0000
  O   O3        1.0  0.5631376950550426  0.6092380421656913  0.612917155029884  1.0000
  O   O4        1.0  0.5631421162367771  0.231717379089821  0.6262364920239045  1.0000
  O   O5        1.0  0.36064226408587285  0.6092978150798951  0.6128048503536672  1.0000
  O   O6        1.0  0.3606464872510531  0.4136350977784872  0.8015289428381267  1.0000
  O   O7        1.0  0.36064255321194444  0.4274429345697204  0.4373985496439036  1.0000
  O   O8        1.0  0.36064668533810695  0.231778657384883  0.6261227088429164  1.0000
