data_image0
_chemical_formula_structural       NC12NC2H8C7OClH5C7ONC2H10Zn2C4O8
_chemical_formula_sum              "N3 C34 H23 O10 Cl1 Zn2"
_cell_length_a       17.80743265337812
_cell_length_b       10.29851198555357
_cell_length_c       10.300139412416755
_cell_angle_alpha    85.53665698091136
_cell_angle_beta     91.52028565704519
_cell_angle_gamma    89.43739496170677

_space_group_name_H-M_alt    "P 1"
_space_group_IT_number       1

loop_
  _space_group_symop_operation_xyz
  'x, y, z'

loop_
  _atom_site_type_symbol
  _atom_site_label
  _atom_site_symmetry_multiplicity
  _atom_site_fract_x
  _atom_site_fract_y
  _atom_site_fract_z
  _atom_site_occupancy
  N   N1        1.0  0.7076322635780119  0.4073602013430271  0.6013993976541283  1.0000
  C   C1        1.0  0.6568219628836107  0.436947629435835  0.5327039597855514  1.0000
  C   C2        1.0  0.5936089328706873  0.4737522409584296  0.4472554826639814  1.0000
  C   C3        1.0  0.6053531358318914  0.5278256365849064  0.32064181237369516  1.0000
  C   C4        1.0  0.5440471182983567  0.5631256046296278  0.23758920199557365  1.0000
  C   C5        1.0  0.4708426856759419  0.5446159141458191  0.2804903914454635  1.0000
  C   C6        1.0  0.4581216463221278  0.49042353012780293  0.40757218188824007  1.0000
  C   C7        1.0  0.5202849821562755  0.45512682241475577  0.4906082813658048  1.0000
  C   C8        1.0  0.3803486137433915  0.47079853453260917  0.45333352747218786  1.0000
  C   C9        1.0  0.361547034480711  0.49794160016862077  0.5803719424395053  1.0000
  C   C10       1.0  0.2883126514813745  0.479473473004417  0.6233136929819878  1.0000
  C   C11       1.0  0.23293676731409904  0.433607672636815  0.5400549568201969  1.0000
  C   C12       1.0  0.15756559142056323  0.41458614367385493  0.5843975672539268  1.0000
  N   N2        1.0  0.09697250346811191  0.3992941137007715  0.6200459755671923  1.0000
  C   C13       1.0  0.2510467816178338  0.40629547651743275  0.4135594853307989  1.0000
  C   C14       1.0  0.32422834214568386  0.4247784843107467  0.37036185989275605  1.0000
  H   H1        1.0  0.6618234250507654  0.5426636998847649  0.28620647813031086  1.0000
  H   H2        1.0  0.5532582923092927  0.6052632608055327  0.13981484813295442  1.0000
  H   H3        1.0  0.4242121453828684  0.5742788253134214  0.2149027528441041  1.0000
  H   H4        1.0  0.5117721860638755  0.4116037418202947  0.588258193098212  1.0000
  H   H5        1.0  0.40321573040963726  0.535101267381765  0.645942020826046  1.0000
  H   H6        1.0  0.27485724890138347  0.5012858017142192  0.7213179897140256  1.0000
  H   H7        1.0  0.20866117364764802  0.3704030881663445  0.34840234415443305  1.0000
  H   H8        1.0  0.3371552890008982  0.401430318887829  0.2726608816589966  1.0000
  C   C15       1.0  0.9022980693831077  0.021914043682885524  0.6107371212903934  1.0000
  C   C16       1.0  0.9681679719399378  0.0254177700344742  0.5386185549708555  1.0000
  C   C17       1.0  0.0016913167718366475  0.910089723307792  0.5019151136323978  1.0000
  C   C18       1.0  0.9682022658458548  0.7901598735894007  0.5385809858713464  1.0000
  C   C19       1.0  0.9023138996769131  0.7847301314077061  0.6107197726531881  1.0000
  C   C20       1.0  0.8697499769654391  0.9010998069192062  0.6463728750475777  1.0000
  C   C21       1.0  0.07136117361832173  0.9160027911647113  0.4256363611169931  1.0000
  O   O1        1.0  0.10071285276567332  0.02420131289827609  0.3934987932128582  1.0000
  Cl  Cl1       1.0  0.11560306231386842  0.7748916937036968  0.37720057500888204  1.0000
  H   H9        1.0  0.8771026868359799  0.34806681144790724  0.6383222755075268  1.0000
  H   H10       1.0  0.9934730226190815  0.11833552941062966  0.5109128406004741  1.0000
  H   H11       1.0  0.9932298101155933  0.7005182354181787  0.5111792556994621  1.0000
  H   H12       1.0  0.8189366650226533  0.8976288089664511  0.7020070501375419  1.0000
  H   H13       1.0  0.8770447486825335  0.45513680582017524  0.638383102899029  1.0000
  C   C22       1.0  0.9023581834044448  0.4034725153475893  0.22937177276917978  1.0000
  C   C23       1.0  0.8291381649303495  0.3541031986505778  0.22900869583375116  1.0000
  C   C24       1.0  0.7918186822247794  0.33082142630155964  0.11162155499317805  1.0000
  C   C25       1.0  0.8289610559381019  0.35384029072768086  0.9938189844343004  1.0000
  C   C26       1.0  0.9022537882561262  0.40317168872033365  0.9920851694421752  1.0000
  C   C27       1.0  0.9384230272245779  0.42811928042653064  0.11032357799606964  1.0000
  C   C28       1.0  0.7149898155695035  0.2776174716748656  0.11173226921257018  1.0000
  O   O2        1.0  0.6997035257135978  0.18779491581573104  0.03908734997975327  1.0000
  N   N3        1.0  0.6574278664987002  0.3263748751611697  0.19165241276120315  1.0000
  C   C29       1.0  0.5946223406327622  0.24193465191770147  0.22922077509690622  1.0000
  C   C30       1.0  0.6569066359283318  0.4632003738183419  0.22209795560679127  1.0000
  H   H14       1.0  0.9306179654733567  0.42130596862432707  0.5570354564098601  1.0000
  H   H15       1.0  0.8014477231694463  0.3314876152065931  0.32021827043483975  1.0000
  H   H16       1.0  0.8002536681098709  0.3344023903142071  0.9034076310198582  1.0000
  H   H17       1.0  0.9948958502504675  0.46622093649976293  0.10983538028221386  1.0000
  H   H18       1.0  0.5563587769655877  0.2892389929918562  0.2952076915504809  1.0000
  H   H19       1.0  0.5619024294316726  0.21831356797734136  0.141017681185873  1.0000
  H   H20       1.0  0.6165443708197677  0.15031183322723418  0.281293870135469  1.0000
  H   H21       1.0  0.6011015049488295  0.49318827365130274  0.2558709256459515  1.0000
  H   H22       1.0  0.6991837620310989  0.47857219895603564  0.3001354944337702  1.0000
  H   H23       1.0  0.6696078351793331  0.5270424822026104  0.13365702598535334  1.0000
  Zn  Zn1       1.0  0.8199874488401103  0.40502903205225854  0.6067878840226029  1.0000
  Zn  Zn2       1.0  0.984617314042332  0.4016146841284529  0.6146680821507133  1.0000
  C   C31       1.0  0.9022717240837872  0.3980542987108131  0.8479160148229278  1.0000
  C   C32       1.0  0.9023348365681961  0.4085910189442417  0.3735401648270271  1.0000
  C   C33       1.0  0.9023077383226619  0.6405437878660336  0.6055478721981762  1.0000
  C   C34       1.0  0.9022987661108204  0.16609997044366434  0.6159083740346893  1.0000
  O   O3        1.0  0.9648031769076703  0.40900744186930976  0.42491488844655456  1.0000
  O   O4        1.0  0.9647536421878784  0.39504548502579384  0.8025218054354879  1.0000
  O   O5        1.0  0.9647818817476446  0.5908588311511882  0.6068077751266154  1.0000
  O   O6        1.0  0.9647748811844054  0.21319410623870505  0.6206288186946938  1.0000
  O   O7        1.0  0.8398298255179444  0.5934496111085719  0.600827144782667  1.0000
  O   O8        1.0  0.8398015859965876  0.3976378254951013  0.7965411058126739  1.0000
  O   O9        1.0  0.8398511209791458  0.4115997376922267  0.4189326274765617  1.0000
  O   O10       1.0  0.8398228252392876  0.21578639273339872  0.6146466550894787  1.0000
