data_image0
_chemical_formula_structural       NC8NC6H8C6SCNH4C8NH6Zn2C4O8
_chemical_formula_sum              "N4 C33 H18 S1 Zn2 O8"
_cell_length_a       17.457602349358154
_cell_length_b       10.302215558581764
_cell_length_c       9.274266800404105
_cell_angle_alpha    85.99272178288915
_cell_angle_beta     92.41618932719734
_cell_angle_gamma    91.70712283406877

_space_group_name_H-M_alt    "P 1"
_space_group_IT_number       1

loop_
  _space_group_symop_operation_xyz
  'x, y, z'

loop_
  _atom_site_type_symbol
  _atom_site_label
  _atom_site_symmetry_multiplicity
  _atom_site_fract_x
  _atom_site_fract_y
  _atom_site_fract_z
  _atom_site_occupancy
  N   N1        1.0  0.7290650237378232  0.442529449671925  0.47622715385206754  1.0000
  C   C1        1.0  0.6680270249355433  0.3965388872755913  0.4644420132328644  1.0000
  C   C2        1.0  0.5920931284118804  0.3393324096606161  0.449791886469791  1.0000
  C   C3        1.0  0.533226198129242  0.38002625288949665  0.5329009072945627  1.0000
  C   C4        1.0  0.458727965404704  0.32494195516187796  0.518932829648528  1.0000
  C   C5        1.0  0.3962501406845479  0.36791038667985543  0.6069484170275539  1.0000
  C   C6        1.0  0.3219649889710557  0.385970617861243  0.5450780204775016  1.0000
  C   C7        1.0  0.26309752005947085  0.4264813628395272  0.628306796911343  1.0000
  C   C8        1.0  0.18738457730902336  0.4451312625940858  0.563978297624484  1.0000
  N   N2        1.0  0.1265242858755622  0.46011940498739423  0.5122583509110883  1.0000
  C   C9        1.0  0.2780207373759732  0.44917863742771813  0.773970234291528  1.0000
  C   C10       1.0  0.3515194704460411  0.43151010070771423  0.8362707480232914  1.0000
  C   C11       1.0  0.41037325395299135  0.3911826775204719  0.7535498657266116  1.0000
  C   C12       1.0  0.4443917991989151  0.2284761942123148  0.42026572716622823  1.0000
  C   C13       1.0  0.5032452173682573  0.188063856098968  0.3376005725642224  1.0000
  C   C14       1.0  0.5769561640305993  0.24326448126576827  0.35217886800724424  1.0000
  H   H1        1.0  0.5452771398764807  0.45568399216816835  0.6068420834414519  1.0000
  H   H2        1.0  0.3100887339465382  0.37026574540413043  0.4318736769174784  1.0000
  H   H3        1.0  0.23289388012060971  0.48047947638072674  0.8392563940396929  1.0000
  H   H4        1.0  0.36288405061080814  0.44876954306434563  0.9490611523485255  1.0000
  H   H5        1.0  0.4666427000366597  0.3765282803601582  0.8047056602208138  1.0000
  H   H6        1.0  0.38794736289206116  0.18307489121731854  0.40844059434165564  1.0000
  H   H7        1.0  0.4917138484993403  0.11351362727032678  0.2623299418388827  1.0000
  H   H8        1.0  0.6220805286497589  0.2110978606581937  0.28745971158829975  1.0000
  C   C15       1.0  0.9277223091184449  0.07004873163091173  0.4941965073422599  1.0000
  C   C16       1.0  0.0043958982649992045  0.06967647760926708  0.5465060103204902  1.0000
  C   C17       1.0  0.04255007385856847  0.9524535117441965  0.5729931422784302  1.0000
  C   C18       1.0  0.0045947314523267025  0.8345108922011121  0.5466460926244225  1.0000
  C   C19       1.0  0.9278742505419403  0.8325904779224063  0.4943020818994007  1.0000
  C   C20       1.0  0.8898505098978963  0.9508978107467931  0.4684197465909743  1.0000
  S   S1        1.0  0.14051117111261846  0.9534971737944061  0.6391823242184818  1.0000
  C   C21       1.0  0.11443946661017869  0.9407570741613464  0.8215386779978946  1.0000
  N   N3        1.0  0.09732382276067497  0.9324042057993336  0.9410867439208557  1.0000
  H   H9        1.0  0.034770981112916224  0.16011477616864456  0.5671464673209856  1.0000
  H   H10       1.0  0.0351061058481872  0.7446740346468523  0.5673826429400064  1.0000
  H   H11       1.0  0.8307166251556599  0.950335376715407  0.42809677460644546  1.0000
  H   H12       1.0  0.7832896679969623  0.62176354986229  0.39549359944957735  1.0000
  C   C22       1.0  0.9295616270195138  0.4485588767127125  0.07109809970482872  1.0000
  C   C23       1.0  0.884975813423967  0.3536408243646578  0.14819451330466143  1.0000
  C   C24       1.0  0.8357512090328146  0.26861510630976415  0.07582511551715743  1.0000
  C   C25       1.0  0.8294719598856248  0.2771619220243633  0.9245590778043953  1.0000
  C   C26       1.0  0.875110003133999  0.36902250404480214  0.8462514278512705  1.0000
  C   C27       1.0  0.9260349353267567  0.4540803596649243  0.917400490327648  1.0000
  C   C28       1.0  0.7772170459493439  0.18416586241002883  0.8467292505899686  1.0000
  C   C29       1.0  0.8187233429177514  0.0673036019897455  0.8192625710266062  1.0000
  N   N4        1.0  0.8514870235504227  0.97507254946676  0.7975827177155246  1.0000
  H   H13       1.0  0.014102264978963946  0.7380515427784672  0.15823172905453187  1.0000
  H   H14       1.0  0.8869325101374972  0.34700315958742056  0.2653851085278993  1.0000
  H   H15       1.0  0.8018921398406336  0.19672954085356634  0.13799115922798344  1.0000
  H   H16       1.0  0.8721239116603323  0.3718527985061306  0.7290900881860263  1.0000
  H   H17       1.0  0.7553511291023192  0.2307386981881987  0.7419837105545841  1.0000
  H   H18       1.0  0.7269122402222087  0.1552627376766245  0.9123272820690712  1.0000
  Zn  Zn1       1.0  0.8437631458658938  0.4476021032408364  0.48663329851569076  1.0000
  Zn  Zn2       1.0  0.011826098214492663  0.4550361831654029  0.5018640021869036  1.0000
  C   C30       1.0  0.9266988307664035  0.4478641919342161  0.7574303766511739  1.0000
  C   C31       1.0  0.9288922482933102  0.45477581479451584  0.23106723202864465  1.0000
  C   C32       1.0  0.9278655314960536  0.6884162429231397  0.48853964339512485  1.0000
  C   C33       1.0  0.9277254895845065  0.21422220184814234  0.499958036695793  1.0000
  O   O1        1.0  0.9924466120979557  0.4596778062362983  0.2905343060558028  1.0000
  O   O2        1.0  0.9907003606156862  0.4486035129524981  0.7095226393561735  1.0000
  O   O3        1.0  0.9916416201944476  0.6428523080663546  0.49239139207442256  1.0000
  O   O4        1.0  0.9915052956227749  0.265429017168751  0.5076654400987182  1.0000
  O   O5        1.0  0.8640838911060058  0.637209266701966  0.4808318553988049  1.0000
  O   O6        1.0  0.8631426321547917  0.44296203101003623  0.6979630260643856  1.0000
  O   O7        1.0  0.8648888908984973  0.45403626774813177  0.27897296029658414  1.0000
  O   O8        1.0  0.8639475739681306  0.2597874700987526  0.4961042023732643  1.0000
