data_image0
_chemical_formula_structural       NC14NH8C12H10C6H6Zn2C4O8
_chemical_formula_sum              "N2 C36 H24 Zn2 O8"
_cell_length_a       19.240038476842887
_cell_length_b       13.024581838241813
_cell_length_c       10.681121600428288
_cell_angle_alpha    84.14087780974744
_cell_angle_beta     89.99987449929806
_cell_angle_gamma    93.73322191581578

_space_group_name_H-M_alt    "P 1"
_space_group_IT_number       1

loop_
  _space_group_symop_operation_xyz
  'x, y, z'

loop_
  _atom_site_type_symbol
  _atom_site_label
  _atom_site_symmetry_multiplicity
  _atom_site_fract_x
  _atom_site_fract_y
  _atom_site_fract_z
  _atom_site_occupancy
  N   N1        1.0  0.704235581990178  0.1288709608873941  0.5842403253057487  1.0000
  C   C1        1.0  0.644087301948382  0.12887305443466834  0.58423400622389  1.0000
  C   C2        1.0  0.5692694343308367  0.1288758200426303  0.5842260253175641  1.0000
  C   C3        1.0  0.5287102472598253  0.036208508510229935  0.5794467606566416  1.0000
  C   C4        1.0  0.45603553670061264  0.03611743465865303  0.5793884394035003  1.0000
  C   C5        1.0  0.4229372907218892  0.1288804477975678  0.584216327052532  1.0000
  C   C6        1.0  0.4642147486931346  0.22164158056192385  0.5890469709784383  1.0000
  C   C7        1.0  0.5368812244058843  0.2215458116510951  0.5889986256035387  1.0000
  C   C8        1.0  0.3457323650621649  0.1288819361331936  0.5842167709054664  1.0000
  C   C9        1.0  0.31126749561167594  0.1906412355524811  0.661894694578636  1.0000
  C   C10       1.0  0.2385925350586983  0.19054332379146463  0.661851949989927  1.0000
  C   C11       1.0  0.1993999006210024  0.1288781219668628  0.5842264250088265  1.0000
  C   C12       1.0  0.23315491522149887  0.0672159474658709  0.5065946308016376  1.0000
  C   C13       1.0  0.3058214773209089  0.06712213481036966  0.5065419424188187  1.0000
  C   C14       1.0  0.12458179658884472  0.1288743576425543  0.5842340181507542  1.0000
  N   N2        1.0  0.0644332926476541  0.12887138187765768  0.5842403450936862  1.0000
  H   H1        1.0  0.5532403259772204  0.9639720492659468  0.576087115754151  1.0000
  H   H2        1.0  0.4257318449356043  0.9632985040725438  0.5772711543320576  1.0000
  H   H3        1.0  0.4403318783270246  0.2944622318972272  0.591161264241739  1.0000
  H   H4        1.0  0.5677807835902124  0.2937803460392163  0.5923633635365757  1.0000
  H   H5        1.0  0.3404472316243872  0.23796184310907814  0.7239258982611505  1.0000
  H   H6        1.0  0.2129858709605566  0.2383587888223333  0.7225935121488289  1.0000
  H   H7        1.0  0.20333159487458038  0.01939809089912981  0.4458578877187389  1.0000
  H   H8        1.0  0.3308284664358542  0.01980232063398279  0.44450816012728783  1.0000
  C   C15       1.0  0.8709807206690869  0.825965253643819  0.5934866566726762  1.0000
  C   C16       1.0  0.8401053307438611  0.7634623597735046  0.5061397847440086  1.0000
  C   C17       1.0  0.8630861964970964  0.665170126423311  0.49496855241943405  1.0000
  C   C18       1.0  0.9169423855967255  0.6273401866428386  0.5714964543641965  1.0000
  C   C19       1.0  0.9483326032458793  0.6898816157320007  0.6577999200228813  1.0000
  C   C20       1.0  0.9254022323219309  0.7882051704802686  0.669052528296137  1.0000
  C   C21       1.0  0.9420825146526774  0.5239061261723303  0.5582870169039831  1.0000
  C   C22       1.0  0.011945032834639992  0.5182389344699332  0.522493047610306  1.0000
  C   C23       1.0  0.037542530173404254  0.42381425891625896  0.5008358953718655  1.0000
  C   C24       1.0  0.9937823269523233  0.33381351945003046  0.5143218621076773  1.0000
  C   C25       1.0  0.9244503636912077  0.3376045727606011  0.5510406541113337  1.0000
  C   C26       1.0  0.8976944489179037  0.43176916160940837  0.5750051144427788  1.0000
  H   H9        1.0  0.8616461167291123  0.06281285819821811  0.7015006310721793  1.0000
  H   H10       1.0  0.7982855018535165  0.7905472621224675  0.44620479232238963  1.0000
  H   H11       1.0  0.8389666271196805  0.6185190866399998  0.4264992925550742  1.0000
  H   H12       1.0  0.9903259413848626  0.662205972769547  0.7169561215639808  1.0000
  H   H13       1.0  0.9503579315043587  0.8345860330965909  0.7369024846565903  1.0000
  H   H14       1.0  0.046455722549734624  0.5876471813317362  0.5091095999438078  1.0000
  H   H15       1.0  0.09131838697123018  0.42057006643775957  0.4725926925430284  1.0000
  H   H16       1.0  0.013733797842432777  0.2606943977328574  0.49707797468281184  1.0000
  H   H17       1.0  0.8919979805788327  0.26612048945877154  0.562960632205272  1.0000
  H   H18       1.0  0.7272757032585704  0.34671286776366456  0.626953481428532  1.0000
  C   C27       1.0  0.884337592878434  0.1288671914085795  0.21650064389296086  1.0000
  C   C28       1.0  0.8320605745703635  0.07149937093297432  0.156828296618768  1.0000
  C   C29       1.0  0.8320605340927835  0.07149943707305373  0.025946154648099906  1.0000
  C   C30       1.0  0.8843375404696624  0.12886724197210528  0.9519910780267319  1.0000
  C   C31       1.0  0.936571402415321  0.1861875217049871  0.011664295296833993  1.0000
  C   C32       1.0  0.936571392817671  0.18618750571026332  0.14255659444783753  1.0000
  H   H19       1.0  0.9372035406269148  0.18688182081384377  0.5079885135106845  1.0000
  H   H20       1.0  0.7910833795598969  0.026531761919631903  0.2112369744373026  1.0000
  H   H21       1.0  0.7910833671853224  0.02653181047366557  0.9827329437305068  1.0000
  H   H22       1.0  0.9775539508830853  0.23116105629142503  0.957299772072411  1.0000
  H   H23       1.0  0.9775539142703025  0.23116102013183237  0.1857241406599517  1.0000
  H   H24       1.0  0.9372037417007723  0.1868814614382401  0.6460594987609314  1.0000
  Zn  Zn1       1.0  0.8081807359963337  0.1288683243213609  0.5842476459541015  1.0000
  Zn  Zn2       1.0  0.9604877436706897  0.12886558992908492  0.5842435360915348  1.0000
  C   C33       1.0  0.8841548149521032  0.1247579698789034  0.8130930165919933  1.0000
  C   C34       1.0  0.8845153852935755  0.13297724583099765  0.3553982486165126  1.0000
  C   C35       1.0  0.8926413975885117  0.31725932342174623  0.5735081978294521  1.0000
  C   C36       1.0  0.8760286960375238  0.9404746530038115  0.5949831719531788  1.0000
  O   O1        1.0  0.9423745712735838  0.13435107988392753  0.4020121312215281  1.0000
  O   O2        1.0  0.941893089338963  0.12338128233150436  0.7664756779448403  1.0000
  O   O3        1.0  0.9487453329774829  0.2788285598432765  0.5730092089924597  1.0000
  O   O4        1.0  0.9355222759883828  0.9789038097519329  0.5954785060540599  1.0000
  O   O5        1.0  0.8331461517037834  0.27883010450056894  0.5730126759863574  1.0000
  O   O6        1.0  0.8262939627100492  0.12338406627519703  0.7664790403593947  1.0000
  O   O7        1.0  0.8267754431059149  0.13435382788257838  0.40201398911009045  1.0000
  O   O8        1.0  0.8199231474925375  0.9789065503728622  0.5954804580572531  1.0000
