data_image0
_chemical_formula_structural       NC8NC6H8C6NH7C6H6Zn2C4O8
_chemical_formula_sum              "N3 C30 H21 Zn2 O8"
_cell_length_a       17.457602349358154
_cell_length_b       9.274771166103582
_cell_length_c       10.681121600428288
_cell_angle_alpha    85.45578074471726
_cell_angle_beta     92.87590736930572
_cell_angle_gamma    92.29117059398062

_space_group_name_H-M_alt    "P 1"
_space_group_IT_number       1

loop_
  _space_group_symop_operation_xyz
  'x, y, z'

loop_
  _atom_site_type_symbol
  _atom_site_label
  _atom_site_symmetry_multiplicity
  _atom_site_fract_x
  _atom_site_fract_y
  _atom_site_fract_z
  _atom_site_occupancy
  N   N1        1.0  0.7314004308809516  0.6141281893346291  0.6736964187707568  1.0000
  C   C1        1.0  0.670038778531285  0.5631044084596897  0.6635191358803638  1.0000
  C   C2        1.0  0.5937023352775221  0.49963717381611705  0.6508677896962973  1.0000
  C   C3        1.0  0.5354218184881155  0.544257598002112  0.723038171380642  1.0000
  C   C4        1.0  0.46053654430131197  0.48314379286441017  0.7109765825104536  1.0000
  C   C5        1.0  0.3986789889010868  0.5302563885403355  0.7874079188577612  1.0000
  C   C6        1.0  0.3242464223384048  0.5507752716088407  0.7336125833688747  1.0000
  C   C7        1.0  0.2659647664360148  0.5951913507776756  0.8058872995903517  1.0000
  C   C8        1.0  0.1900977875050101  0.6163833535267935  0.7499548628027947  1.0000
  N   N2        1.0  0.1291136135388795  0.6334146357696209  0.7049853375048947  1.0000
  C   C9        1.0  0.2816250164708119  0.6193586805809772  0.9324473900153796  1.0000
  C   C10       1.0  0.3552752821166533  0.5992719683487278  0.9866159761548754  1.0000
  C   C11       1.0  0.4135464454350334  0.5550559319424943  0.914782398268233  1.0000
  C   C12       1.0  0.4452162477820019  0.37665694078188355  0.6253637527991054  1.0000
  C   C13       1.0  0.5034867680582855  0.3323461345301079  0.5535787260782246  1.0000
  C   C14       1.0  0.5775879708089077  0.39358478984934053  0.5661704744517899  1.0000
  H   H1        1.0  0.5482303966778435  0.6277998053774908  0.7871917215916346  1.0000
  H   H2        1.0  0.3118089404170019  0.5341432459000184  0.635251940237175  1.0000
  H   H3        1.0  0.23695483215171323  0.6536698982595462  0.989141658556044  1.0000
  H   H4        1.0  0.3672086760403989  0.6176345859200867  0.08461468366172874  1.0000
  H   H5        1.0  0.4699394408251416  0.5383996304574321  0.9592611636634811  1.0000
  H   H6        1.0  0.3884515163479474  0.3262882927498961  0.6151508827566547  1.0000
  H   H7        1.0  0.4911988970527438  0.25004434047400914  0.4882682214369031  1.0000
  H   H8        1.0  0.6222528261439907  0.3583073196475264  0.5099701939574885  1.0000
  C   C15       1.0  0.9279046247190708  0.2000607704702284  0.689838394638771  1.0000
  C   C16       1.0  0.9102453571037572  0.2825131582340536  0.5764612896391457  1.0000
  C   C17       1.0  0.899751206544231  0.21695486886409363  0.46293736507158884  1.0000
  C   C18       1.0  0.9069565561159759  0.06756866967716181  0.4619774261599974  1.0000
  C   C19       1.0  0.92319673266886  0.9837280373316666  0.5737045031946792  1.0000
  C   C20       1.0  0.9326167029645974  0.04747131329897969  0.6888548085611481  1.0000
  N   N3        1.0  0.8825634378263247  0.30252961905095005  0.3483665428989453  1.0000
  H   H9        1.0  0.014271296328008496  0.2839093087108495  0.9707016730760732  1.0000
  H   H10       1.0  0.9063759266958773  0.3989182248929051  0.575675831110259  1.0000
  H   H11       1.0  0.8992455828527272  0.015707510537339875  0.3746607946819451  1.0000
  H   H12       1.0  0.926578759996396  0.8677280273676071  0.5703840566245624  1.0000
  H   H13       1.0  0.9876777068374287  0.7530751027456002  0.8796502814099354  1.0000
  H   H14       1.0  0.8772760032390591  0.41434711520697154  0.3479098951421453  1.0000
  H   H15       1.0  0.8749247104049941  0.2546891712227195  0.2631150606600889  1.0000
  C   C21       1.0  0.9302606748823462  0.6237660042466024  0.32160136135864237  1.0000
  C   C22       1.0  0.8748858391694658  0.5408551739760987  0.25595066634007746  1.0000
  C   C23       1.0  0.8748857917701972  0.5408552641707309  0.1250685225103232  1.0000
  C   C24       1.0  0.930260614946472  0.6237660720503959  0.05709179220666738  1.0000
  C   C25       1.0  0.9855897443848152  0.7066082029408562  0.12273841734883617  1.0000
  C   C26       1.0  0.9855897344419037  0.7066081800910031  0.25363071526541003  1.0000
  H   H16       1.0  0.9862593170235863  0.7076116091838829  0.6191349413530753  1.0000
  H   H17       1.0  0.8314804287449468  0.4758657468113565  0.3056732328784384  1.0000
  H   H18       1.0  0.8314804130951426  0.47586581395250044  0.07716920231315694  1.0000
  H   H19       1.0  0.02900082342252075  0.7716061915607845  0.07306061889307802  1.0000
  H   H20       1.0  0.029000784475743172  0.7716061391050705  0.3014849833942965  1.0000
  H   H21       1.0  0.9862595537421528  0.707611118096619  0.7572059350661986  1.0000
  Zn  Zn1       1.0  0.8461718428345482  0.6196899717927813  0.6827329599306942  1.0000
  Zn  Zn2       1.0  0.014342121553579503  0.6278410233067306  0.695959062776766  1.0000
  C   C27       1.0  0.9302269718956533  0.618017859335324  0.9180749069265706  1.0000
  C   C28       1.0  0.9302888390299334  0.6295150453224614  0.46061738100930943  1.0000
  C   C29       1.0  0.9317220606407545  0.8872924593942886  0.6840500958108648  1.0000
  C   C30       1.0  0.9287936832606527  0.3602387089453094  0.6946422563892463  1.0000
  O   O1        1.0  0.9941180005197846  0.6345314628093511  0.5122916715393038  1.0000
  O   O2        1.0  0.9940351547055505  0.6191868128477913  0.8764385631979195  1.0000
  O   O3        1.0  0.9952415974544578  0.8366294161386637  0.6874618030535067  1.0000
  O   O4        1.0  0.9929115004431512  0.4170888670587509  0.7012683332624221  1.0000
  O   O5        1.0  0.8676024065567227  0.830442125260778  0.6774236849250295  1.0000
  O   O6        1.0  0.8663959734437411  0.6130012555081099  0.8664003762852025  1.0000
  O   O7        1.0  0.8664788190294965  0.6283458551915122  0.502251979066384  1.0000
  O   O8        1.0  0.8652723188923349  0.41090324912065673  0.6912287346907884  1.0000
