data_image0
_chemical_formula_structural       NC5NC3H4C6NH7C10H6Zn2C4O8
_chemical_formula_sum              "N3 C28 H17 Zn2 O8"
_cell_length_a       13.859018345313864
_cell_length_b       9.274771166103582
_cell_length_c       9.275153671780862
_cell_angle_alpha    85.60840141486051
_cell_angle_beta     89.40940085297899
_cell_angle_gamma    90.59704768766964

_space_group_name_H-M_alt    "P 1"
_space_group_IT_number       1

loop_
  _space_group_symop_operation_xyz
  'x, y, z'

loop_
  _atom_site_type_symbol
  _atom_site_label
  _atom_site_symmetry_multiplicity
  _atom_site_fract_x
  _atom_site_fract_y
  _atom_site_fract_z
  _atom_site_occupancy
  N   N1        1.0  0.930562244565247  0.5745806080718532  0.40661981303618133  1.0000
  C   C1        1.0  0.8575786414490609  0.5351600155418328  0.4579618350938868  1.0000
  C   C2        1.0  0.7667913716384106  0.48612607862467305  0.521824481133597  1.0000
  C   C3        1.0  0.6799390416155969  0.5339284251386942  0.4595662216904943  1.0000
  C   C4        1.0  0.5915610660026418  0.4861257877855434  0.5218243560760724  1.0000
  C   C5        1.0  0.5023387617064154  0.5351599025774108  0.4579617379580825  1.0000
  N   N2        1.0  0.4306133422459578  0.5745805739881775  0.4066197440508253  1.0000
  C   C6        1.0  0.5902176729062053  0.39050666658530947  0.6463593770093092  1.0000
  C   C7        1.0  0.6768903976313325  0.3428883331448547  0.7083780516227003  1.0000
  C   C8        1.0  0.7650830171201933  0.39050696234248816  0.646359580188195  1.0000
  H   H1        1.0  0.6811200708142294  0.6079402330223147  0.36317276572076596  1.0000
  H   H2        1.0  0.5223217788864056  0.35288132932359995  0.6953624586109521  1.0000
  H   H3        1.0  0.6757117020303931  0.26902678310979117  0.8045760030650511  1.0000
  H   H4        1.0  0.8317780413292984  0.35288186050283166  0.6953628830762228  1.0000
  C   C9        1.0  0.1776246772795771  0.15098603091299645  0.40740573551731407  1.0000
  C   C10       1.0  0.15630841123092787  0.2339646489352598  0.27846120999410484  1.0000
  C   C11       1.0  0.14400658818682355  0.16858303390039578  0.1486985867439541  1.0000
  C   C12       1.0  0.15307808163849532  0.01884292145024791  0.14694060620415583  1.0000
  C   C13       1.0  0.17262228692967205  0.9345403404917706  0.27411381104718613  1.0000
  C   C14       1.0  0.18355997481983022  0.9981640763836295  0.4058463785871192  1.0000
  N   N3        1.0  0.12329289394600429  0.2546575214192135  0.018336886113474504  1.0000
  H   H5        1.0  0.2840440739125658  0.2314542764957159  0.7229726558559522  1.0000
  H   H6        1.0  0.15144712516215875  0.35055593964135023  0.2779073304979385  1.0000
  H   H7        1.0  0.14406974822661045  0.9671000817414059  0.04710135936692117  1.0000
  H   H8        1.0  0.17690297091048834  0.8183657515854692  0.26998423803992555  1.0000
  H   H9        1.0  0.25131214289316706  0.7016474430761371  0.6205436167624798  1.0000
  H   H10       1.0  0.11664524075343952  0.3667313037287707  0.01829005346932555  1.0000
  H   H11       1.0  0.11435908416523152  0.2069379606696402  0.9208689401885342  1.0000
  C   C15       1.0  0.18350510451933433  0.5734909391065754  0.9831984133601712  1.0000
  C   C16       1.0  0.2097677097133781  0.7009720554596778  0.04670746415889937  1.0000
  C   C17       1.0  0.2270246090266443  0.8298109154045653  0.9614779185270073  1.0000
  C   C18       1.0  0.21813056031823394  0.8327733781657336  0.8115319463673876  1.0000
  C   C19       1.0  0.19374374803876201  0.7069011802073064  0.7464015311031544  1.0000
  C   C20       1.0  0.17767955970880517  0.5756591088036311  0.8300536997353305  1.0000
  C   C21       1.0  0.25279351846084275  0.9596649310237384  0.028347962900088456  1.0000
  C   C22       1.0  0.2743696351390523  0.0683808567997981  0.08435953805119256  1.0000
  C   C23       1.0  0.299634200087201  0.19568241782906126  0.14995468329546813  1.0000
  C   C24       1.0  0.3212061489193695  0.30437755768623287  0.20596364559828517  1.0000
  H   H12       1.0  0.18626027497995934  0.33457582553692805  0.2821746367821918  1.0000
  H   H13       1.0  0.21463535364021294  0.7010450876156502  0.1633227217428841  1.0000
  H   H14       1.0  0.23099205717958513  0.9322239420011242  0.7446422148888687  1.0000
  H   H15       1.0  0.1896724184147387  0.7114176074992764  0.6295615412545859  1.0000
  H   H16       1.0  0.18728911932061765  0.2209081384137608  0.7542078621707611  1.0000
  H   H17       1.0  0.34014808290552845  0.3998208024351029  0.25514441578329095  1.0000
  Zn  Zn1       1.0  0.07486610360984235  0.574576747690903  0.40662813623369287  1.0000
  Zn  Zn2       1.0  0.28630929526323157  0.5745726262354904  0.4066232856324286  1.0000
  C   C25       1.0  0.17873827720707713  0.5695027810305067  0.6699904704774662  1.0000
  C   C26       1.0  0.18243944239669152  0.5796484132627715  0.1432610895094524  1.0000
  C   C27       1.0  0.18247262558863478  0.8380146504589812  0.400395197480226  1.0000
  C   C28       1.0  0.17870500919379406  0.3111348109713332  0.41285644257287757  1.0000
  O   O1        1.0  0.26232334165156357  0.5817070607087202  0.19697775662139128  1.0000
  O   O2        1.0  0.2593348631861758  0.567439916233976  0.6162697087993346  1.0000
  O   O3        1.0  0.26234930472274165  0.7842666504532665  0.3985696156868086  1.0000
  O   O4        1.0  0.25930882877977224  0.3648803365328819  0.4146777416030878  1.0000
  O   O5        1.0  0.10186649793818114  0.7842690373964691  0.3985736802571014  1.0000
  O   O6        1.0  0.09885206906783425  0.5674440360430998  0.6162736932975099  1.0000
  O   O7        1.0  0.10184055917075693  0.5817111258125773  0.1969800076146111  1.0000
  O   O8        1.0  0.09882604547906988  0.3648843915962441  0.41468010072120565  1.0000
