data_image0
_chemical_formula_structural       NC8NH4C6ClH5C6SCH6Zn2C4O8
_chemical_formula_sum              "N2 C25 H15 Cl1 S1 Zn2 O8"
_cell_length_a       13.859017981522156
_cell_length_b       9.276545438789551
_cell_length_c       9.275274088470228
_cell_angle_alpha    86.1334652357246
_cell_angle_beta     89.72577744646335
_cell_angle_gamma    89.4096370293992

_space_group_name_H-M_alt    "P 1"
_space_group_IT_number       1

loop_
  _space_group_symop_operation_xyz
  'x, y, z'

loop_
  _atom_site_type_symbol
  _atom_site_label
  _atom_site_symmetry_multiplicity
  _atom_site_fract_x
  _atom_site_fract_y
  _atom_site_fract_z
  _atom_site_occupancy
  N   N1        1.0  0.9028989073426403  0.5629756139073394  0.41129198798353483  1.0000
  C   C1        1.0  0.8307931855101061  0.5553638402259882  0.349988121155856  1.0000
  C   C2        1.0  0.7410979073524532  0.5458961617013245  0.2737340879734136  1.0000
  C   C3        1.0  0.7415190797696959  0.5274332871881111  0.12503498212264397  1.0000
  C   C4        1.0  0.6543870448906104  0.5182398029320185  0.05098251639932561  1.0000
  C   C5        1.0  0.5666537927479068  0.5274350070101437  0.12503473489166517  1.0000
  C   C6        1.0  0.5658676643492411  0.5458971331262865  0.27373390479701376  1.0000
  C   C7        1.0  0.6531810787278419  0.555126519766534  0.3480723122386211  1.0000
  C   C8        1.0  0.4755533632940082  0.5553647416082321  0.34998788131651337  1.0000
  N   N2        1.0  0.402949989820318  0.5629759264705816  0.4112918945851549  1.0000
  H   H1        1.0  0.8090520847267482  0.5201680192398361  0.0665234523642455  1.0000
  H   H2        1.0  0.6548532884412025  0.5039782856678943  0.9361188555853271  1.0000
  H   H3        1.0  0.4995957950020066  0.5201711126790063  0.06652303432491902  1.0000
  H   H4        1.0  0.6527138809024694  0.569416806335332  0.4631694983556851  1.0000
  C   C9        1.0  0.15584193970792162  0.13953838743278935  0.4110543712909642  1.0000
  C   C10       1.0  0.15663267973539566  0.22192697251106974  0.2780382240045882  1.0000
  C   C11       1.0  0.14863570840481422  0.15561217850080356  0.14791719855817842  1.0000
  C   C12       1.0  0.1396551775178112  0.0060295104447114466  0.14881044036425647  1.0000
  C   C13       1.0  0.14036090102231533  0.9220793308157188  0.2793850743006916  1.0000
  C   C14       1.0  0.15001625742170502  0.986402240504294  0.41154197194962955  1.0000
  Cl  Cl1       1.0  0.1484144121169435  0.26067154151861294  0.9833912072985588  1.0000
  H   H5        1.0  0.20446557021359757  0.40464858467469894  0.6376285122931216  1.0000
  H   H6        1.0  0.16116301269644318  0.3386204518617848  0.27518497555149235  1.0000
  H   H7        1.0  0.13304626375174644  0.9543521299706608  0.04814104543632669  1.0000
  H   H8        1.0  0.13565213635119422  0.8057937023441899  0.2767350681120162  1.0000
  H   H9        1.0  0.11692538252996387  0.6898791307962466  0.6445765453006727  1.0000
  C   C15       1.0  0.1543116952663091  0.5589523016770324  0.9880989375274013  1.0000
  C   C16       1.0  0.23613167013061487  0.6097075913073631  0.05747648730245247  1.0000
  C   C17       1.0  0.3125134772430829  0.6719508165231016  0.9774482433872506  1.0000
  C   C18       1.0  0.3083557986117722  0.6835770441169005  0.8268948121483718  1.0000
  C   C19       1.0  0.22860520415874766  0.6317302707014966  0.7560137214915161  1.0000
  C   C20       1.0  0.15154648270427606  0.5669883127174917  0.834497388820632  1.0000
  S   S1        1.0  0.41569364500691164  0.7373280315810999  0.06817421625608922  1.0000
  C   C21       1.0  0.36485677277221323  0.9178125364133233  0.08001030695487699  1.0000
  H   H10       1.0  0.921065861445614  0.4996216873691733  0.0967695363256551  1.0000
  H   H11       1.0  0.36731309753648184  0.731890250370985  0.7644247438540503  1.0000
  H   H12       1.0  0.22827029083189573  0.6392009877993394  0.6389585594234943  1.0000
  H   H13       1.0  0.35071720293384345  0.9682034426043314  0.9700772314820978  1.0000
  H   H14       1.0  0.2966789706338244  0.9123959400272291  0.14337276947532818  1.0000
  H   H15       1.0  0.4171059448044871  0.985091859861554  0.13504835311850627  1.0000
  Zn  Zn1       1.0  0.04720285335182761  0.5629719325813531  0.41130027723102475  1.0000
  Zn  Zn2       1.0  0.25864608892437135  0.5629679548108935  0.4112953898917997  1.0000
  C   C22       1.0  0.15210652632479893  0.5597249290324149  0.6745066533104609  1.0000
  C   C23       1.0  0.1537447119270876  0.5662167790338863  0.14808915625407426  1.0000
  C   C24       1.0  0.15113121205148408  0.8262723883923728  0.4057069858257287  1.0000
  C   C25       1.0  0.15471996571615976  0.2996675879863182  0.41688889957606645  1.0000
  O   O1        1.0  0.23379607636794522  0.5686470037281905  0.20178147684574887  1.0000
  O   O2        1.0  0.23253569405850882  0.5572905935686447  0.6208102078638904  1.0000
  O   O3        1.0  0.23174702885739826  0.7725310522020854  0.4037525754559679  1.0000
  O   O4        1.0  0.23458466969986444  0.35340655438521584  0.4188390012061052  1.0000
  O   O5        1.0  0.07126420042114945  0.7725333330098858  0.40375666591080783  1.0000
  O   O6        1.0  0.07205285395131789  0.5572946060669104  0.620814222475558  1.0000
  O   O7        1.0  0.0733132423312677  0.5686509495278735  0.2017837587661242  1.0000
  O   O8        1.0  0.07410183537719339  0.3534104908972881  0.41884139116813524  1.0000
