data_image0
_chemical_formula_structural       NC14NH8C12H9C12H9Zn2C4O8
_chemical_formula_sum              "N2 C42 H26 Zn2 O8"
_cell_length_a       17.45760127107867
_cell_length_b       14.388199552941785
_cell_length_c       14.388129018870245
_cell_angle_alpha    82.87086475722218
_cell_angle_beta     87.6665703364548
_cell_angle_gamma    92.14570548014439

_space_group_name_H-M_alt    "P 1"
_space_group_IT_number       1

loop_
  _space_group_symop_operation_xyz
  'x, y, z'

loop_
  _atom_site_type_symbol
  _atom_site_label
  _atom_site_symmetry_multiplicity
  _atom_site_fract_x
  _atom_site_fract_y
  _atom_site_fract_z
  _atom_site_occupancy
  N   N1        1.0  0.7452794274676657  0.06266886239245738  0.9123208703172592  1.0000
  C   C1        1.0  0.6836420870947582  0.03686370665426409  0.9384110430475276  1.0000
  C   C2        1.0  0.6069626801768465  0.004762865147735198  0.9708589781948828  1.0000
  C   C3        1.0  0.5477214682247715  0.0076127435060793286  0.9078451604178859  1.0000
  C   C4        1.0  0.472503614151445  0.9766649677301894  0.9390131666700409  1.0000
  C   C5        1.0  0.4578306456295678  0.9428699375377954  0.03436200147155022  1.0000
  C   C6        1.0  0.5170574693126075  0.9400757126951085  0.09701210079873697  1.0000
  C   C7        1.0  0.5914823647946584  0.9709292776003031  0.0654590647890838  1.0000
  C   C8        1.0  0.40962733053050027  0.9796022821106696  0.8723336487467883  1.0000
  C   C9        1.0  0.3364051076102598  0.00801907524906232  0.8986201322202076  1.0000
  C   C10       1.0  0.27715895965489507  0.010720564878822038  0.8356183903488652  1.0000
  C   C11       1.0  0.29063746745063246  0.9850059192821213  0.7459150834307609  1.0000
  C   C12       1.0  0.3630741258972546  0.9567180634671699  0.7192253934649702  1.0000
  C   C13       1.0  0.4223032682871183  0.9539927663933911  0.7818698245223343  1.0000
  C   C14       1.0  0.20254911535466494  0.0401854969158222  0.8630036646912287  1.0000
  N   N2        1.0  0.14257560416827378  0.06387130028371879  0.885024168260061  1.0000
  H   H1        1.0  0.5600792714271777  0.03506474334032709  0.8349549165727777  1.0000
  H   H2        1.0  0.4007969740446385  0.9174481332918645  0.06022285709193175  1.0000
  H   H3        1.0  0.5052536501812954  0.9136888532363705  0.17016022364909184  1.0000
  H   H4        1.0  0.6368904236141004  0.9684085894268005  0.11473317861528338  1.0000
  H   H5        1.0  0.325683001986742  0.029225217479085283  0.9675091017926278  1.0000
  H   H6        1.0  0.2452057192702719  0.9868241092283028  0.6966987250478327  1.0000
  H   H7        1.0  0.3733148716212659  0.9366073931176997  0.6499008109820587  1.0000
  H   H8        1.0  0.47769837292454415  0.9306728909647757  0.7600169712912104  1.0000
  C   C15       1.0  0.9344721869800676  0.7897854660240604  0.9011064510770157  1.0000
  C   C16       1.0  0.8579556388871405  0.8102471375820687  0.9214179403138069  1.0000
  C   C17       1.0  0.8010877013314821  0.7385032048069312  0.9366499150584577  1.0000
  C   C18       1.0  0.8197116052793921  0.645672633734954  0.9318268161916546  1.0000
  C   C19       1.0  0.8958051635555265  0.6234222399531097  0.9115468530783355  1.0000
  C   C20       1.0  0.952874717582505  0.6961087384534299  0.8963065649798349  1.0000
  C   C21       1.0  0.9156440413380774  0.5246530719252858  0.9062871458840345  1.0000
  C   C22       1.0  0.8828462979828403  0.4518322860051035  0.9716105377931658  1.0000
  C   C23       1.0  0.9015354383240035  0.35889895513878206  0.9666856497002856  1.0000
  C   C24       1.0  0.9533900244570722  0.3367472634021885  0.8962461814708074  1.0000
  C   C25       1.0  0.9861481563026628  0.40945877651891577  0.8309033986793897  1.0000
  C   C26       1.0  0.9675039981460525  0.5024023099976827  0.8358768090098173  1.0000
  H   H9        1.0  0.11254325047977165  0.8961929994441712  0.8538602548620864  1.0000
  H   H10       1.0  0.7422754843068073  0.7549512897717483  0.9520083260492181  1.0000
  H   H11       1.0  0.7744221443218776  0.5914153933222535  0.9427250793224129  1.0000
  H   H12       1.0  0.011824462484012045  0.6794109091411645  0.8819669711261691  1.0000
  H   H13       1.0  0.8434502791775828  0.46685844916479247  0.027364776186390993  1.0000
  H   H14       1.0  0.8754794970597926  0.30443743523703387  0.018236813333213586  1.0000
  H   H15       1.0  0.03883899298059502  0.1501919359974654  0.8163199100046407  1.0000
  H   H16       1.0  0.026111400313959334  0.3946331988857585  0.7756465523681881  1.0000
  H   H17       1.0  0.9929298881136599  0.5567935618583977  0.783784210546205  1.0000
  C   C27       1.0  0.9407804014901195  0.0742513615154789  0.6247215571778522  1.0000
  C   C28       1.0  0.9154383549161591  0.1625146375890778  0.6414264119180566  1.0000
  C   C29       1.0  0.8966796086199927  0.22812232481219266  0.5669017790220329  1.0000
  C   C30       1.0  0.9029124401221608  0.20664013866653372  0.474996814318849  1.0000
  C   C31       1.0  0.9280561749153038  0.11882167840296119  0.45648076309229757  1.0000
  C   C32       1.0  0.934609124567368  0.09587531650932246  0.3586945273293525  1.0000
  C   C33       1.0  0.9643763398137748  0.16305890413935065  0.2856061559554738  1.0000
  C   C34       1.0  0.9705767575331393  0.14147200146837102  0.19359114263921154  1.0000
  C   C35       1.0  0.9470817673306142  0.05228134623538062  0.17263110363259537  1.0000
  C   C36       1.0  0.9172576448474572  0.9850639307853556  0.2456327013339778  1.0000
  C   C37       1.0  0.9111158684499014  0.006628685059771682  0.3376544429424096  1.0000
  C   C38       1.0  0.9469139036578512  0.05300526243495418  0.5319587996642452  1.0000
  H   H18       1.0  0.9998144076994658  0.8689644933271901  0.7398580720559301  1.0000
  H   H19       1.0  0.9100890647807767  0.18090635105846897  0.712064508748806  1.0000
  H   H20       1.0  0.8770193506365502  0.29583232320884867  0.5804563122403857  1.0000
  H   H21       1.0  0.8870890373745031  0.25825192978990263  0.41849567677836963  1.0000
  H   H22       1.0  0.983849271424268  0.232031310681398  0.29977304602748167  1.0000
  H   H23       1.0  0.993979552828357  0.19468735626286324  0.13894306703046877  1.0000
  H   H24       1.0  0.8984434132670518  0.9157743342466819  0.23167524567765663  1.0000
  H   H25       1.0  0.8869967292308993  0.9537871144143146  0.3922138767036624  1.0000
  H   H26       1.0  0.9673770106231055  0.985684491636526  0.5181862910012008  1.0000
  Zn  Zn1       1.0  0.8599304951697478  0.06301315294938627  0.9044490309033824  1.0000
  Zn  Zn2       1.0  0.027924337597039713  0.0635190904428713  0.8929036821654766  1.0000
  C   C39       1.0  0.945760660849152  0.05272402486372174  0.06909753038772548  1.0000
  C   C40       1.0  0.9420960481006657  0.07380939545657464  0.7282551377296324  1.0000
  C   C41       1.0  0.9497674349827775  0.23350886853024316  0.8934475850383543  1.0000
  C   C42       1.0  0.9380891785145606  0.893023430710381  0.9039051466984922  1.0000
  O   O1        1.0  0.006290238289136771  0.07384900527718853  0.7586205895801461  1.0000
  O   O2        1.0  0.0090698825616331  0.053067718091018845  0.029969163678602473  1.0000
  O   O3        1.0  0.012304555085264969  0.19905372420328174  0.8881306405159377  1.0000
  O   O4        1.0  0.0030555078665448444  0.9278630084592148  0.9004590466745723  1.0000
  O   O5        1.0  0.8847992675721676  0.198669234761601  0.8968936703292316  1.0000
  O   O6        1.0  0.8815646331729402  0.05268434955756951  0.03873213380735196  1.0000
  O   O7        1.0  0.8787849749293767  0.07346564926511266  0.7673824383681414  1.0000
  O   O8        1.0  0.8755502450776697  0.9274796429814083  0.9092209654657502  1.0000
