data_image0
_chemical_formula_structural       NC9NC4H8C6NCOCH7C6OCH7Zn2C4O8
_chemical_formula_sum              "N3 C32 H22 O10 Zn2"
_cell_length_a       16.32274767691083
_cell_length_b       10.300268703208216
_cell_length_c       9.273891588657152
_cell_angle_alpha    86.07587478402297
_cell_angle_beta     89.15205086511824
_cell_angle_gamma    89.50441699892957

_space_group_name_H-M_alt    "P 1"
_space_group_IT_number       1

loop_
  _space_group_symop_operation_xyz
  'x, y, z'

loop_
  _atom_site_type_symbol
  _atom_site_label
  _atom_site_symmetry_multiplicity
  _atom_site_fract_x
  _atom_site_fract_y
  _atom_site_fract_z
  _atom_site_occupancy
  N   N1        1.0  0.7762540664894801  0.3988416850692122  0.39821460189231894  1.0000
  C   C1        1.0  0.7241288132280205  0.3509120370028731  0.3379528985263096  1.0000
  C   C2        1.0  0.6593363620409403  0.2913830408484279  0.26310738107488635  1.0000
  C   C3        1.0  0.6712463847921198  0.2099579580358837  0.1607272681004419  1.0000
  C   C4        1.0  0.5920551087297558  0.17022211802125506  0.11076917632631766  1.0000
  C   C5        1.0  0.5328669233881249  0.22837467183302776  0.18389001172955277  1.0000
  C   C6        1.0  0.4429968612321489  0.21300550657302186  0.16456874847526448  1.0000
  C   C7        1.0  0.3871035626541955  0.280785996606709  0.2497875982385891  1.0000
  C   C8        1.0  0.3024526722286246  0.26765076695733425  0.23327442225172312  1.0000
  C   C9        1.0  0.24613830900884728  0.33751494694739304  0.32111220422775544  1.0000
  N   N2        1.0  0.2008805541954898  0.3936742477822588  0.3917189039069926  1.0000
  C   C10       1.0  0.2726425208080878  0.18662543108611754  0.13140526759982876  1.0000
  C   C11       1.0  0.3272135058991009  0.11893472436102191  0.04629967523643819  1.0000
  C   C12       1.0  0.41170715296335725  0.13171615021485805  0.06236788876426625  1.0000
  C   C13       1.0  0.5702489191421288  0.3131674612119209  0.2905016457743377  1.0000
  H   H1        1.0  0.730292858926641  0.17829556249229417  0.12091396395027855  1.0000
  H   H2        1.0  0.5840518881863879  0.10367349764481282  0.027093832553255703  1.0000
  H   H3        1.0  0.4089383984335271  0.34403993167129965  0.32931376521021216  1.0000
  H   H4        1.0  0.2072982484823377  0.17580472506573905  0.11780208505051616  1.0000
  H   H5        1.0  0.3039801066158794  0.056254074578172546  0.9674945551466687  1.0000
  H   H6        1.0  0.45172605025546303  0.07756794564922176  0.9942893308101369  1.0000
  H   H7        1.0  0.5531234480483812  0.279346180188879  0.4031623603803645  1.0000
  H   H8        1.0  0.5535244439014604  0.417024507256806  0.26590070383622333  1.0000
  C   C14       1.0  0.9886544499851039  0.014909310488561813  0.39497394036962524  1.0000
  C   C15       1.0  0.0029430553629752345  0.022904225189337664  0.24492420335274437  1.0000
  C   C16       1.0  0.01125980855954589  0.9096213966024909  0.16960485929492447  1.0000
  C   C17       1.0  0.002757585696241403  0.787747255539139  0.2449629988937341  1.0000
  C   C18       1.0  0.9884879706767833  0.7775966195660122  0.39497190191365056  1.0000
  C   C19       1.0  0.981819908215812  0.891770002031415  0.46926827355104456  1.0000
  N   N3        1.0  0.0246142387387267  0.9162290962919495  0.015637646233612086  1.0000
  C   C20       1.0  0.07296076187139189  0.014119186499188967  0.9374489385785966  1.0000
  O   O1        1.0  0.11901379668945489  0.08709492992140522  0.003304276260893911  1.0000
  C   C21       1.0  0.07350697094595127  0.02368671377997522  0.7759754090569655  1.0000
  H   H9        1.0  0.005982594068554948  0.1172400848184272  0.1862403785023652  1.0000
  H   H10       1.0  0.008030984281347298  0.7008415002286306  0.1858813392020138  1.0000
  H   H11       1.0  0.9708218441811192  0.8847942280255396  0.5850030766991161  1.0000
  H   H12       1.0  0.0022295404051622105  0.8406069578533464  0.9580658384258818  1.0000
  H   H13       1.0  0.010927431691794446  0.0070812141017726525  0.7360680908904786  1.0000
  H   H14       1.0  0.09395360563531474  0.12175636659414968  0.7336337255626404  1.0000
  H   H15       1.0  0.11592376907822843  0.9491226570152124  0.7356489997940834  1.0000
  C   C22       1.0  0.9899142433667959  0.3927973186298721  0.9716770725943142  1.0000
  C   C23       1.0  0.057001839601743515  0.44683137824339997  0.03922417830341573  1.0000
  C   C24       1.0  0.11943972846021045  0.5106190502483274  0.9584589083916082  1.0000
  C   C25       1.0  0.11501327131127968  0.5206953467309201  0.8070859488216043  1.0000
  C   C26       1.0  0.04964722755357687  0.4658540266474789  0.738170314655469  1.0000
  C   C27       1.0  0.9872281729002587  0.399708541393363  0.8182687619586049  1.0000
  O   O2        1.0  0.18429005539537546  0.5630814453885411  0.032673155826288935  1.0000
  C   C28       1.0  0.25174681722104775  0.6306040630683405  0.9645644620561608  1.0000
  H   H16       1.0  0.7950419522013679  0.31540871888735356  0.08567582917707561  1.0000
  H   H17       1.0  0.16220148788178368  0.5697097929844446  0.74144165876546  1.0000
  H   H18       1.0  0.048984645890417705  0.4725549666930088  0.6210992341710362  1.0000
  H   H19       1.0  0.8572754504925468  0.3424429093882084  0.5448144053024301  1.0000
  H   H20       1.0  0.22973372056724517  0.7187502814936444  0.9005051003884024  1.0000
  H   H21       1.0  0.28592450142896864  0.565738107760934  0.893629350860103  1.0000
  H   H22       1.0  0.2936819927189571  0.6611339757290207  0.048766321859435656  1.0000
  Zn  Zn1       1.0  0.8987920789604406  0.39734705685716465  0.396348408300514  1.0000
  Zn  Zn2       1.0  0.078342512756026  0.39515831599295703  0.3935969063573964  1.0000
  C   C29       1.0  0.9877352126519937  0.3932288294215269  0.6582448648545836  1.0000
  C   C30       1.0  0.9894013389431131  0.3992781592150472  0.13170056123252372  1.0000
  C   C31       1.0  0.9885334575621139  0.6333856232305366  0.38922824416839047  1.0000
  C   C32       1.0  0.988603032861685  0.15911980656067737  0.4007172597123395  1.0000
  O   O3        1.0  0.05736765866010838  0.40061690732727057  0.18436172521931815  1.0000
  O   O4        1.0  0.05604351920196971  0.390227894579515  0.603494959615057  1.0000
  O   O5        1.0  0.05668718876763524  0.584157566210558  0.3862621491464093  1.0000
  O   O6        1.0  0.05672392816692873  0.20668724485049975  0.4015944285469975  1.0000
  O   O7        1.0  0.9204106022778105  0.5858181287478836  0.3883508870422834  1.0000
  O   O8        1.0  0.9197669326117254  0.3918900167104631  0.6055836206486803  1.0000
  O   O9        1.0  0.9210910776328526  0.4022789700559337  0.18644865319424864  1.0000
  O   O10       1.0  0.9204473467954599  0.2083492991731528  0.4036814645942677  1.0000
