data_image0
_chemical_formula_structural       NC10NC5H10C12SCH12C13NH9Zn2C4O8
_chemical_formula_sum              "N3 C45 H31 S1 Zn2 O8"
_cell_length_a       19.4436361288709
_cell_length_b       10.299776766347529
_cell_length_c       10.298528502251457
_cell_angle_alpha    85.54283687761513
_cell_angle_beta     89.70161212865115
_cell_angle_gamma    89.39962546058797

_space_group_name_H-M_alt    "P 1"
_space_group_IT_number       1

loop_
  _space_group_symop_operation_xyz
  'x, y, z'

loop_
  _atom_site_type_symbol
  _atom_site_label
  _atom_site_symmetry_multiplicity
  _atom_site_fract_x
  _atom_site_fract_y
  _atom_site_fract_z
  _atom_site_occupancy
  N   N1        1.0  0.6474403159547116  0.4097863001837745  0.5619785393345325  1.0000
  C   C1        1.0  0.5886031550884953  0.41968063138208844  0.5763648383571314  1.0000
  C   C2        1.0  0.5152723446291373  0.43202016097509954  0.594360060977915  1.0000
  C   C3        1.0  0.4730909175056558  0.400072689104948  0.49967264341425316  1.0000
  C   C4        1.0  0.3971846047863306  0.41050809574010644  0.5050019137790629  1.0000
  C   C5        1.0  0.3574530650244735  0.38570497954799343  0.6120868415706275  1.0000
  C   C6        1.0  0.2813314218219298  0.3896282711435719  0.5991259951524104  1.0000
  C   C7        1.0  0.24076142812763693  0.44724031507043827  0.6929115013046538  1.0000
  C   C8        1.0  0.1690970605834377  0.45088349223351637  0.682366428816633  1.0000
  C   C9        1.0  0.13700800920610826  0.3965184700959408  0.5783223940918156  1.0000
  C   C10       1.0  0.0632143813818969  0.40022297031158427  0.5676220227239976  1.0000
  N   N2        1.0  0.0038893097360142037  0.4032011940197105  0.5590196335688205  1.0000
  C   C11       1.0  0.1768532473717509  0.33819914517500643  0.4849201372721521  1.0000
  C   C12       1.0  0.24853404549600827  0.334501875207663  0.49521339743713866  1.0000
  C   C13       1.0  0.3855970369937535  0.34517670573083986  0.743196271479804  1.0000
  C   C14       1.0  0.4442545747027463  0.38827357227974574  0.7904469342248327  1.0000
  C   C15       1.0  0.4884425877902518  0.486169175260333  0.7160747882681516  1.0000
  H   H1        1.0  0.49519220713247564  0.3710027743033126  0.4093528337917307  1.0000
  H   H2        1.0  0.37247935405686217  0.43305080758232584  0.411832740874093  1.0000
  H   H3        1.0  0.2646268348908314  0.490488755036402  0.7737723047957046  1.0000
  H   H4        1.0  0.13874660126719793  0.4961597462386214  0.7552988513131069  1.0000
  H   H5        1.0  0.15251593431671434  0.29514618687890914  0.40439386918263126  1.0000
  H   H6        1.0  0.27821930168945247  0.2869818975402212  0.4229772868572317  1.0000
  H   H7        1.0  0.354644771310789  0.2809270810566799  0.8074482502740883  1.0000
  H   H8        1.0  0.45941349469331083  0.3541559544683448  0.8883922357401306  1.0000
  H   H9        1.0  0.45831697054422227  0.5768954488856433  0.6908241044597213  1.0000
  H   H10       1.0  0.5317251739987314  0.5117221384918356  0.7791691021469076  1.0000
  C   C16       1.0  0.8257329528934355  0.02512735545110245  0.5604969503215176  1.0000
  C   C17       1.0  0.8298624663356994  0.013443250960533556  0.6969929258681373  1.0000
  C   C18       1.0  0.83188870378134  0.8903854227589725  0.7661624320478799  1.0000
  C   C19       1.0  0.8297309503535194  0.7781578990996928  0.6970092097229759  1.0000
  C   C20       1.0  0.8256032738577627  0.7878500223963132  0.5605124694560859  1.0000
  C   C21       1.0  0.8236269938979319  0.9117729214042547  0.49302041357845444  1.0000
  C   C22       1.0  0.8362496833907317  0.879089004716155  0.9105598361300368  1.0000
  C   C23       1.0  0.7968840906947258  0.7863308471499733  0.9849381699720247  1.0000
  C   C24       1.0  0.8010089394477259  0.7759336711649868  0.12082952273586611  1.0000
  C   C25       1.0  0.8443278491646111  0.858018643887117  0.18415085434783673  1.0000
  C   C26       1.0  0.8838575406682218  0.9501995199236886  0.11114438771238602  1.0000
  C   C27       1.0  0.879833545395857  0.9609447250013522  0.9752417815195338  1.0000
  S   S1        1.0  0.8496964433934437  0.8442156977903746  0.3585175264498456  1.0000
  C   C28       1.0  0.7805817614004565  0.9615477686296154  0.3786222975437813  1.0000
  H   H11       1.0  0.8241864796711452  0.3570325117180033  0.5084855629603688  1.0000
  H   H12       1.0  0.8305641259812883  0.10024350446459218  0.7499517793462487  1.0000
  H   H13       1.0  0.8322259661108123  0.6830802803568266  0.7497570168016112  1.0000
  H   H14       1.0  0.8204417201162206  0.9200182142408923  0.3877195683282526  1.0000
  H   H15       1.0  0.8239961035412656  0.4640900242635952  0.508506252260315  1.0000
  H   H16       1.0  0.7622620847883717  0.7230222735268458  0.9381057903925805  1.0000
  H   H17       1.0  0.7702569723507229  0.7044207193296842  0.17681296712257843  1.0000
  H   H18       1.0  0.9177474921724262  0.013576957532979826  0.15957196895865255  1.0000
  H   H19       1.0  0.9114535511622796  0.032072213409221055  0.920664343652738  1.0000
  H   H20       1.0  0.794351699333811  0.05763956478556964  0.32962447915346954  1.0000
  H   H21       1.0  0.7726093262029831  0.9723389523386627  0.48398036977987585  1.0000
  H   H22       1.0  0.7321852006091428  0.926923551871622  0.33689689789631605  1.0000
  C   C29       1.0  0.8256778575252657  0.40661498513076416  0.17908774527686555  1.0000
  C   C30       1.0  0.7541709116305695  0.4277977497749382  0.177191600100153  1.0000
  C   C31       1.0  0.7179448847862984  0.4383908655204545  0.05908425566802977  1.0000
  C   C32       1.0  0.7541504251815998  0.4275332717076173  0.9419320615315653  1.0000
  C   C33       1.0  0.825658347936771  0.406362368533151  0.9419216218816159  1.0000
  C   C34       1.0  0.8609641769411827  0.39603603080388333  0.060970100338134214  1.0000
  C   C35       1.0  0.6423476614611301  0.46077958536263425  0.05808732045825105  1.0000
  C   C36       1.0  0.6119654449700961  0.549270969823729  0.1392572326790653  1.0000
  C   C37       1.0  0.5408058642004535  0.5702984288887566  0.13819933748419233  1.0000
  C   C38       1.0  0.4990816281540619  0.5032114347852087  0.05619535115031349  1.0000
  C   C39       1.0  0.5287849716508425  0.414968923742584  0.9751350859436849  1.0000
  C   C40       1.0  0.5999372266867907  0.3938472364083613  0.9759564299314172  1.0000
  C   C41       1.0  0.42582275678513226  0.5249099201429113  0.05522691225514565  1.0000
  N   N3        1.0  0.3669275641374641  0.5423541621937467  0.05444838771580218  1.0000
  H   H23       1.0  0.9607411047713179  0.3657805783882927  0.3900585063307802  1.0000
  H   H24       1.0  0.7263928970239156  0.4343186855138923  0.26793792031763375  1.0000
  H   H25       1.0  0.7266305580974391  0.43738879201531067  0.8504567145038752  1.0000
  H   H26       1.0  0.9160759615618483  0.3797147773901335  0.06169661710499774  1.0000
  H   H27       1.0  0.9608484047960358  0.36716838384913486  0.7345134209659814  1.0000
  H   H28       1.0  0.6433290376876061  0.6034592412957676  0.2023009437148582  1.0000
  H   H29       1.0  0.5183720709475406  0.6391024441612416  0.2010938957867736  1.0000
  H   H30       1.0  0.4969457541529238  0.3622395847789217  0.9115236217558547  1.0000
  H   H31       1.0  0.6216959085107968  0.32392551766973043  0.913614234373712  1.0000
  Zn  Zn1       1.0  0.7503037975030253  0.40788250695734046  0.5611321760614008  1.0000
  Zn  Zn2       1.0  0.90102582123347  0.4050943760978649  0.5598766791517  1.0000
  C   C42       1.0  0.8256613789453771  0.4012365293298531  0.7977296170904475  1.0000
  C   C43       1.0  0.825669885389023  0.41174196184531076  0.32327935192846624  1.0000
  C   C44       1.0  0.8256243597367787  0.6436809883124822  0.5553337239151952  1.0000
  C   C45       1.0  0.8257068534302874  0.16929594349914764  0.5656753147477815  1.0000
  O   O1        1.0  0.8828654333420067  0.41239887523251967  0.37119491767806606  1.0000
  O   O2        1.0  0.8828603597097321  0.3984625095412011  0.7488607843235737  1.0000
  O   O3        1.0  0.8828296951366755  0.594239490114592  0.5531243920437625  1.0000
  O   O4        1.0  0.8828960464847574  0.21662190493293437  0.5669312129995487  1.0000
  O   O5        1.0  0.7684335208177081  0.5963549790751392  0.5540776426351594  1.0000
  O   O6        1.0  0.7684641851240688  0.4005795588181507  0.7498139656925153  1.0000
  O   O7        1.0  0.7684692588497248  0.41451587977002996  0.37214653744834103  1.0000
  O   O8        1.0  0.7684998719887518  0.2187389001495077  0.5678829301497601  1.0000
