data_image0
_chemical_formula_structural       NC11NC3H8C13OH12C12ClH9Zn2C4O8
_chemical_formula_sum              "N2 C43 H29 O9 Cl1 Zn2"
_cell_length_a       17.807433833752565
_cell_length_b       10.299150109392551
_cell_length_c       10.299771906710086
_cell_angle_alpha    85.52403423523229
_cell_angle_beta     88.53397753802528
_cell_angle_gamma    90.66566965777596

_space_group_name_H-M_alt    "P 1"
_space_group_IT_number       1

loop_
  _space_group_symop_operation_xyz
  'x, y, z'

loop_
  _atom_site_type_symbol
  _atom_site_label
  _atom_site_symmetry_multiplicity
  _atom_site_fract_x
  _atom_site_fract_y
  _atom_site_fract_z
  _atom_site_occupancy
  N   N1        1.0  0.7070065519873323  0.4389909930123325  0.5341788763712378  1.0000
  C   C1        1.0  0.6561998573527813  0.40424315079558637  0.6007523958843597  1.0000
  C   C2        1.0  0.5929912022628242  0.3610197001292598  0.6835613589806704  1.0000
  C   C3        1.0  0.6047417974216849  0.2974305893665621  0.8063002101699417  1.0000
  C   C4        1.0  0.5434400064135569  0.2558876741949332  0.8868246945486357  1.0000
  C   C5        1.0  0.47023339175550366  0.2776203994863309  0.8452512237499574  1.0000
  C   C6        1.0  0.4575059307901015  0.34136420138858153  0.7220521274343661  1.0000
  C   C7        1.0  0.3797305855542872  0.364427919266532  0.6776975805604457  1.0000
  C   C8        1.0  0.3609378057338317  0.3475905741796351  0.5481242754002889  1.0000
  C   C9        1.0  0.2877012515426262  0.3692845809277754  0.5065067467225184  1.0000
  C   C10       1.0  0.23231426624978047  0.4081347123108329  0.5936421488103842  1.0000
  C   C11       1.0  0.1569407390106297  0.43048761190598056  0.5506631151614769  1.0000
  N   N2        1.0  0.0963457971579949  0.4484576825614066  0.5161111001248195  1.0000
  C   C12       1.0  0.2504153929930033  0.4251827978646298  0.7226842534995805  1.0000
  C   C13       1.0  0.3235992162462052  0.4034537873656181  0.7645572208201694  1.0000
  C   C14       1.0  0.5196650360919436  0.38290254671883517  0.6415440602738778  1.0000
  H   H1        1.0  0.6612139914915492  0.28000554048044957  0.839671348451396  1.0000
  H   H2        1.0  0.552656285852483  0.20640538107998552  0.9815767326834659  1.0000
  H   H3        1.0  0.4236065716923589  0.2430441676830657  0.9087014327139932  1.0000
  H   H4        1.0  0.4026154864571507  0.3159656076734887  0.4794192405294988  1.0000
  H   H5        1.0  0.2742528247833823  0.35543073421233884  0.40647796514138596  1.0000
  H   H6        1.0  0.2080211066150597  0.45558479299290966  0.7908749418993015  1.0000
  H   H7        1.0  0.33651890659017253  0.4188532055809604  0.8644027232069618  1.0000
  H   H8        1.0  0.5111470037679492  0.43374722524703974  0.5470258715091203  1.0000
  C   C15       1.0  0.9017505840715392  0.06232645895842691  0.5252856371163184  1.0000
  C   C16       1.0  0.9003795995398508  0.05044917436018693  0.6621596194466222  1.0000
  C   C17       1.0  0.8996190890504967  0.9272910256384712  0.731296974673981  1.0000
  C   C18       1.0  0.9002347219468014  0.8151904125790078  0.6618029486858958  1.0000
  C   C19       1.0  0.9016089471112142  0.825112344670483  0.5250152147075424  1.0000
  C   C20       1.0  0.9023609135168664  0.9491404056548828  0.4575558399622459  1.0000
  C   C21       1.0  0.8981621842222324  0.9157078223551823  0.8760043108332065  1.0000
  C   C22       1.0  0.8519736650192603  0.8216847462033121  0.9461689802477344  1.0000
  C   C23       1.0  0.8505778296639454  0.8108657676128558  0.08233959397754553  1.0000
  C   C24       1.0  0.8958380214246652  0.892921879196004  0.15078433407419212  1.0000
  C   C25       1.0  0.9413078583813325  0.9878809285701655  0.0812955859715957  1.0000
  C   C26       1.0  0.9427211324089482  0.9988761282930846  0.9451238742635487  1.0000
  C   C27       1.0  0.8927584599375845  0.8836120811136376  0.2970131222164196  1.0000
  O   O1        1.0  0.8366121708992793  0.9654106096490683  0.33985921657660345  1.0000
  H   H9        1.0  0.9038503066564997  0.2920263587621677  0.26695223118157974  1.0000
  H   H10       1.0  0.8988585882459074  0.13716883164156066  0.7152386384859424  1.0000
  H   H11       1.0  0.9006683022740285  0.7200616716670861  0.7146162000111891  1.0000
  H   H12       1.0  0.9034187687199373  0.9575096456447046  0.3520474663815165  1.0000
  H   H13       1.0  0.9020869575571923  0.5014519702668975  0.47240420133628147  1.0000
  H   H14       1.0  0.8160411862577946  0.7578190431440474  0.8957279235727578  1.0000
  H   H15       1.0  0.8140377082074614  0.7386316100110891  0.13441071456403475  1.0000
  H   H16       1.0  0.975856602014529  0.053265718567124365  0.13254706052989662  1.0000
  H   H17       1.0  0.9792865004827143  0.07155607541954057  0.8938582231593976  1.0000
  H   H18       1.0  0.9480223106271298  0.9127721741779633  0.33461842425958166  1.0000
  H   H19       1.0  0.8805533321037455  0.781281953686986  0.3353919980203931  1.0000
  H   H20       1.0  0.836899481126165  0.9557095190225927  0.4364723035977988  1.0000
  C   C28       1.0  0.9016439887834466  0.4438248815719392  0.14378276843408022  1.0000
  C   C29       1.0  0.9697723957372267  0.5143700387330816  0.1342684664871907  1.0000
  C   C30       1.0  0.004330268352432885  0.5500085660318697  0.01231549369330409  1.0000
  C   C31       1.0  0.9698449049404289  0.5141566218294968  0.8989954034689664  1.0000
  C   C32       1.0  0.9017155315949072  0.4436140012721173  0.9065180933722088  1.0000
  C   C33       1.0  0.8679969408899835  0.4088423476927565  0.0293619384029713  1.0000
  C   C34       1.0  0.07640494126237174  0.6246380761004926  0.0033038803798335387  1.0000
  C   C35       1.0  0.08825917849277289  0.7279399414779724  0.08251845936617586  1.0000
  C   C36       1.0  0.15613141885240078  0.7980832186512975  0.07384761278510044  1.0000
  C   C37       1.0  0.2129195262373078  0.7659904338891637  0.9862363719047341  1.0000
  C   C38       1.0  0.2017823274839381  0.6635655409000727  0.9071170007795081  1.0000
  C   C39       1.0  0.13397746156781865  0.5932235635482728  0.9154091622809654  1.0000
  Cl  Cl1       1.0  0.29803044525593303  0.8541172275381549  0.9755958245239292  1.0000
  H   H21       1.0  0.8756638233766029  0.41700047219193975  0.47485803165890994  1.0000
  H   H22       1.0  0.9966462460489371  0.5402250627796503  0.22199300119475307  1.0000
  H   H23       1.0  0.995728616281617  0.54292939203786  0.8046744473258851  1.0000
  H   H24       1.0  0.8154385541930171  0.3544211151390337  0.03593360269644408  1.0000
  H   H25       1.0  0.8757694321352879  0.4166884424244306  0.5819340602182259  1.0000
  H   H26       1.0  0.04470210259195273  0.7555363597148237  0.14990331636285292  1.0000
  H   H27       1.0  0.16442350814018725  0.8775653400862097  0.13506763289925972  1.0000
  H   H28       1.0  0.2456818418741631  0.638124773253733  0.8393718975294671  1.0000
  H   H29       1.0  0.126932402087506  0.5132314407917065  0.8543510032932953  1.0000
  Zn  Zn1       1.0  0.8193614490991411  0.44171939815139805  0.5289723921579459  1.0000
  Zn  Zn2       1.0  0.9839908882507307  0.4457186540944648  0.5213281740819062  1.0000
  C   C40       1.0  0.9017013002960897  0.43847972340858954  0.7623466704665969  1.0000
  C   C41       1.0  0.9016528345098063  0.44896001121815216  0.2879539391836441  1.0000
  C   C42       1.0  0.9016313665205844  0.6809309512010824  0.5198913369834146  1.0000
  C   C43       1.0  0.901722712405033  0.20650722162043997  0.530409345066909  1.0000
  O   O2        1.0  0.9641318184529961  0.45219543825260455  0.3334381621943623  1.0000
  O   O3        1.0  0.9641722515498975  0.4382786594047028  0.7110602893139251  1.0000
  O   O4        1.0  0.9641149370618687  0.6340610712287229  0.51527593074238  1.0000
  O   O5        1.0  0.9641890767532894  0.256413034381765  0.5292224259967233  1.0000
  O   O6        1.0  0.8391632044166338  0.6310250165007645  0.5210781428448938  1.0000
  O   O7        1.0  0.8392205186049929  0.4352441651186296  0.7168624316181214  1.0000
  O   O8        1.0  0.8391800854199848  0.4491608991400901  0.3392387431167929  1.0000
  O   O9        1.0  0.8392373437280649  0.2533784859527364  0.5350231042901035  1.0000
