data_image0
_chemical_formula_structural       NC8NH4C6ClH5C6SCH7Zn2C4O8
_chemical_formula_sum              "N2 C25 H16 Cl1 S1 Zn2 O8"
_cell_length_a       14.927258825633057
_cell_length_b       9.276545438789551
_cell_length_c       9.275274088470228
_cell_angle_alpha    86.1334652357246
_cell_angle_beta     89.72578083849504
_cell_angle_gamma    89.40960858786079

_space_group_name_H-M_alt    "P 1"
_space_group_IT_number       1

loop_
  _space_group_symop_operation_xyz
  'x, y, z'

loop_
  _atom_site_type_symbol
  _atom_site_label
  _atom_site_symmetry_multiplicity
  _atom_site_fract_x
  _atom_site_fract_y
  _atom_site_fract_z
  _atom_site_occupancy
  N   N1        1.0  0.8382846708674699  0.5629749358102293  0.4112921135538481  1.0000
  C   C1        1.0  0.7607582466600423  0.5629749094534915  0.4112921231885427  1.0000
  C   C2        1.0  0.6643256047490107  0.5629749096866359  0.4112921782586276  1.0000
  C   C3        1.0  0.6181111690105339  0.4738192281089355  0.3215198989244348  1.0000
  C   C4        1.0  0.5243998581162828  0.4738191380181603  0.32151987041312696  1.0000
  C   C5        1.0  0.4765096072669817  0.5629749618895992  0.41129209048971616  1.0000
  C   C6        1.0  0.5227240432709853  0.6521306527549102  0.5010642617822538  1.0000
  C   C7        1.0  0.6164354211567735  0.6521307428427763  0.5010642902994833  1.0000
  C   C8        1.0  0.380076966315306  0.5629748637601757  0.411292035505741  1.0000
  N   N2        1.0  0.3025505414140494  0.5629749450536166  0.4112920471528405  1.0000
  H   H1        1.0  0.6544592185507564  0.40445088062842305  0.2516720460936585  1.0000
  H   H2        1.0  0.4893555625245389  0.4044508578801873  0.2516721432906879  1.0000
  H   H3        1.0  0.4863759937307628  0.7214990002354227  0.57091211461303  1.0000
  H   H4        1.0  0.6514796494914535  0.7214990136960477  0.5709121254576561  1.0000
  C   C9        1.0  0.07312631804434888  0.13953751936985026  0.41105453203923104  1.0000
  C   C10       1.0  0.0738604702714496  0.22192610385426728  0.27803838486282695  1.0000
  C   C11       1.0  0.06643578692619845  0.15561131584990395  0.1479173583042417  1.0000
  C   C12       1.0  0.05809793058635271  0.006028654538390079  0.14881059886135595  1.0000
  C   C13       1.0  0.05875315033563511  0.9220784743793833  0.2793852328959392  1.0000
  C   C14       1.0  0.0677175395884615  0.9864013768165719  0.4115421318876925  1.0000
  Cl  Cl1       1.0  0.06623032728466675  0.26067067903391195  0.9833913670138452  1.0000
  H   H5        1.0  0.11827029126588662  0.4046476800943351  0.6376286798037007  1.0000
  H   H6        1.0  0.07806659860352316  0.3386195798026017  0.2751851370397853  1.0000
  H   H7        1.0  0.05196197111611412  0.9543512790277805  0.048141203014293796  1.0000
  H   H8        1.0  0.05438135941815526  0.8057928494442413  0.27673522605239453  1.0000
  H   H9        1.0  0.03699474998072838  0.6898782919605054  0.6445767006366351  1.0000
  C   C15       1.0  0.07170558262463333  0.5589514347633409  0.9880990980628507  1.0000
  C   C16       1.0  0.14767026719975918  0.6097066629450554  0.05747665921698242  1.0000
  C   C17       1.0  0.2185859561155719  0.6719498307963623  0.9774484259245502  1.0000
  C   C18       1.0  0.21472581381760558  0.68357606151267  0.8268949941074446  1.0000
  C   C19       1.0  0.1406824183955213  0.6317293479917316  0.7560138923593058  1.0000
  C   C20       1.0  0.06913825722021483  0.5669874478805361  0.8344975489715099  1.0000
  S   S1        1.0  0.31438223216658234  0.7373269683637655  0.068174413143131  1.0000
  C   C21       1.0  0.26718340363480353  0.917811511375608  0.08001049677180028  1.0000
  H   H10       1.0  0.8551515415846992  0.4996209956282776  0.0967696644225311  1.0000
  H   H11       1.0  0.26946394620697145  0.7318892234885152  0.7644249340125864  1.0000
  H   H12       1.0  0.140371472501484  0.6392000653411021  0.6389587302447061  1.0000
  H   H13       1.0  0.9244467165934713  0.5211590343670527  0.5575563721194845  1.0000
  H   H14       1.0  0.2540557051164276  0.9682024281857464  0.9700774193325667  1.0000
  H   H15       1.0  0.2038846157403158  0.912394966192555  0.14337294981045035  1.0000
  H   H16       1.0  0.31569346342552923  0.9850907955835508  0.1350485502019629  1.0000
  Zn  Zn1       1.0  0.972261780487875  0.5629711461087781  0.4113004228703536  1.0000
  Zn  Zn2       1.0  0.16857348459742316  0.5629670095397576  0.4112955649375136  1.0000
  C   C22       1.0  0.06965822238827933  0.559724063774854  0.674506813539227  1.0000
  C   C23       1.0  0.07117917436559007  0.5662159125460122  0.14808931671067005  1.0000
  C   C24       1.0  0.06875270461884875  0.8262715238672941  0.4057071459188536  1.0000
  C   C25       1.0  0.07208463597921666  0.29966672076600687  0.41688906016829574  1.0000
  O   O1        1.0  0.1455018157455623  0.5686460771199655  0.20178164843545776  1.0000
  O   O2        1.0  0.14433163028975882  0.5572896679069943  0.6208103792783115  1.0000
  O   O3        1.0  0.14359940440803395  0.7725301271327408  0.40375274676070577  1.0000
  O   O4        1.0  0.14623397490127776  0.3534056271847399  0.4188391729054868  1.0000
  O   O5        1.0  0.9946012231924835  0.7725325284667055  0.40375681489645865  1.0000
  O   O6        1.0  0.9953334382384752  0.5572938009314338  0.6208143715708909  1.0000
  O   O7        1.0  0.9965036293303671  0.5686501434458169  0.20178390803674537  1.0000
  O   O8        1.0  0.9972357882205551  0.3534096842229806  0.4188415405484296  1.0000
