data_image0
_chemical_formula_structural       NC9NC4H8C6SCNH4C8NH11Zn2C4O8
_chemical_formula_sum              "N4 C32 H23 S1 Zn2 O8"
_cell_length_a       16.32274767691083
_cell_length_b       10.302215558581764
_cell_length_c       9.275652972338538
_cell_angle_alpha    85.94620534348942
_cell_angle_beta     89.90519038886141
_cell_angle_gamma    89.54366289277024

_space_group_name_H-M_alt    "P 1"
_space_group_IT_number       1

loop_
  _space_group_symop_operation_xyz
  'x, y, z'

loop_
  _atom_site_type_symbol
  _atom_site_label
  _atom_site_symmetry_multiplicity
  _atom_site_fract_x
  _atom_site_fract_y
  _atom_site_fract_z
  _atom_site_occupancy
  N   N1        1.0  0.7648785935555389  0.40214061462677214  0.39858324248391797  1.0000
  C   C1        1.0  0.7122819184397072  0.3543554192911855  0.3383233630807301  1.0000
  C   C2        1.0  0.6469039575441891  0.29500583458139906  0.2634801110069138  1.0000
  C   C3        1.0  0.6580130715719501  0.21382616535367568  0.16110309726284577  1.0000
  C   C4        1.0  0.5784309773341467  0.17421007963870494  0.1111465174380315  1.0000
  C   C5        1.0  0.5198148076371404  0.23218735717523042  0.18426513910200715  1.0000
  C   C6        1.0  0.4297935961923332  0.21686450709522398  0.1649444604312993  1.0000
  C   C7        1.0  0.3745669573856426  0.28444071967462015  0.2501607309607021  1.0000
  C   C8        1.0  0.28978688530001306  0.2713450738659946  0.23364805462391194  1.0000
  C   C9        1.0  0.23415966982399522  0.3409986984436762  0.321483178181746  1.0000
  N   N2        1.0  0.1894542655587479  0.39698874832126957  0.39208774098289134  1.0000
  C   C10       1.0  0.2591798194636454  0.19056392811132117  0.13178198294071697  1.0000
  C   C11       1.0  0.3130850306574722  0.12307722741239102  0.04667896634768142  1.0000
  C   C12       1.0  0.397704378524286  0.13582013602017784  0.06274669370534802  1.0000
  C   C13       1.0  0.5580308158421117  0.31672458920107527  0.29087354609469096  1.0000
  H   H1        1.0  0.7167480913195343  0.18225920518866934  0.12129099856937375  1.0000
  H   H2        1.0  0.5697731735550836  0.10786203593811529  0.02747370668763271  1.0000
  H   H3        1.0  0.39702392009837245  0.34750402292208693  0.32968449114077125  1.0000
  H   H4        1.0  0.1937291301088695  0.17977583040801726  0.11817921196797809  1.0000
  H   H5        1.0  0.2892351450366306  0.06058548107388839  0.967876231200679  1.0000
  H   H6        1.0  0.4371907028296039  0.08183512216412514  0.99467019614718  1.0000
  H   H7        1.0  0.5417333365206078  0.2826582186299966  0.4035160663773181  1.0000
  H   H8        1.0  0.5411672310350448  0.4206156382567697  0.2662881327465345  1.0000
  C   C14       1.0  0.9770888111959364  0.018293153412981107  0.39529699941888286  1.0000
  C   C15       1.0  0.059390733577875165  0.013495934406862363  0.4393923402818134  1.0000
  C   C16       1.0  0.100349673225538  0.8940706439417948  0.4617918509925958  1.0000
  C   C17       1.0  0.05960420121078691  0.7783188702947913  0.43951112026107747  1.0000
  C   C18       1.0  0.9772519228655535  0.780826129305204  0.39538629581489926  1.0000
  C   C19       1.0  0.9364375111760699  0.901327828635573  0.3735774901559432  1.0000
  S   S1        1.0  0.20549610719608324  0.8894613391984207  0.5174864536821895  1.0000
  C   C20       1.0  0.17926373484755698  0.8780588530001239  0.7025901641270118  1.0000
  N   N3        1.0  0.16204116225014542  0.870584244216865  0.823941862284898  1.0000
  H   H9        1.0  0.09199481944630872  0.10218130345255205  0.4567786857781007  1.0000
  H   H10       1.0  0.09235461054555305  0.6867212150110183  0.45697895723380516  1.0000
  H   H11       1.0  0.8729629978969126  0.9041780960674745  0.33958961954437616  1.0000
  H   H12       1.0  0.8220524361596858  0.5783435666115976  0.3120674252569269  1.0000
  C   C21       1.0  0.97534601124754  0.39705129204780154  0.9720985355656846  1.0000
  C   C22       1.0  0.9222252690685747  0.4826249297845404  0.039068573035838224  1.0000
  C   C23       1.0  0.8755748594205983  0.5756963661862089  0.9570933615039272  1.0000
  C   C24       1.0  0.8809382900602405  0.5819567654829831  0.8062266930375865  1.0000
  C   C25       1.0  0.9322552170092915  0.4964628105368191  0.7378761813186969  1.0000
  C   C26       1.0  0.9789947748034172  0.40206802855662943  0.818584787357802  1.0000
  C   C27       1.0  0.8180934986806334  0.6652194265295757  0.030527178348890738  1.0000
  C   C28       1.0  0.7338439612616697  0.6028043030529522  0.05259581152795478  1.0000
  N   N4        1.0  0.6782976095442642  0.6912204743749317  0.12166406024984423  1.0000
  H   H13       1.0  0.035354218920088165  0.20342064627585654  0.2677644931631298  1.0000
  H   H14       1.0  0.9183275472928777  0.47905993995023716  0.15595529906676897  1.0000
  H   H15       1.0  0.8446259900365618  0.6523313012563949  0.741207448617156  1.0000
  H   H16       1.0  0.9337355248121552  0.5020210248517988  0.6208343323366163  1.0000
  H   H17       1.0  0.091320199160976  0.2817881891942069  0.5463718886281637  1.0000
  H   H18       1.0  0.8437550269063574  0.6877216890161066  0.13685163788006705  1.0000
  H   H19       1.0  0.8115547773364008  0.7590360526956844  0.9643290038035185  1.0000
  H   H20       1.0  0.7082257745148222  0.5813447091261577  0.9458536601953399  1.0000
  H   H21       1.0  0.7396072617902176  0.5097440636492849  0.12068911459333398  1.0000
  H   H22       1.0  0.62042350508314  0.6483224160697276  0.12694704007105395  1.0000
  H   H23       1.0  0.6974831459818459  0.6974862043852921  0.22849125611267415  1.0000
  Zn  Zn1       1.0  0.8874020024959937  0.40065046193966314  0.3967171041388495  1.0000
  Zn  Zn2       1.0  0.0669309114064218  0.3984683167363261  0.39396568543920285  1.0000
  C   C29       1.0  0.9783021246289044  0.39594741601880057  0.6585801896157151  1.0000
  C   C30       1.0  0.9760327506838621  0.4031729778676028  0.13210271157108866  1.0000
  C   C31       1.0  0.9771921396317197  0.636657201572471  0.3896261071346412  1.0000
  C   C32       1.0  0.9771426744178672  0.16246163360995314  0.40105687164929593  1.0000
  O   O1        1.0  0.04439351080903231  0.4043936945246156  0.18475742497373115  1.0000
  O   O2        1.0  0.04619965035263163  0.3930695197127452  0.6038367980745465  1.0000
  O   O3        1.0  0.045302411460763636  0.5874457357832235  0.38665448781031575  1.0000
  O   O4        1.0  0.04529068797601732  0.21001748784614585  0.40193962811154016  1.0000
  O   O5        1.0  0.9090421646619602  0.5891012915758709  0.3887431623978552  1.0000
  O   O6        1.0  0.9099394035525694  0.3947266349553998  0.6059253959962956  1.0000
  O   O7        1.0  0.9081332565844454  0.4060507542524596  0.18684429004723646  1.0000
  O   O8        1.0  0.9090304342118753  0.21167453892800925  0.40402660124281087  1.0000
