data_image0
_chemical_formula_structural       NC8NH4C6NH7C9H9Zn2C4O8
_chemical_formula_sum              "N3 C27 H20 Zn2 O8"
_cell_length_a       14.927258825633057
_cell_length_b       9.274771166103582
_cell_length_c       9.273585224739811
_cell_angle_alpha    86.03363261937257
_cell_angle_beta     90.102070233187
_cell_angle_gamma    90.59705077502286

_space_group_name_H-M_alt    "P 1"
_space_group_IT_number       1

loop_
  _space_group_symop_operation_xyz
  'x, y, z'

loop_
  _atom_site_type_symbol
  _atom_site_label
  _atom_site_symmetry_multiplicity
  _atom_site_fract_x
  _atom_site_fract_y
  _atom_site_fract_z
  _atom_site_occupancy
  N   N1        1.0  0.8519223369321878  0.562517550295438  0.40731220923645073  1.0000
  C   C1        1.0  0.7743959124247056  0.5625175239354536  0.4073122189360656  1.0000
  C   C2        1.0  0.6779632707416304  0.5625175242038607  0.40731227401262876  1.0000
  C   C3        1.0  0.6302340175424836  0.473272692921757  0.31774395162795777  1.0000
  C   C4        1.0  0.5365227053716167  0.4732726027806329  0.31774392333069956  1.0000
  C   C5        1.0  0.4901472735733247  0.5625175763693768  0.40731218610635156  1.0000
  C   C6        1.0  0.5378765267162638  0.6517624168733853  0.49688040041311043  1.0000
  C   C7        1.0  0.6315879058786549  0.6517625070116031  0.496880428716298  1.0000
  C   C8        1.0  0.39371463113337696  0.5625174781698257  0.40731213135246597  1.0000
  N   N2        1.0  0.31618820732656006  0.5625175594997042  0.40731214280461736  1.0000
  H   H1        1.0  0.6654034512804133  0.4038349819001345  0.24805478929312108  1.0000
  H   H2        1.0  0.5002997953582908  0.4038349592058756  0.2480548865575465  1.0000
  H   H3        1.0  0.5027070929783345  0.721200127895008  0.5665695627479472  1.0000
  H   H4        1.0  0.6678107489566644  0.7212001413673621  0.5665695735614333  1.0000
  C   C9        1.0  0.08131016501334498  0.1389289430830067  0.40809779012247827  1.0000
  C   C10       1.0  0.0605445307714092  0.22093134860167438  0.27920929689308926  1.0000
  C   C11       1.0  0.048142053464977685  0.1545673281503981  0.14950306143482806  1.0000
  C   C12       1.0  0.05655107259175329  0.004813907144920688  0.14774584481510258  1.0000
  C   C13       1.0  0.07565806893137439  0.9214741282660472  0.27486378708461645  1.0000
  C   C14       1.0  0.08680892563937603  0.9860951834815951  0.40653911080228733  1.0000
  N   N3        1.0  0.02792515524318739  0.2396548740915263  0.019198008925312097  1.0000
  H   H5        1.0  0.18249956110265828  0.22178628533770905  0.7235275821846179  1.0000
  H   H6        1.0  0.056026945908688175  0.3375184456157554  0.27865565808436177  1.0000
  H   H7        1.0  0.04743261457949721  0.9523152056198348  0.04794998269462103  1.0000
  H   H8        1.0  0.0796011942907  0.8052682756109352  0.2707360085641757  1.0000
  H   H9        1.0  0.15133566003555154  0.6912039814406361  0.6211430531982374  1.0000
  H   H10       1.0  0.02175287446667462  0.35172830130595667  0.019151196634128453  1.0000
  H   H11       1.0  0.018893814849514797  0.19119740413202277  0.9217724172785218  1.0000
  C   C15       1.0  0.08356274693548738  0.558222270940488  0.9840748054252559  1.0000
  C   C16       1.0  0.16330140346808109  0.526095612260314  0.0600906860817223  1.0000
  C   C17       1.0  0.24433671614202176  0.5069516564185014  0.987865532666139  1.0000
  C   C18       1.0  0.24491012826765024  0.5207453561534592  0.8357809276929089  1.0000
  C   C19       1.0  0.16611124910496677  0.5501599523100051  0.758766317550053  1.0000
  C   C20       1.0  0.08455633415923458  0.5668018110753354  0.8305620604490694  1.0000
  C   C21       1.0  0.3271550489277537  0.47387236565033725  0.07944159861768707  1.0000
  C   C22       1.0  0.39656263379166545  0.3749009294361967  0.019385752497705248  1.0000
  C   C23       1.0  0.41618270347864317  0.5361844301343969  0.022992886958893562  1.0000
  H   H12       1.0  0.9355735080946717  0.5393847248806785  0.2653936905817684  1.0000
  H   H13       1.0  0.16282950887120373  0.5191342854985219  0.17727300301840912  1.0000
  H   H14       1.0  0.3055854557658644  0.5077120227912415  0.7748705787403889  1.0000
  H   H15       1.0  0.9519618357179653  0.6692933121149489  0.5417033717439641  1.0000
  H   H16       1.0  0.3212067174855353  0.46456944141371687  0.1992205643994207  1.0000
  H   H17       1.0  0.38427246510034263  0.3377824880585211  0.9098762115554934  1.0000
  H   H18       1.0  0.43330367643186696  0.30736470102050095  0.10303130652103931  1.0000
  H   H19       1.0  0.4157684096886891  0.5968593249408152  0.9156621012207626  1.0000
  H   H20       1.0  0.46438263437678584  0.562937446140422  0.10875115276701976  1.0000
  Zn  Zn1       1.0  0.9858994316928991  0.562513764550348  0.40732052877283187  1.0000
  Zn  Zn2       1.0  0.1822110626894266  0.5625096234024914  0.4073156802144342  1.0000
  C   C24       1.0  0.08432922314196212  0.5594336648590117  0.6705684200185555  1.0000
  C   C25       1.0  0.08378342693664285  0.5655915445065816  0.1440679270294865  1.0000
  C   C26       1.0  0.08575817931600249  0.8259044877700509  0.4010902984829606  1.0000
  C   C27       1.0  0.0823543926166419  0.29911898933873515  0.41354612859647477  1.0000
  O   O1        1.0  0.15835668919135837  0.5680568755189295  0.1977612517709424  1.0000
  O   O2        1.0  0.15875193892154904  0.5569640984226939  0.6168710024408948  1.0000
  O   O3        1.0  0.15990483657738075  0.7721426731176135  0.3992655099637026  1.0000
  O   O4        1.0  0.15720372448779568  0.35287831004882153  0.4153666361642927  1.0000
  O   O5        1.0  0.010906702903006328  0.772145077906925  0.3992695728170439  1.0000
  O   O6        1.0  0.00975381640161177  0.5569682354717189  0.6168749852569138  1.0000
  O   O7        1.0  0.00935856437077298  0.5680609447387015  0.19776350183529212  1.0000
  O   O8        1.0  0.008205599723417391  0.35288237004668876  0.4153689943065553  1.0000
