data_image0
_chemical_formula_structural       NC12NC2H8C12H9C12H10Zn2C4O8
_chemical_formula_sum              "N2 C42 H27 Zn2 O8"
_cell_length_a       19.240039667572717
_cell_length_b       14.994057918209652
_cell_length_c       14.388129018870245
_cell_angle_alpha    83.27612054347796
_cell_angle_beta     90.89466623952734
_cell_angle_gamma    89.99018167561823

_space_group_name_H-M_alt    "P 1"
_space_group_IT_number       1

loop_
  _space_group_symop_operation_xyz
  'x, y, z'

loop_
  _atom_site_type_symbol
  _atom_site_label
  _atom_site_symmetry_multiplicity
  _atom_site_fract_x
  _atom_site_fract_y
  _atom_site_fract_z
  _atom_site_occupancy
  N   N1        1.0  0.6423201190159621  0.015864087345832216  0.9704827003558965  1.0000
  C   C1        1.0  0.5821717495030974  0.015864147297058876  0.9704826414711907  1.0000
  C   C2        1.0  0.5073537111984523  0.015864231655025485  0.9704825427944817  1.0000
  C   C3        1.0  0.4717541099129833  0.968725506201486  0.04480310387023789  1.0000
  C   C4        1.0  0.3990840985096924  0.9686469497880732  0.04486529674684103  1.0000
  C   C5        1.0  0.3610214743410838  0.015864301528800258  0.9704823791601258  1.0000
  C   C6        1.0  0.3973345301760396  0.06308177633866106  0.8960996014064271  1.0000
  C   C7        1.0  0.47000595638641235  0.0630030547737077  0.8961618823119921  1.0000
  C   C8        1.0  0.2838163831075043  0.01586425013128912  0.9704823105776159  1.0000
  C   C9        1.0  0.24699042395042486  0.9369073482404271  0.0005684002448292924  1.0000
  C   C10       1.0  0.1743189590734387  0.9369833021699718  0.000502769461933284  1.0000
  C   C11       1.0  0.13748409670746073  0.015864159718208523  0.9704823543468467  1.0000
  C   C12       1.0  0.06266606165061078  0.015864074717617076  0.9704825330578537  1.0000
  N   N2        1.0  0.0025177465521137024  0.01586404091786142  0.970482682851137  1.0000
  C   C13       1.0  0.1735967447471268  0.09474507081447081  0.9404619012228701  1.0000
  C   C14       1.0  0.2462666630906263  0.09482115296297366  0.9403961535911562  1.0000
  H   H1        1.0  0.5001514197373284  0.932210968370016  0.10283051424509582  1.0000
  H   H2        1.0  0.3726825287996551  0.9326498105771798  0.10369450067439623  1.0000
  H   H3        1.0  0.36954956866856437  0.09907893553688774  0.8372703609346637  1.0000
  H   H4        1.0  0.49703842034984796  0.09951751611478689  0.8381346701513188  1.0000
  H   H5        1.0  0.27435349223105143  0.8748044067994238  0.022963471259973  1.0000
  H   H6        1.0  0.14688250118483717  0.8754694829007132  0.023640317143368225  1.0000
  H   H7        1.0  0.14560337931233594  0.15625887282710427  0.917324363997573  1.0000
  H   H8        1.0  0.2730900732441053  0.15692415002818616  0.9180010504028269  1.0000
  C   C15       1.0  0.8224511158659134  0.7538962530375545  0.9704730564055395  1.0000
  C   C16       1.0  0.8633688216768863  0.6989610352651561  0.03572197170731817  1.0000
  C   C17       1.0  0.8633344999396718  0.6057359049437013  0.035760600732939185  1.0000
  C   C18       1.0  0.8224411201446052  0.5653934121913601  0.9705227484044844  1.0000
  C   C19       1.0  0.7815626749524531  0.6204277395991953  0.9052764944841489  1.0000
  C   C20       1.0  0.7815518340926628  0.713651002221971  0.9052872843330995  1.0000
  C   C21       1.0  0.822424940528548  0.46631861720412277  0.9705304124375701  1.0000
  C   C22       1.0  0.8225050892459772  0.4281397319154748  0.8858349262114361  1.0000
  C   C23       1.0  0.8225188014151094  0.3349153718371256  0.885834147548386  1.0000
  C   C24       1.0  0.8223935376807874  0.2778247102139407  0.9705003687660018  1.0000
  C   C25       1.0  0.8222842864667022  0.31590027138524296  0.05523085639488091  1.0000
  C   C26       1.0  0.8223292569415032  0.4091209997946145  0.055231850903010644  1.0000
  H   H9        1.0  0.8956081791577856  0.7279908637707981  0.0866917707771836  1.0000
  H   H10       1.0  0.89607586092231  0.5652701363816779  0.08611078465638178  1.0000
  H   H11       1.0  0.7488106283821487  0.5912945266991628  0.854934662111198  1.0000
  H   H12       1.0  0.7493182691500422  0.7541222871245576  0.8543030610351281  1.0000
  H   H13       1.0  0.8235011631395502  0.4703925561950804  0.8194678368743069  1.0000
  H   H14       1.0  0.822805628257184  0.3076425945844444  0.8194075839289636  1.0000
  H   H15       1.0  0.8224209688497602  0.0746590829668577  0.8848195718354246  1.0000
  H   H16       1.0  0.8219861242198828  0.27367428736995114  0.12165112334970185  1.0000
  H   H17       1.0  0.8213453412761523  0.43646638599730603  0.121596537118425  1.0000
  C   C27       1.0  0.8192198707474841  0.02639314224700449  0.696387609694766  1.0000
  C   C28       1.0  0.7934644910066068  0.11102186267782697  0.7119308396364421  1.0000
  C   C29       1.0  0.7743911882800277  0.17392769157060362  0.6365481388055061  1.0000
  C   C30       1.0  0.7807185666910802  0.15332992301499515  0.5449303563437642  1.0000
  C   C31       1.0  0.8062801370242059  0.06912790620843601  0.5275652267033171  1.0000
  C   C32       1.0  0.8129438440631077  0.04712654531399881  0.43007855559622277  1.0000
  C   C33       1.0  0.837820305607157  0.11140136932298828  0.35947552333686184  1.0000
  C   C34       1.0  0.8441215888797604  0.09070337747810187  0.2677447789156091  1.0000
  C   C35       1.0  0.8256247405120881  0.0053278400654064315  0.244585845493982  1.0000
  C   C36       1.0  0.800697744592805  0.9410207743805958  0.3150979734152728  1.0000
  C   C37       1.0  0.7944503293710539  0.9616973782773729  0.406839328685781  1.0000
  C   C38       1.0  0.825449756760876  0.006021830490436042  0.6039067606414812  1.0000
  H   H18       1.0  0.8792066180377242  0.8295594265009676  0.8142322247684166  1.0000
  H   H19       1.0  0.7880354801905033  0.12865643080113986  0.7823221672287525  1.0000
  H   H20       1.0  0.7544343174791753  0.238850125216443  0.6491964742128198  1.0000
  H   H21       1.0  0.7647471875493322  0.20281932736564393  0.487680952580686  1.0000
  H   H22       1.0  0.8533064702056765  0.1774197101181001  0.37543241130867777  1.0000
  H   H23       1.0  0.863666842737264  0.14161524252007163  0.2150532592572181  1.0000
  H   H24       1.0  0.861860566392349  0.033833122301456076  0.011230987588121355  1.0000
  H   H25       1.0  0.7858188157295746  0.8746966591917291  0.29939368269096356  1.0000
  H   H26       1.0  0.7742437922416627  0.9111456713381396  0.4593954555892086  1.0000
  H   H27       1.0  0.8461223375485595  0.941469944731978  0.5910981479354194  1.0000
  Zn  Zn1       1.0  0.746265445941325  0.015861485462342884  0.9704880772938249  1.0000
  Zn  Zn2       1.0  0.8985725281993021  0.015859073270404235  0.9704849232206307  1.0000
  C   C39       1.0  0.8244129404463257  0.005755751813547149  0.14096443440169737  1.0000
  C   C40       1.0  0.8204266978295289  0.025965928963282092  0.8000086577502379  1.0000
  C   C41       1.0  0.8223573705898322  0.17893401377340723  0.9667756881547369  1.0000
  C   C42       1.0  0.8224822164135014  0.8527865932982648  0.9741974537058788  1.0000
  O   O1        1.0  0.8786314644124885  0.025817744991038172  0.8347836309103618  1.0000
  O   O2        1.0  0.881805722085889  0.005901442327673097  0.10618679864568213  1.0000
  O   O3        1.0  0.8801450556018167  0.14574504171579272  0.9655281537014808  1.0000
  O   O4        1.0  0.8802920781060908  0.885974154674621  0.9754422058704326  1.0000
  O   O5        1.0  0.764545844059547  0.14574640406010864  0.9655307946401902  1.0000
  O   O6        1.0  0.7662065098411505  0.005903878379128315  0.10618938987187787  1.0000
  O   O7        1.0  0.7630322391059373  0.025820193078339455  0.8347850999183253  1.0000
  O   O8        1.0  0.7646928536150198  0.8859765936922023  0.9754437448586937  1.0000
