data_image0
_chemical_formula_structural       NC10NC3NH7C12ClH9C12NH11Zn2C4O8
_chemical_formula_sum              "N4 C41 H27 Cl1 Zn2 O8"
_cell_length_a       19.210446455230148
_cell_length_b       10.299768534541528
_cell_length_c       10.299774167527174
_cell_angle_alpha    85.57901690489705
_cell_angle_beta     89.98397518987284
_cell_angle_gamma    89.96529235611058

_space_group_name_H-M_alt    "P 1"
_space_group_IT_number       1

loop_
  _space_group_symop_operation_xyz
  'x, y, z'

loop_
  _atom_site_type_symbol
  _atom_site_label
  _atom_site_symmetry_multiplicity
  _atom_site_fract_x
  _atom_site_fract_y
  _atom_site_fract_z
  _atom_site_occupancy
  N   N1        1.0  0.6557982799881399  0.4197540854758324  0.5674844161935637  1.0000
  C   C1        1.0  0.5955699171302359  0.421961607934411  0.567715702649592  1.0000
  C   C2        1.0  0.5207657087792501  0.4246985314827641  0.5680022378499217  1.0000
  C   C3        1.0  0.4851644543018951  0.5409302148065502  0.5831211571173418  1.0000
  C   C4        1.0  0.412498990130902  0.5410817336143998  0.5830685725760703  1.0000
  C   C5        1.0  0.3755990129647212  0.4254075039308107  0.5680887648016402  1.0000
  C   C6        1.0  0.2982767723026878  0.42405102149342944  0.5679380882875535  1.0000
  C   C7        1.0  0.2605341845154324  0.5276014954540837  0.5045864251502685  1.0000
  C   C8        1.0  0.187755712048703  0.5261992704705025  0.5044772612542856  1.0000
  C   C9        1.0  0.15171844078208802  0.4215040606630607  0.5676687836178362  1.0000
  C   C10       1.0  0.0767888135231654  0.42020197465193404  0.5675318734023558  1.0000
  N   N2        1.0  0.0165508750077514  0.419155053300947  0.5674218324602991  1.0000
  C   C11       1.0  0.18873738300757112  0.31807926911430756  0.6309954480291265  1.0000
  C   C12       1.0  0.2615176785575594  0.3192072469307401  0.6311548367428568  1.0000
  C   C13       1.0  0.41381027531882775  0.3109961089865758  0.553258119240576  1.0000
  N   N3        1.0  0.484580427226572  0.31344106638550184  0.5534238394221265  1.0000
  H   H1        1.0  0.513272651923543  0.6303648260238806  0.59517504658959  1.0000
  H   H2        1.0  0.38523736479210297  0.6310985766375483  0.5965171562325732  1.0000
  H   H3        1.0  0.287270337059243  0.6088388064634722  0.453603803819097  1.0000
  H   H4        1.0  0.1596180502268666  0.6066092617365468  0.45482491190863517  1.0000
  H   H5        1.0  0.16136163424743294  0.2367058785670799  0.6805482524097242  1.0000
  H   H6        1.0  0.28901042309592667  0.238916831684447  0.6822448497027979  1.0000
  H   H7        1.0  0.3875376345137472  0.22011635471279176  0.539763232429264  1.0000
  C   C14       1.0  0.8361122495464257  0.038089294751973306  0.5674510148008629  1.0000
  C   C15       1.0  0.8407053853382693  0.04760758549942313  0.43098763275232493  1.0000
  C   C16       1.0  0.8430996835994565  0.9352911029448275  0.3618479286842924  1.0000
  C   C17       1.0  0.8408383326096674  0.8123196518151363  0.43100309892355665  1.0000
  C   C18       1.0  0.8362435592674141  0.8008098347310917  0.5674664192093674  1.0000
  C   C19       1.0  0.833906761351498  0.9142515040779489  0.6349261815400089  1.0000
  C   C20       1.0  0.8479597639019304  0.9464143273438953  0.21748104645990063  1.0000
  C   C21       1.0  0.8083635083095574  0.03999844570915312  0.1430275726848711  1.0000
  C   C22       1.0  0.812999975333902  0.05027204594693257  0.007153334040517433  1.0000
  C   C23       1.0  0.8571655818780302  0.9674832808630566  0.9440408016047508  1.0000
  C   C24       1.0  0.8967505244555307  0.8742109851883219  0.01698312704405591  1.0000
  C   C25       1.0  0.8922376726014508  0.863544932725288  0.15287198682561987  1.0000
  Cl  Cl1       1.0  0.8629051581781338  0.980619210548326  0.7735627298969967  1.0000
  H   H8        1.0  0.8343263225019727  0.361916166084052  0.619447034175904  1.0000
  H   H9        1.0  0.84339240849062  0.1426001207460607  0.3782570272921053  1.0000
  H   H10       1.0  0.8417087751334921  0.7254689856017501  0.37805926326181205  1.0000
  H   H11       1.0  0.8303626635483091  0.9061403933742219  0.7402013991177623  1.0000
  H   H12       1.0  0.8345204509490624  0.46897026518606394  0.6194702283055656  1.0000
  H   H13       1.0  0.7731651642552214  0.10404643566652581  0.189774973859645  1.0000
  H   H14       1.0  0.7820972839597738  0.12242091920291157  0.9510495431907228  1.0000
  H   H15       1.0  0.9311726668490606  0.8101171764760972  0.9685464610652423  1.0000
  H   H16       1.0  0.924023767885704  0.7916874661205997  0.20748138869397725  1.0000
  C   C26       1.0  0.8362015648693988  0.4193350275177101  0.18610664246087905  1.0000
  C   C27       1.0  0.7680190760494906  0.3701467965851417  0.18893823518543051  1.0000
  C   C28       1.0  0.7334461168055464  0.34533858771097425  0.07322521291581972  1.0000
  C   C29       1.0  0.7679712935026141  0.3703781749694919  0.9536335371289815  1.0000
  C   C30       1.0  0.8361542247277032  0.41956417868953855  0.9488107999206741  1.0000
  C   C31       1.0  0.869887442739296  0.44376767165803205  0.06556660884231014  1.0000
  C   C32       1.0  0.6613129953725748  0.29330085693877894  0.0772742225679286  1.0000
  C   C33       1.0  0.6417329129408768  0.19488035555228733  0.17257436213324584  1.0000
  C   C34       1.0  0.5738379955452025  0.1459579722883959  0.17625158726489087  1.0000
  C   C35       1.0  0.524449136872328  0.19456523583356922  0.08495653888613286  1.0000
  C   C36       1.0  0.5435698053470714  0.29259634273545876  0.989815835793772  1.0000
  C   C37       1.0  0.6114438381251215  0.34162002164924804  0.9858723362366535  1.0000
  N   N4        1.0  0.45500838314190595  0.14446937798205894  0.08885420850939217  1.0000
  H   H17       1.0  0.8621940439927466  0.43802431025637384  0.5124852735034797  1.0000
  H   H18       1.0  0.7412912569377604  0.352688186722949  0.28122820058519005  1.0000
  H   H19       1.0  0.7418984568491582  0.3497460983668947  0.8643072257116996  1.0000
  H   H20       1.0  0.9224872446616936  0.4817132401276354  0.06261417825876746  1.0000
  H   H21       1.0  0.8621245734214334  0.43836137263464403  0.6195155148097972  1.0000
  H   H22       1.0  0.679170363241027  0.15455035914165438  0.24321686996509023  1.0000
  H   H23       1.0  0.5597828498346787  0.06993532388071744  0.2500708312146227  1.0000
  H   H24       1.0  0.5058414755195528  0.331261526321144  0.9189032915272295  1.0000
  H   H25       1.0  0.6246853756083292  0.41851050823978  0.9123852688486126  1.0000
  H   H26       1.0  0.41782852525065334  0.18008722520448472  0.02119683897321244  1.0000
  H   H27       1.0  0.4402645114423273  0.07139311829146555  0.15942649673253917  1.0000
  Zn  Zn1       1.0  0.759903684324607  0.4195777559621152  0.5674738545463824  1.0000
  Zn  Zn2       1.0  0.9124454522495681  0.41932080356278223  0.5674430292013308  1.0000
  C   C38       1.0  0.8361607382154773  0.41434721066370717  0.8046433081181051  1.0000
  C   C39       1.0  0.8361900643842374  0.42455298469754715  0.3302737027870184  1.0000
  C   C40       1.0  0.8362154712635392  0.6566379039221322  0.5622886015977824  1.0000
  C   C41       1.0  0.8361352790114319  0.1822607312598792  0.5726284785218304  1.0000
  O   O1        1.0  0.8940750096904273  0.42620100100983493  0.37864578704226426  1.0000
  O   O2        1.0  0.8940514650426242  0.4125031936003276  0.7562474542898203  1.0000
  O   O3        1.0  0.894094882218543  0.6081559943106856  0.5605443142599531  1.0000
  O   O4        1.0  0.8940315404699775  0.23054820964804046  0.5743488297124643  1.0000
  O   O5        1.0  0.7783175440491796  0.6083503499659544  0.5605680540389375  1.0000
  O   O6        1.0  0.7782741271429865  0.41269910952393607  0.7562711248580036  1.0000
  O   O7        1.0  0.7782976719261803  0.4263968712088029  0.3786678962776895  1.0000
  O   O8        1.0  0.7782542026952433  0.23074407058754187  0.5743710363112451  1.0000
