data_image0
_chemical_formula_structural       NC8NC6H8C7OH6C7H8Zn2C4O8
_chemical_formula_sum              "N2 C32 H22 O9 Zn2"
_cell_length_a       17.457602349358154
_cell_length_b       9.274078303013077
_cell_length_c       9.274345330872308
_cell_angle_alpha    85.29477198450357
_cell_angle_beta     92.4462132353122
_cell_angle_gamma    91.09880916489897

_space_group_name_H-M_alt    "P 1"
_space_group_IT_number       1

loop_
  _space_group_symop_operation_xyz
  'x, y, z'

loop_
  _atom_site_type_symbol
  _atom_site_label
  _atom_site_symmetry_multiplicity
  _atom_site_fract_x
  _atom_site_fract_y
  _atom_site_fract_z
  _atom_site_occupancy
  N   N1        1.0  0.7198826160261863  0.6247189808947471  0.47843896817591736  1.0000
  C   C1        1.0  0.6591283095815601  0.5738314208638826  0.4665151648590695  1.0000
  C   C2        1.0  0.5835472920513386  0.5105335563378  0.451692569413193  1.0000
  C   C3        1.0  0.5244402506738514  0.5544628973960717  0.5350063315495736  1.0000
  C   C4        1.0  0.4502818270434966  0.4935110914532069  0.5208723397002056  1.0000
  C   C5        1.0  0.38755050938298985  0.5398919255669044  0.6091044072724401  1.0000
  C   C6        1.0  0.3131439727617669  0.5608793308625684  0.5472133940785999  1.0000
  C   C7        1.0  0.25403754721091204  0.6046035608227398  0.6306465479341321  1.0000
  C   C8        1.0  0.17819919057966932  0.6262828216386922  0.56629626438723  1.0000
  N   N2        1.0  0.117238105992853  0.6437058641189068  0.5145587859348384  1.0000
  C   C9        1.0  0.2688417458525618  0.6276058551788296  0.7765362889745817  1.0000
  C   C10       1.0  0.342459497157145  0.6070468720333095  0.8388589725614073  1.0000
  C   C11       1.0  0.4015511756623562  0.5635185236226212  0.7559347858838112  1.0000
  C   C12       1.0  0.43652961041119914  0.3878904567798378  0.4218309124996773  1.0000
  C   C13       1.0  0.49562145900556676  0.34426698175692727  0.3389622849699736  1.0000
  C   C14       1.0  0.5689919661208082  0.4053387370901576  0.3537075005585664  1.0000
  H   H1        1.0  0.5360326861722287  0.6373527619112187  0.6092372023762707  1.0000
  H   H2        1.0  0.3013482066050543  0.5451508899104505  0.43383844882143974  1.0000
  H   H3        1.0  0.22353040443701921  0.6613748266682049  0.8419814671921055  1.0000
  H   H4        1.0  0.3537338771884545  0.6245076769135722  0.9518237486616231  1.0000
  H   H5        1.0  0.45791925868724653  0.5464745733499048  0.807108384961981  1.0000
  H   H6        1.0  0.38036520295562554  0.3376577835329296  0.4098686780036634  1.0000
  H   H7        1.0  0.48454152258886696  0.26262691432825536  0.2634034775638856  1.0000
  H   H8        1.0  0.6143062738640421  0.37059988486466056  0.2888276058466528  1.0000
  C   C15       1.0  0.920854567832785  0.21086448694374685  0.49541331835363334  1.0000
  C   C16       1.0  0.9065573460889105  0.29464231786291495  0.36383844255906994  1.0000
  C   C17       1.0  0.8856155455830617  0.22949842416631894  0.23658902809557494  1.0000
  C   C18       1.0  0.8787675542681492  0.07849045707166424  0.2408160318916173  1.0000
  C   C19       1.0  0.893938463514015  0.9937163235223206  0.36978447346843935  1.0000
  C   C20       1.0  0.9162735042902947  0.0575494636284506  0.49759758916798963  1.0000
  C   C21       1.0  0.870363914797306  0.3207149319741409  0.10089142709606835  1.0000
  O   O1        1.0  0.8511214063395895  0.2653726609072673  0.9848749664350378  1.0000
  H   H9        1.0  0.9170566891891098  0.2845923615728203  0.850388651617749  1.0000
  H   H10       1.0  0.9099994564632938  0.41169621904249126  0.36103869024971647  1.0000
  H   H11       1.0  0.8623817779811096  0.025584847542676988  0.14405366722868096  1.0000
  H   H12       1.0  0.8899450108154429  0.8770942635446424  0.3686494733762853  1.0000
  H   H13       1.0  0.9170751626430396  0.7568714423229013  0.7363399958180754  1.0000
  H   H14       1.0  0.8756630042229836  0.4372943244502679  0.09985667153496226  1.0000
  C   C22       1.0  0.9202809903426729  0.6375313489256449  0.07286900644948302  1.0000
  C   C23       1.0  0.8740788283120702  0.7368960036216604  0.13424068746625029  1.0000
  C   C24       1.0  0.8233554906920156  0.8244480028481909  0.04787258552994489  1.0000
  C   C25       1.0  0.8170547787349518  0.8135388822096625  0.8983230644439214  1.0000
  C   C26       1.0  0.8644238768928509  0.7182844162144879  0.8350656227610105  1.0000
  C   C27       1.0  0.9168470450012369  0.6308826348302572  0.9201418230775715  1.0000
  C   C28       1.0  0.7636751685055839  0.9100487927868519  0.8052462195508192  1.0000
  H   H15       1.0  0.010001869608222688  0.32772994792407983  0.20839663007153764  1.0000
  H   H16       1.0  0.8759892432794151  0.7447253761147175  0.25025509976452187  1.0000
  H   H17       1.0  0.7883296498669027  0.8998036994939971  0.09808746968094287  1.0000
  H   H18       1.0  0.8615389815256184  0.7148588246942443  0.7184012302680749  1.0000
  H   H19       1.0  0.9800279518188796  0.42542696074132996  0.6613494038839255  1.0000
  H   H20       1.0  0.7944453685009644  0.01163945299894787  0.7692266839178088  1.0000
  H   H21       1.0  0.7132006129242515  0.9370104825421212  0.8663231820002006  1.0000
  H   H22       1.0  0.7424230822886295  0.855743544445624  0.7085491433551838  1.0000
  Zn  Zn1       1.0  0.8345508142707035  0.6301942538299918  0.4888706869082553  1.0000
  Zn  Zn2       1.0  0.0025699095823803505  0.6382186786237027  0.50413884765175  1.0000
  C   C29       1.0  0.9175255155235964  0.6263961218123044  0.7599741769647832  1.0000
  C   C30       1.0  0.919597032677081  0.6420187161471269  0.2330356706092811  1.0000
  C   C31       1.0  0.9171587645218185  0.8975529199896425  0.49143558247794733  1.0000
  C   C32       1.0  0.9199637354054164  0.37086018257541875  0.5015743323303288  1.0000
  O   O2        1.0  0.9831298952978197  0.6465636555717997  0.2925832374482915  1.0000
  O   O3        1.0  0.9815152661146718  0.6279404508269875  0.7120143727634762  1.0000
  O   O4        1.0  0.9812182444157271  0.8469029417786551  0.49516748351772294  1.0000
  O   O5        1.0  0.9834268600458201  0.42760117304358924  0.5094300133438567  1.0000
  O   O6        1.0  0.8536938064706152  0.8408117566733917  0.4835795159982906  1.0000
  O   O7        1.0  0.8539908191063528  0.6218509983793805  0.7004263327919743  1.0000
  O   O8        1.0  0.8556054556418927  0.640474166499728  0.2809934628994806  1.0000
  O   O9        1.0  0.8559024200041879  0.4215116728113475  0.4978403469273763  1.0000
