data_image0
_chemical_formula_structural       NC9NC4H8C7NC2NH8C7NC2NH8Zn2C4O8
_chemical_formula_sum              "N6 C35 H24 Zn2 O8"
_cell_length_a       16.32274767691083
_cell_length_b       9.273995741505848
_cell_length_c       9.27399911348925
_cell_angle_alpha    85.20991922917831
_cell_angle_beta     89.127461349941
_cell_angle_gamma    90.10890436374608

_space_group_name_H-M_alt    "P 1"
_space_group_IT_number       1

loop_
  _space_group_symop_operation_xyz
  'x, y, z'

loop_
  _atom_site_type_symbol
  _atom_site_label
  _atom_site_symmetry_multiplicity
  _atom_site_fract_x
  _atom_site_fract_y
  _atom_site_fract_z
  _atom_site_occupancy
  N   N1        1.0  0.7859737188816994  0.5816799719523107  0.3998554309548974  1.0000
  C   C1        1.0  0.7335470396321085  0.5295281511582912  0.3393854316849454  1.0000
  C   C2        1.0  0.6683802150238428  0.4647551838186712  0.26428120908209185  1.0000
  C   C3        1.0  0.6797781628008118  0.3761573650738579  0.16154722718046188  1.0000
  C   C4        1.0  0.6003369905658618  0.3329211254381279  0.11141645079170791  1.0000
  C   C5        1.0  0.5415145206792304  0.39619629332033  0.18479001731824155  1.0000
  C   C6        1.0  0.4515478023530842  0.3794732012682289  0.16540196475804225  1.0000
  C   C7        1.0  0.39608077056433894  0.4532245669986883  0.2509153779493025  1.0000
  C   C8        1.0  0.3113472731958851  0.4389322114285048  0.23434512021461984  1.0000
  C   C9        1.0  0.2554722811780292  0.514950837159569  0.32248651989620125  1.0000
  N   N2        1.0  0.2105677086039635  0.5760573067541362  0.39333727768130733  1.0000
  C   C10       1.0  0.2810275584855434  0.3507692054780136  0.13212384492212248  1.0000
  C   C11       1.0  0.33517284132542324  0.27711552553949836  0.046724079810194885  1.0000
  C   C12       1.0  0.4197468703216243  0.29102291261677005  0.06284783733400157  1.0000
  C   C13       1.0  0.5794297713987497  0.488458530946639  0.29177015235838444  1.0000
  H   H1        1.0  0.7386255156770365  0.34170587295355936  0.12159631672665495  1.0000
  H   H2        1.0  0.5919152518294467  0.2605102403759769  0.027451890110193892  1.0000
  H   H3        1.0  0.41831340636870534  0.5220506548523087  0.3307164346012672  1.0000
  H   H4        1.0  0.21561523509614344  0.3389952631442221  0.1184736391782766  1.0000
  H   H5        1.0  0.31154524729474514  0.20891321968616808  0.9676465618030258  1.0000
  H   H6        1.0  0.4594252331187765  0.2321047059461863  0.9945339607045782  1.0000
  H   H7        1.0  0.5620490040415665  0.4489050786432989  0.4044888395918651  1.0000
  H   H8        1.0  0.5634010409912404  0.6042171981116183  0.267415609448896  1.0000
  C   C14       1.0  0.9958279681515262  0.15542114686497377  0.3955795055226883  1.0000
  C   C15       1.0  0.010656606644854797  0.23959577450926964  0.2648266233983969  1.0000
  C   C16       1.0  0.03279786575325194  0.17527584244473338  0.13937503708611998  1.0000
  C   C17       1.0  0.041028494951242944  0.024704779045573888  0.1410885034437952  1.0000
  C   C18       1.0  0.024483531031018295  0.9392856778926111  0.270672099750489  1.0000
  C   C19       1.0  0.0007212047238014381  0.002304728169825638  0.397625515520041  1.0000
  C   C20       1.0  0.06549822415864814  0.9585494163592316  0.006590765528196483  1.0000
  N   N3        1.0  0.06892855440038748  0.033928726695280575  0.8753887436564649  1.0000
  C   C21       1.0  0.09381182769027596  0.9365008924719856  0.7842330462878229  1.0000
  C   C22       1.0  0.10524158237170453  0.8047689605602597  0.8606783651622725  1.0000
  N   N4        1.0  0.08747044985638447  0.8187899173842595  0.0005011376842467602  1.0000
  H   H9        1.0  0.9286810468531779  0.41910615637187565  0.6043324028249812  1.0000
  H   H10       1.0  0.00710756328497597  0.35652712146221566  0.2602260391424991  1.0000
  H   H11       1.0  0.044694255085415246  0.24417063677297215  0.04114630795444785  1.0000
  H   H12       1.0  0.027250977843184858  0.822669538559425  0.2726297720513686  1.0000
  H   H13       1.0  0.0009772420669209572  0.7021839227555227  0.63763783283373  1.0000
  H   H14       1.0  0.10326742784651732  0.960397719852698  0.6690157855208101  1.0000
  H   H15       1.0  0.12550885970923875  0.705761052597693  0.8175811806621045  1.0000
  H   H16       1.0  0.09163631539261563  0.73746054674384  0.08480349849850755  1.0000
  C   C23       1.0  0.9997108782250446  0.5825347178143645  0.9727383317915664  1.0000
  C   C24       1.0  0.06362477201500938  0.5126353122127998  0.05006874535733031  1.0000
  C   C25       1.0  0.12205612073138324  0.4325419544742133  0.9803209180518988  1.0000
  C   C26       1.0  0.11814052278477982  0.4195886114009493  0.831052062559813  1.0000
  C   C27       1.0  0.05547373440454683  0.49190683202424573  0.7521499592897913  1.0000
  C   C28       1.0  0.9968382926889936  0.5751912134646502  0.8204666746141469  1.0000
  C   C29       1.0  0.1805179285726426  0.3325150991098511  0.7591829218001078  1.0000
  N   N5        1.0  0.24883420614647744  0.28122344589995274  0.8260467916512182  1.0000
  C   C30       1.0  0.2880783665944755  0.20854759965705383  0.7259406246289677  1.0000
  C   C31       1.0  0.24336782141570265  0.21632666526983127  0.6011029195718574  1.0000
  N   N6        1.0  0.17571962446630573  0.2942255540821146  0.6221673331734539  1.0000
  H   H17       1.0  0.913551529023055  0.7656972723664301  0.241094053209004  1.0000
  H   H18       1.0  0.06736084421423905  0.5168772512616925  0.16617329080513388  1.0000
  H   H19       1.0  0.16979537114946774  0.37878466909141095  0.044182725621058745  1.0000
  H   H20       1.0  0.05342459945731437  0.4880320157095448  0.6360666481145745  1.0000
  H   H21       1.0  0.8694789334353633  0.658268851849451  0.5368635273011493  1.0000
  H   H22       1.0  0.3457175641482697  0.15289812147524898  0.7432867606479898  1.0000
  H   H23       1.0  0.25881551657458446  0.16796908896775853  0.5020525004224248  1.0000
  H   H24       1.0  0.1294966187097375  0.3166959857971434  0.5472262651198485  1.0000
  Zn  Zn1       1.0  0.908502328180128  0.580053449864024  0.39798275906945113  1.0000
  Zn  Zn2       1.0  0.08803899704009654  0.5776718935992855  0.3952217456645519  1.0000
  C   C32       1.0  0.9973462529472811  0.570834796156548  0.6602140500272444  1.0000
  C   C33       1.0  0.9991970428401941  0.5868923394901415  0.13299057062203734  1.0000
  C   C34       1.0  0.9998115511328393  0.8422756280857175  0.3914870318419963  1.0000
  C   C35       1.0  0.9967316731205282  0.31544977524801987  0.4017176625176424  1.0000
  O   O1        1.0  0.06715778881201115  0.5874447180684601  0.18572488049929836  1.0000
  O   O2        1.0  0.06564967956705159  0.5684737872576255  0.6053837767299823  1.0000
  O   O3        1.0  0.0676395154755724  0.7876656910605435  0.3883848260044407  1.0000
  O   O4        1.0  0.0651678920661154  0.3682528263309732  0.40272372396694966  1.0000
  O   O5        1.0  0.9313733718870908  0.7894725179466795  0.39048078170166356  1.0000
  O   O6        1.0  0.9293835462456591  0.5702823472710581  0.6074796596514584  1.0000
  O   O7        1.0  0.9308916611352405  0.5892532428647714  0.18781902791367355  1.0000
  O   O8        1.0  0.9289017639597006  0.370061339876197  0.40481797957382537  1.0000
