data_image0
_chemical_formula_structural       NC8NH4C6BrH5C6OCH6Zn2C4O8
_chemical_formula_sum              "N2 C25 H15 Br1 O9 Zn2"
_cell_length_a       13.859017124695912
_cell_length_b       9.276564384272257
_cell_length_c       9.273891588657152
_cell_angle_alpha    86.03089208269444
_cell_angle_beta     89.68011635111247
_cell_angle_gamma    90.58596084768166

_space_group_name_H-M_alt    "P 1"
_space_group_IT_number       1

loop_
  _space_group_symop_operation_xyz
  'x, y, z'

loop_
  _atom_site_type_symbol
  _atom_site_label
  _atom_site_symmetry_multiplicity
  _atom_site_fract_x
  _atom_site_fract_y
  _atom_site_fract_z
  _atom_site_occupancy
  N   N1        1.0  0.9252393352028884  0.5638721125639687  0.40875921189363185  1.0000
  C   C1        1.0  0.8529346370412457  0.5405071982640681  0.3526147966915847  1.0000
  C   C2        1.0  0.76299188483173  0.5114446549825464  0.28277835955579134  1.0000
  C   C3        1.0  0.6753162942391685  0.5397776793073603  0.3508600986928032  1.0000
  C   C4        1.0  0.5877615754948269  0.5114458755272338  0.28277777921577396  1.0000
  C   C5        1.0  0.5880648817337502  0.45477335931684526  0.14659282155942166  1.0000
  C   C6        1.0  0.675557678477605  0.42654923504602055  0.0787731473953055  1.0000
  C   C7        1.0  0.7629302201899448  0.45477102059070207  0.14659400190482574  1.0000
  C   C8        1.0  0.4976948064978742  0.5405081202846814  0.3526142978876674  1.0000
  N   N2        1.0  0.4252904637940575  0.5638724332112699  0.40875899560980966  1.0000
  H   H1        1.0  0.6752227367285877  0.5836444023940242  0.45627051792344253  1.0000
  H   H2        1.0  0.5208170142832487  0.432474181438313  0.09300503830359585  1.0000
  H   H3        1.0  0.6756511176900674  0.382772100355665  0.9735762014326488  1.0000
  H   H4        1.0  0.8302731924280505  0.4324697510891095  0.0930072196606242  1.0000
  C   C9        1.0  0.17236108420054916  0.14039464646208755  0.40912770311859137  1.0000
  C   C10       1.0  0.1604797689359505  0.22270522730349815  0.2773887217603157  1.0000
  C   C11       1.0  0.15757372961093316  0.15653875988917187  0.14688024473466466  1.0000
  C   C12       1.0  0.16653666822583182  0.007120348563494977  0.14563266228863747  1.0000
  C   C13       1.0  0.17672546884749152  0.9230984623296976  0.27537952840332225  1.0000
  C   C14       1.0  0.17817782835896612  0.9873389135564679  0.4084029503836344  1.0000
  Br  Br1       1.0  0.1632725309018357  0.9171467040886878  0.9665522290009254  1.0000
  H   H5        1.0  0.14320609649798155  0.40506147126993947  0.6434635103717685  1.0000
  H   H6        1.0  0.15572716170017253  0.3393393508907663  0.27492110459117547  1.0000
  H   H7        1.0  0.14927174993808823  0.2218530523179427  0.046479003119810125  1.0000
  H   H8        1.0  0.1812013038059468  0.8068304426488333  0.2722719142808996  1.0000
  H   H9        1.0  0.23058123523586627  0.6914319144591232  0.632895250745424  1.0000
  C   C15       1.0  0.17682392191501162  0.560047542211978  0.9854932863885199  1.0000
  C   C16       1.0  0.25626043127036136  0.620957782763458  0.05401483819046282  1.0000
  C   C17       1.0  0.3302977735406545  0.692636344179856  0.9741437319451283  1.0000
  C   C18       1.0  0.32516407704664374  0.7037660154104499  0.8226935977524272  1.0000
  C   C19       1.0  0.24774871330647752  0.6419825971344619  0.7528305944586804  1.0000
  C   C20       1.0  0.17371496422228588  0.5676859933205519  0.832037392255002  1.0000
  O   O1        1.0  0.4070870116540881  0.7517710517018381  0.049299711736196176  1.0000
  C   C21       1.0  0.4870646349577783  0.8276650123636009  0.9821583709029604  1.0000
  H   H10       1.0  0.946708477366349  0.4714756514897136  0.09658639908773137  1.0000
  H   H11       1.0  0.38112508097567144  0.7588331570956521  0.7577243219463217  1.0000
  H   H12       1.0  0.020215351390529872  0.502337561710203  0.5566507176639406  1.0000
  H   H13       1.0  0.46183424951776164  0.9252518429189034  0.9176793001563287  1.0000
  H   H14       1.0  0.5268050541694111  0.7560947751906193  0.9118069287995092  1.0000
  H   H15       1.0  0.5366932918129703  0.8621345147393655  0.06697240301859142  1.0000
  Zn  Zn1       1.0  0.06954323519654304  0.56386843006534  0.40876748089859105  1.0000
  Zn  Zn2       1.0  0.2809864319565778  0.563864458726099  0.40876255870796707  1.0000
  C   C22       1.0  0.17426103193301956  0.5604972759399298  0.672027363699246  1.0000
  C   C23       1.0  0.17627095615017274  0.5672374336321162  0.14550281576853807  1.0000
  C   C24       1.0  0.17709446387239902  0.8271966143977547  0.4027961862091094  1.0000
  C   C25       1.0  0.17343743987856097  0.30053636328595346  0.414734071589141  1.0000
  O   O2        1.0  0.2563269238047803  0.5696426284474718  0.1992016129711791  1.0000
  O   O3        1.0  0.25468555220895306  0.5580879753276933  0.6183244166760915  1.0000
  O   O4        1.0  0.25697249713442805  0.7734510775496879  0.4009183347397014  1.0000
  O   O5        1.0  0.25403990719581615  0.35427953556766556  0.416607586826651  1.0000
  O   O6        1.0  0.09648968780215772  0.7734533532266307  0.4009224527740036  1.0000
  O   O7        1.0  0.09420275505376761  0.5580919828958304  0.6183284563740243  1.0000
  O   O8        1.0  0.09584413273293846  0.5696465701259311  0.1992039197515405  1.0000
  O   O9        1.0  0.09355711565231628  0.3542834679067932  0.4166100016820278  1.0000
