data_image0
_chemical_formula_structural       NC6NC3H6C10H6C9H9Zn2C4O8
_chemical_formula_sum              "N2 C32 H21 Zn2 O8"
_cell_length_a       14.934028789175542
_cell_length_b       9.275150299802176
_cell_length_c       9.273585224739813
_cell_angle_alpha    85.81607574140205
_cell_angle_beta     90.07756044377105
_cell_angle_gamma    89.44625895822752

_space_group_name_H-M_alt    "P 1"
_space_group_IT_number       1

loop_
  _space_group_symop_operation_xyz
  'x, y, z'

loop_
  _atom_site_type_symbol
  _atom_site_label
  _atom_site_symmetry_multiplicity
  _atom_site_fract_x
  _atom_site_fract_y
  _atom_site_fract_z
  _atom_site_occupancy
  N   N1        1.0  0.8326787020334119  0.5620154840825917  0.4007977043194768  1.0000
  C   C1        1.0  0.7551980707228816  0.5609099559705408  0.4001252163826372  1.0000
  C   C2        1.0  0.6588082851700438  0.5595295979134378  0.39928574205085443  1.0000
  C   C3        1.0  0.610519796296355  0.6670317212909496  0.4645575782520657  1.0000
  C   C4        1.0  0.5170134931532078  0.6659234001625846  0.46388451232812744  1.0000
  C   C5        1.0  0.470882861654169  0.5573678189956852  0.39797312072119895  1.0000
  C   C6        1.0  0.3742257006982961  0.5596970017235382  0.399388610483141  1.0000
  N   N2        1.0  0.2967365396031601  0.5615455051998456  0.40051230835494867  1.0000
  C   C7        1.0  0.5191730552913666  0.4483784216327986  0.33179770813309295  1.0000
  C   C8        1.0  0.4714342043257703  0.3303559522933506  0.26013955527734733  1.0000
  C   C9        1.0  0.6133048936738759  0.45061767704573713  0.33315736415305985  1.0000
  H   H1        1.0  0.645149691846146  0.7517334286156643  0.5159863198664854  1.0000
  H   H2        1.0  0.48056663469066757  0.7499727800692302  0.5149170383926307  1.0000
  H   H3        1.0  0.42831658141909096  0.3785503003349373  0.1712707096025563  1.0000
  H   H4        1.0  0.4291257471919298  0.26829372230211584  0.34059489489434336  1.0000
  H   H5        1.0  0.5192670219616267  0.2539110249289849  0.21371823413236268  1.0000
  H   H6        1.0  0.6512393423243895  0.3676864073287016  0.2828040080727141  1.0000
  C   C10       1.0  0.0670771013037165  0.1380969966946648  0.4030663590511634  1.0000
  C   C11       1.0  0.11405245819503929  0.21899679437981012  0.2939994819701963  1.0000
  C   C12       1.0  0.15334265416196444  0.15164661455718376  0.17939616342339137  1.0000
  C   C13       1.0  0.14605585292737647  0.002415390640389428  0.17238364528514638  1.0000
  C   C14       1.0  0.10103473365283744  0.9200632106132185  0.2808015793658425  1.0000
  C   C15       1.0  0.0623467913925777  0.9854529585091694  0.39825616240027717  1.0000
  C   C16       1.0  0.20032626720835645  0.23626328348113645  0.0678362387089444  1.0000
  C   C17       1.0  0.23966343031505655  0.30713241324239  0.9744373282357253  1.0000
  C   C18       1.0  0.285725422608166  0.390125149021679  0.8650712774667633  1.0000
  C   C19       1.0  0.32505500089160644  0.46098898565697266  0.7716902709353479  1.0000
  H   H7        1.0  0.024857150752104935  0.4027822432056187  0.63195887818401  1.0000
  H   H8        1.0  0.11835712148121225  0.3354633563235631  0.29622335076274675  1.0000
  H   H9        1.0  0.17597923646223945  0.9493416985761652  0.08370505019037311  1.0000
  H   H10       1.0  0.09828973602369429  0.8040028902032559  0.2745808797953704  1.0000
  H   H11       1.0  0.004521776679990985  0.8585099617380423  0.7407254726158177  1.0000
  H   H12       1.0  0.35958965151326683  0.5232134522034617  0.6896940344011577  1.0000
  C   C20       1.0  0.0642671752045636  0.5574847315094427  0.9774343811292628  1.0000
  C   C21       1.0  0.14435792146465154  0.5252699474774094  0.05352442346461594  1.0000
  C   C22       1.0  0.22558802221801766  0.5060395474706428  0.9813228578237475  1.0000
  C   C23       1.0  0.22599466679981542  0.5198358475233461  0.8291850140842651  1.0000
  C   C24       1.0  0.14687601549758889  0.5493369923333002  0.7521060628806588  1.0000
  C   C25       1.0  0.06515674934293525  0.5660652442691436  0.8238881306678341  1.0000
  C   C26       1.0  0.3087685645683475  0.4728687942125737  0.07297484487467942  1.0000
  C   C27       1.0  0.37933978465857976  0.373804276376448  0.013255799805269582  1.0000
  C   C28       1.0  0.3970041299815841  0.5351051075166061  0.01623249839346275  1.0000
  H   H13       1.0  0.9165716408635836  0.538792646730976  0.2589164591751847  1.0000
  H   H14       1.0  0.14397027194678247  0.5183074931495428  0.17073372082887772  1.0000
  H   H15       1.0  0.28680014036991514  0.506738088890271  0.7682873393785132  1.0000
  H   H16       1.0  0.9313844343344206  0.6687146008885327  0.5347179852539785  1.0000
  H   H17       1.0  0.3029351985318976  0.4635697460831787  0.1927931353111647  1.0000
  H   H18       1.0  0.3675031978264074  0.3366897166258147  0.9038961290151629  1.0000
  H   H19       1.0  0.41687962882155594  0.30621528253402075  0.09713770935991306  1.0000
  H   H20       1.0  0.3958575849207  0.5957944130616963  0.908669334279553  1.0000
  H   H21       1.0  0.4448595157429027  0.5618155012827937  0.10185856252905756  1.0000
  Zn  Zn1       1.0  0.9665958135911877  0.561876076408335  0.40072368351303633  1.0000
  Zn  Zn2       1.0  0.16281953646960168  0.5616732138392948  0.40059817933629893  1.0000
  C   C29       1.0  0.06501868464894062  0.5586956288887976  0.6639228799806225  1.0000
  C   C30       1.0  0.06439879815507975  0.5648554810094479  0.13739911262093463  1.0000
  C   C31       1.0  0.06323029845684336  0.8252264522981514  0.3934222068165769  1.0000
  C   C32       1.0  0.06618712714716497  0.2983229250229411  0.4078998725060383  1.0000
  O   O1        1.0  0.13890888736126428  0.5672458922052215  0.19103714535584082  1.0000
  O   O2        1.0  0.13943786643961553  0.556150157064219  0.61018918377993  1.0000
  O   O3        1.0  0.1379927197115125  0.7713771839386729  0.39175796848876043  1.0000
  O   O4        1.0  0.1403539669603201  0.35201887462557724  0.4094682525690134  1.0000
  O   O5        1.0  0.989061316138926  0.7715304156927738  0.3918536103155601  1.0000
  O   O6        1.0  0.9905064531054978  0.5563051214661933  0.6102847389209101  1.0000
  O   O7        1.0  0.9899774725463301  0.5674007887646312  0.19113096800662954  1.0000
  O   O8        1.0  0.9914225523128906  0.3521737619608986  0.4095621833330378  1.0000
