data_image0
_chemical_formula_structural       NC10NC3NCH9C12NH11C12IH9Zn2C4O8
_chemical_formula_sum              "N4 C42 H29 I1 Zn2 O8"
_cell_length_a       19.437513618241372
_cell_length_b       10.299770795358612
_cell_length_c       10.29977335064465
_cell_angle_alpha    85.53972113204546
_cell_angle_beta     90.35638175706923
_cell_angle_gamma    89.53989505547142

_space_group_name_H-M_alt    "P 1"
_space_group_IT_number       1

loop_
  _space_group_symop_operation_xyz
  'x, y, z'

loop_
  _atom_site_type_symbol
  _atom_site_label
  _atom_site_symmetry_multiplicity
  _atom_site_fract_x
  _atom_site_fract_y
  _atom_site_fract_z
  _atom_site_occupancy
  N   N1        1.0  0.6479528644126081  0.41088109950643587  0.5756286233190617  1.0000
  C   C1        1.0  0.5890219508572416  0.42789196561473547  0.5726526477420805  1.0000
  C   C2        1.0  0.5155845081675889  0.4491454769114395  0.5689586821826298  1.0000
  C   C3        1.0  0.4738039724431788  0.34796077468859754  0.5572991059819221  1.0000
  C   C4        1.0  0.3979147517704071  0.3580279311124106  0.5500777666236674  1.0000
  C   C5        1.0  0.3583621527433551  0.43885256606573547  0.6158206458835329  1.0000
  C   C6        1.0  0.2821774308234972  0.43024735909840284  0.6073765006195677  1.0000
  C   C7        1.0  0.249022222165472  0.3089025384542854  0.6120195764737986  1.0000
  C   C8        1.0  0.1772855670532252  0.302533368064855  0.6048514843604211  1.0000
  C   C9        1.0  0.1377334634868682  0.4170362117111865  0.5934025477778488  1.0000
  C   C10       1.0  0.0638822575669308  0.41032892456658754  0.5860663630022157  1.0000
  N   N2        1.0  0.004510986193377202  0.4049368555992425  0.5801685288508571  1.0000
  C   C11       1.0  0.1701721222311176  0.5380702014084662  0.5895047490338305  1.0000
  C   C12       1.0  0.2418932322296557  0.544693337931341  0.5967348633833336  1.0000
  C   C13       1.0  0.38707316310814893  0.5311042957636918  0.705741044629848  1.0000
  N   N3        1.0  0.4440661630263285  0.5943233287943799  0.6853369652304545  1.0000
  C   C14       1.0  0.48789006006503677  0.5851029486568247  0.5722291210104897  1.0000
  H   H1        1.0  0.4961703006987725  0.2529101337502122  0.5451776247247733  1.0000
  H   H2        1.0  0.3731809581443956  0.28853760620390356  0.4917593167931527  1.0000
  H   H3        1.0  0.2784588717163548  0.21898790933824186  0.6230402126627232  1.0000
  H   H4        1.0  0.1526766249850784  0.20830695257212947  0.6087384172795548  1.0000
  H   H5        1.0  0.1400503923921398  0.6273290974817345  0.5807962641799793  1.0000
  H   H6        1.0  0.2660207201238211  0.6393325531518375  0.592832471723193  1.0000
  H   H7        1.0  0.3570848039038461  0.5514591761588312  0.7901079420309973  1.0000
  H   H8        1.0  0.5306553142998488  0.6554123795399245  0.5779927190135121  1.0000
  H   H9        1.0  0.4582154443779789  0.6132440394671641  0.48158341565686236  1.0000
  C   C15       1.0  0.8261728806982929  0.026541384860281337  0.5779374353948002  1.0000
  C   C16       1.0  0.8061927512073668  0.03608785396743985  0.4462726367069943  1.0000
  C   C17       1.0  0.7961317644232935  0.9237879256012004  0.3795227534664152  1.0000
  C   C18       1.0  0.806318673445202  0.8008041611330239  0.4462056871912417  1.0000
  C   C19       1.0  0.8262975579336771  0.7892664208087629  0.577871020574156  1.0000
  C   C20       1.0  0.8361131140778013  0.9026918705767107  0.6429994655684803  1.0000
  C   C21       1.0  0.7749942482903952  0.9349409359810755  0.2402290422559095  1.0000
  C   C22       1.0  0.7248933803110632  0.026967183186995095  0.1944039652018075  1.0000
  C   C23       1.0  0.7050282503051631  0.03733467975692939  0.063300038950723  1.0000
  C   C24       1.0  0.7348880967827597  0.956102242935203  0.9759362648941808  1.0000
  C   C25       1.0  0.7848237921612753  0.8642770892411947  0.020868680082836606  1.0000
  C   C26       1.0  0.8047440336218958  0.8536526568092868  0.15194333503623936  1.0000
  N   N4        1.0  0.7145393300608845  0.9668387227412146  0.841841675308385  1.0000
  H   H10       1.0  0.8337569764693921  0.3503564792713093  0.6281245876283563  1.0000
  H   H11       1.0  0.799320079753647  0.1311226295845076  0.394832889563016  1.0000
  H   H12       1.0  0.797719072936654  0.7139332073849662  0.39568405478192514  1.0000
  H   H13       1.0  0.8515263559879744  0.8945591746026346  0.7445730198360957  1.0000
  H   H14       1.0  0.833940349964042  0.45741707171031354  0.6280272987509329  1.0000
  H   H15       1.0  0.7004251165769099  0.08976699352554321  0.26029564552728046  1.0000
  H   H16       1.0  0.666236460846484  0.10847210035941934  0.029894546708520545  1.0000
  H   H17       1.0  0.8084411364497366  0.8011461099723022  0.9542768921975441  1.0000
  H   H18       1.0  0.844063131893924  0.7830171343858364  0.18391599880329593  1.0000
  H   H19       1.0  0.7365053962483027  0.9066963895271413  0.7759817470995256  1.0000
  H   H20       1.0  0.677357801305747  0.035009575659645346  0.807433518166203  1.0000
  C   C27       1.0  0.8262024388752179  0.4080105223574512  0.19653462930255383  1.0000
  C   C28       1.0  0.8885805004352101  0.47597405176993973  0.19098550708733564  1.0000
  C   C29       1.0  0.9202210162967254  0.5103033254661351  0.07104411785712261  1.0000
  C   C30       1.0  0.8886466452189569  0.47575879270407606  0.9557167549995059  1.0000
  C   C31       1.0  0.8262680077976542  0.4077972778366188  0.959273911502001  1.0000
  C   C32       1.0  0.7953954655490516  0.3743026376893215  0.08015544243924168  1.0000
  C   C33       1.0  0.9862115310150116  0.5822007533191638  0.06622762407683604  1.0000
  C   C34       1.0  0.9970511142355002  0.6850390676039129  0.14616708430868175  1.0000
  C   C35       1.0  0.05919737509886236  0.7525951921637148  0.14143243488908652  1.0000
  C   C36       1.0  0.11119485342180369  0.7183687415020625  0.057108125865055204  1.0000
  C   C37       1.0  0.1010190709330203  0.6164055575630207  0.9773197792350738  1.0000
  C   C38       1.0  0.03894256817123121  0.5486222982964275  0.9816493953497744  1.0000
  I   I1        1.0  0.2048890039665008  0.8204454630117584  0.05027362756107491  1.0000
  H   H21       1.0  0.802413578589308  0.38217866963314545  0.5260973255971203  1.0000
  H   H22       1.0  0.9131868618731185  0.5008107978117131  0.2802734293371296  1.0000
  H   H23       1.0  0.9123453885766236  0.5035513927669657  0.8629031910810672  1.0000
  H   H24       1.0  0.7472732448653602  0.32187301129351087  0.08366797313121466  1.0000
  H   H25       1.0  0.8025096009143315  0.38186492751518425  0.6331787363751826  1.0000
  H   H26       1.0  0.957161439824625  0.7142819727480136  0.21104733610286308  1.0000
  H   H27       1.0  0.06682458713659511  0.8317449238786347  0.20310835161385923  1.0000
  H   H28       1.0  0.14124700910897414  0.589393239858454  0.9121524945122289  1.0000
  H   H29       1.0  0.03251086859177099  0.4689117495496766  0.9201496588624117  1.0000
  Zn  Zn1       1.0  0.7508478418629322  0.4091622278151845  0.5769462512600655  1.0000
  Zn  Zn2       1.0  0.901616014125877  0.40664505479792007  0.5788615717305328  1.0000
  C   C39       1.0  0.826253229805614  0.40266394928361615  0.8151002553568616  1.0000
  C   C40       1.0  0.8262122728457685  0.4131449444199258  0.34070771587308357  1.0000
  C   C41       1.0  0.8262700091672549  0.6450966523737278  0.5727083868556293  1.0000
  C   C42       1.0  0.8261954417883796  0.17071068187257984  0.5830996530952756  1.0000
  O   O1        1.0  0.8834313079288015  0.4139071836054482  0.3898203753933205  1.0000
  O   O2        1.0  0.8834637487398281  0.3999902544070493  0.76744090599473  1.0000
  O   O3        1.0  0.8834765271071535  0.5957577406320436  0.5717077473013198  1.0000
  O   O4        1.0  0.8834184781076599  0.21813970755680656  0.585553436057505  1.0000
  O   O5        1.0  0.769045326431371  0.5976675759167016  0.5702543862726572  1.0000
  O   O6        1.0  0.7690325483100158  0.40190165000934486  0.7659874755846725  1.0000
  O   O7        1.0  0.76900010740313  0.415818534387721  0.3883653835841978  1.0000
  O   O8        1.0  0.7689872775860263  0.2200510490231298  0.5840985416171725  1.0000
