data_image0
_chemical_formula_structural       NC5NC4H6C7NH5C6NCOH5Zn2C4O8
_chemical_formula_sum              "N4 C27 H16 O9 Zn2"
_cell_length_a       13.854160002989762
_cell_length_b       9.275154477615127
_cell_length_c       9.27373355559583
_cell_angle_alpha    86.40037001266045
_cell_angle_beta     90.01106291040419
_cell_angle_gamma    89.43370676253429

_space_group_name_H-M_alt    "P 1"
_space_group_IT_number       1

loop_
  _space_group_symop_operation_xyz
  'x, y, z'

loop_
  _atom_site_type_symbol
  _atom_site_label
  _atom_site_symmetry_multiplicity
  _atom_site_fract_x
  _atom_site_fract_y
  _atom_site_fract_z
  _atom_site_occupancy
  N   N1        1.0  0.8983759224167936  0.5608913130881856  0.41645073541438826  1.0000
  C   C1        1.0  0.8258730333974847  0.5854632894210904  0.3575155182699945  1.0000
  C   C2        1.0  0.7356784165710543  0.6160314873735355  0.2841978504150362  1.0000
  C   C3        1.0  0.6483064017721527  0.5873252716072921  0.3557905619327548  1.0000
  C   C4        1.0  0.5605360041036697  0.6160315014506996  0.2841978273036776  1.0000
  C   C5        1.0  0.4707648930129058  0.5854631431223065  0.3575156092900216  1.0000
  N   N2        1.0  0.3986023522389745  0.5608912496065228  0.4164507350757592  1.0000
  C   C6        1.0  0.5601662456359917  0.674050385795433  0.14103377878793877  1.0000
  C   C7        1.0  0.6474912993063717  0.7049050677278375  0.0693461800582873  1.0000
  C   C8        1.0  0.6470866291644337  0.7630417676816144  0.9146962535150918  1.0000
  C   C9        1.0  0.7352433346751699  0.6740503835018938  0.14103368852145298  1.0000
  H   H1        1.0  0.6486186284780239  0.5423085182478896  0.46659646530886034  1.0000
  H   H2        1.0  0.4921459264788968  0.6952342571659424  0.08548113894722453  1.0000
  H   H3        1.0  0.7114886523722291  0.8309298088666763  0.8911845906607039  1.0000
  H   H4        1.0  0.5817801747049302  0.8309298114413178  0.8911846557407307  1.0000
  H   H5        1.0  0.6476812933644666  0.6717728343681064  0.8427963187216941  1.0000
  H   H6        1.0  0.8029688848118782  0.6952343687043192  0.08548105398335264  1.0000
  C   C10       1.0  0.1512867991125344  0.1374840805190587  0.41478292678831963  1.0000
  C   C11       1.0  0.12478493458030912  0.21929922901238452  0.2877054178591405  1.0000
  C   C12       1.0  0.09043239766749167  0.15196911879617891  0.16735939333125005  1.0000
  C   C13       1.0  0.0820161288486061  0.0019056326039994455  0.17267354232890675  1.0000
  C   C14       1.0  0.10941242017955166  0.9188517190349094  0.29685442075524393  1.0000
  C   C15       1.0  0.14570079774457523  0.984287535139973  0.4181310432154992  1.0000
  C   C16       1.0  0.06264629424604129  0.23734964074479392  0.03875026896874091  1.0000
  N   N3        1.0  0.04031397431442963  0.30598002793105206  0.935381475912282  1.0000
  H   H7        1.0  0.17002332216954016  0.21795232330251335  0.7685647566933667  1.0000
  H   H8        1.0  0.12872659181762813  0.3362127290118049  0.28342896131279316  1.0000
  H   H9        1.0  0.05509973414567049  0.9487863156992664  0.08018006410932356  1.0000
  H   H10       1.0  0.10434392695836503  0.8023827622704947  0.29672757989871434  1.0000
  H   H11       1.0  0.16241254647787007  0.6880615113255856  0.6551749327762277  1.0000
  C   C17       1.0  0.14846853083338063  0.5563430596976482  0.993211997200263  1.0000
  C   C18       1.0  0.05980885772419131  0.5480674347382999  0.0671307378223378  1.0000
  C   C19       1.0  0.9719499068916  0.5514764767120015  0.9921947295705125  1.0000
  C   C20       1.0  0.9726939841436932  0.5678479142042152  0.8409117236648989  1.0000
  C   C21       1.0  0.05991648536253824  0.5739720176315366  0.7657804838473563  1.0000
  C   C22       1.0  0.14851905737444984  0.5654285123161749  0.8397019515247157  1.0000
  N   N4        1.0  0.8829829274438233  0.5464194572902916  0.07218921914642995  1.0000
  C   C23       1.0  0.7964597503324622  0.48002390071019896  0.025144281875631783  1.0000
  O   O1        1.0  0.7964555321623865  0.40372045755191205  0.917491763950463  1.0000
  H   H12       1.0  0.3752622440473485  0.6564604629281496  0.08992129038906807  1.0000
  H   H13       1.0  0.9059692957060008  0.5774478006974277  0.7803350652390648  1.0000
  H   H14       1.0  0.30206976755483467  0.6267651327831363  0.5548382269732937  1.0000
  H   H15       1.0  0.8823843539944077  0.5847567480583971  0.1757597942389344  1.0000
  H   H16       1.0  0.7304074287819164  0.49211597947417546  0.0856129303681703  1.0000
  Zn  Zn1       1.0  0.042730496092839625  0.5608875239596667  0.4164590521588224  1.0000
  Zn  Zn2       1.0  0.2542478582760652  0.5608833669962061  0.41645420859912985  1.0000
  C   C24       1.0  0.14854524542675343  0.5579672091604772  0.6796744956035956  1.0000
  C   C25       1.0  0.1484354067128204  0.5638055025131581  0.15323891375720478  1.0000
  C   C26       1.0  0.14675135561504543  0.8241619923203575  0.4117547131444677  1.0000
  C   C27       1.0  0.15022923578024566  0.29760898788452006  0.421158766210225  1.0000
  O   O2        1.0  0.22869406806621811  0.566302098669546  0.20694354584163316  1.0000
  O   O3        1.0  0.22882337494226318  0.5554663657944487  0.625965768172801  1.0000
  O   O4        1.0  0.22737370424749193  0.7704220357950999  0.40961865421244814  1.0000
  O   O5        1.0  0.2301436665099521  0.35134643782470465  0.42329055177756697  1.0000
  O   O6        1.0  0.06683461567844784  0.7704244531340749  0.40962270897446307  1.0000
  O   O7        1.0  0.06828427493699629  0.5554705146050889  0.6259697529350017  1.0000
  O   O8        1.0  0.06815496835314949  0.5663061786367778  0.20694579755555442  1.0000
  O   O9        1.0  0.06960456686741522  0.3513505086390343  0.4232929115099848  1.0000
