data_image0
_chemical_formula_structural       NC5NC3H4C10H6C8H10Zn2C4O8
_chemical_formula_sum              "N2 C30 H20 Zn2 O8"
_cell_length_a       13.859018345313864
_cell_length_b       9.275150299802176
_cell_length_c       9.275657083861814
_cell_angle_alpha    85.52524859498646
_cell_angle_beta     89.50283416094544
_cell_angle_gamma    89.48388887768701

_space_group_name_H-M_alt    "P 1"
_space_group_IT_number       1

loop_
  _space_group_symop_operation_xyz
  'x, y, z'

loop_
  _atom_site_type_symbol
  _atom_site_label
  _atom_site_symmetry_multiplicity
  _atom_site_fract_x
  _atom_site_fract_y
  _atom_site_fract_z
  _atom_site_occupancy
  N   N1        1.0  0.9084064371829302  0.5708504980777913  0.40100617873760425  1.0000
  C   C1        1.0  0.8359898514447747  0.5315527857676292  0.4524856062088165  1.0000
  C   C2        1.0  0.7459078753545413  0.4826716955074071  0.5165191661651278  1.0000
  C   C3        1.0  0.6583679669140877  0.530325035310482  0.4540942855740871  1.0000
  C   C4        1.0  0.5706775733594645  0.4826714042770608  0.5165190422593209  1.0000
  C   C5        1.0  0.48074997306390055  0.5315526725261692  0.4524855095336458  1.0000
  N   N2        1.0  0.40845753523178047  0.5708504638083269  0.40100610990209495  1.0000
  C   C6        1.0  0.5707095443183103  0.38735034072808167  0.6413873558588892  1.0000
  C   C7        1.0  0.658067200739068  0.3398804405985368  0.7035720101985725  1.0000
  C   C8        1.0  0.7455748849119068  0.3873506370788688  0.6413875578457708  1.0000
  H   H1        1.0  0.6584844268705989  0.6041061385633929  0.35744285197696946  1.0000
  H   H2        1.0  0.5033548442783091  0.34984228560644687  0.6905215854979467  1.0000
  H   H3        1.0  0.6579509133121412  0.2662491273157497  0.800027415472709  1.0000
  H   H4        1.0  0.8128111002831329  0.34984281800520184  0.6905220078060732  1.0000
  C   C9        1.0  0.16096840164577822  0.14715730973802987  0.40341943959917637  1.0000
  C   C10       1.0  0.2123473005706759  0.22864975460155315  0.29436074418268143  1.0000
  C   C11       1.0  0.2554835874047503  0.16191213983393984  0.17975982886835085  1.0000
  C   C12       1.0  0.24768051975429725  0.01270861483337971  0.1727414970108032  1.0000
  C   C13       1.0  0.1984119478659636  0.9297690046040054  0.28115232821537606  1.0000
  C   C14       1.0  0.15590474948245014  0.9945325420583505  0.3986054199222724  1.0000
  C   C15       1.0  0.3068887604896681  0.2471339269540658  0.06820761745668924  1.0000
  C   C16       1.0  0.349927852741795  0.31850966888170457  0.9748151659085744  1.0000
  C   C17       1.0  0.4003246340734836  0.4020956253018652  0.8654566781914963  1.0000
  C   C18       1.0  0.44335542844298775  0.47346597694482906  0.7720821293198932  1.0000
  H   H5        1.0  0.11387848769980466  0.41065570457007006  0.6323294574332887  1.0000
  H   H6        1.0  0.21697032185868426  0.34510954531051774  0.29658768303750227  1.0000
  H   H7        1.0  0.2805428194777193  0.9601084343918173  0.08406446695910663  1.0000
  H   H8        1.0  0.1954974159005065  0.8137370100668353  0.2749287588975007  1.0000
  H   H9        1.0  0.09120779799812205  0.8658191717756692  0.7411041990708853  1.0000
  H   H10       1.0  0.48114005500781937  0.5361352055364091  0.6900915631643576  1.0000
  C   C19       1.0  0.16090739312150437  0.5686699313530859  0.9777049040770107  1.0000
  C   C20       1.0  0.21023241412427374  0.6786548592518742  0.042020443822728515  1.0000
  C   C21       1.0  0.251000609831346  0.7948150431144552  0.957621935517512  1.0000
  C   C22       1.0  0.24388171358244692  0.8000059612978085  0.8069535592938224  1.0000
  C   C23       1.0  0.19663686096892463  0.6906670175118892  0.7411817456541536  1.0000
  C   C24       1.0  0.15596578352147117  0.573019931728649  0.8243199780735941  1.0000
  C   C25       1.0  0.3047524549264886  0.91051567984945  0.02816452139893056  1.0000
  C   C26       1.0  0.41098299622855017  0.8693447883563281  0.04624302413894377  1.0000
  H   H11       1.0  0.11897161646694075  0.3384975735114495  0.2768395958483054  1.0000
  H   H12       1.0  0.21523728837378364  0.6759799299376656  0.15876066596581184  1.0000
  H   H13       1.0  0.2758839473782895  0.8881899611557381  0.7400663419902136  1.0000
  H   H14       1.0  0.19412025026055701  0.6962897399152885  0.6241754821806267  1.0000
  H   H15       1.0  0.04303406390227348  0.40673481024541425  0.5574302765748005  1.0000
  H   H16       1.0  0.29884229270745966  0.015259444406464423  0.9617291515545321  1.0000
  H   H17       1.0  0.27256224338415636  0.9268562617425293  0.13594818563394617  1.0000
  H   H18       1.0  0.41846528671044636  0.7667051014377511  0.11557431697873444  1.0000
  H   H19       1.0  0.4450180312980585  0.8560659038192389  0.939143647613495  1.0000
  H   H20       1.0  0.44926821295854524  0.9559551218580202  0.09831758625266285  1.0000
  Zn  Zn1       1.0  0.052710355303726454  0.5708466582184069  0.4010145144886412  1.0000
  Zn  Zn2       1.0  0.2641535952333933  0.570842523289774  0.40100968105117074  1.0000
  C   C27       1.0  0.1569320503790257  0.5664498486151527  0.6643242321438918  1.0000
  C   C28       1.0  0.15993419740735249  0.5752411540481555  0.13770009448460474  1.0000
  C   C29       1.0  0.15689047411147605  0.8343310926264484  0.3937710897839599  1.0000
  C   C30       1.0  0.15997571143410916  0.3073581769684433  0.40825332354688015  1.0000
  O   O1        1.0  0.2398492292569392  0.5774386527051352  0.19139414345500927  1.0000
  O   O2        1.0  0.23749755409879597  0.5642481210589656  0.6106261059325282  1.0000
  O   O3        1.0  0.2374628902928841  0.780565621141394  0.39215252077035134  1.0000
  O   O4        1.0  0.23988382148078857  0.3611211623900237  0.409867620477375  1.0000
  O   O5        1.0  0.0769800569011654  0.7805680191211  0.39215657505649504  1.0000
  O   O6        1.0  0.07701471079270525  0.5642522521100304  0.6106300735103862  1.0000
  O   O7        1.0  0.07936639643142884  0.5774427245728149  0.19139637821275857  1.0000
  O   O8        1.0  0.07940098808217533  0.3611252244933292  0.40986996336899395  1.0000
