data_image0
_chemical_formula_structural       NC8NH4C6ClH5C10H5Zn2C4O8
_chemical_formula_sum              "N2 C28 H14 Cl1 Zn2 O8"
_cell_length_a       14.927258825633057
_cell_length_b       9.276545438789551
_cell_length_c       9.275153671780862
_cell_angle_alpha    85.73418776908572
_cell_angle_beta     89.40940107803101
_cell_angle_gamma    89.40960858786079

_space_group_name_H-M_alt    "P 1"
_space_group_IT_number       1

loop_
  _space_group_symop_operation_xyz
  'x, y, z'

loop_
  _atom_site_type_symbol
  _atom_site_label
  _atom_site_symmetry_multiplicity
  _atom_site_fract_x
  _atom_site_fract_y
  _atom_site_fract_z
  _atom_site_occupancy
  N   N1        1.0  0.8436704014580231  0.5739904377040039  0.4104248515232188  1.0000
  C   C1        1.0  0.7661439772179336  0.5739904112804628  0.41042486116317267  1.0000
  C   C2        1.0  0.6697113351202139  0.5739904111317722  0.4104249162633201  1.0000
  C   C3        1.0  0.6238012280220863  0.4854571767147178  0.32060363101058553  1.0000
  C   C4        1.0  0.5300899172244887  0.4854570868216291  0.32060360248371356  1.0000
  C   C5        1.0  0.4818953379357224  0.5739904639432925  0.41042482844649597  1.0000
  C   C6        1.0  0.5278054456656388  0.6625237083970772  0.5002460055985966  1.0000
  C   C7        1.0  0.6215168234547535  0.6625237982872156  0.5002460341313935  1.0000
  C   C8        1.0  0.3854626971704426  0.5739903661951062  0.4104247734325055  1.0000
  N   N2        1.0  0.3079362722297022  0.5739904474077908  0.4104247850859634  1.0000
  H   H1        1.0  0.6603860622606694  0.41657312792857054  0.2507176488350773  1.0000
  H   H2        1.0  0.495282405904953  0.4165731045064072  0.2507177460851655  1.0000
  H   H3        1.0  0.4912206114270559  0.7314077571832247  0.5701319877741053  1.0000
  H   H4        1.0  0.6563242671509832  0.731407770568657  0.5701319986246509  1.0000
  C   C9        1.0  0.0785128540378599  0.15055466856433194  0.41018714031488757  1.0000
  C   C10       1.0  0.07969793191277619  0.2338655368956566  0.27709838076279647  1.0000
  C   C11       1.0  0.07271435973666396  0.16845295906265645  0.14690632225007838  1.0000
  C   C12       1.0  0.0643734753052263  0.018864104357673172  0.14780005041956357  1.0000
  C   C13       1.0  0.06458604615292685  0.9340085688839744  0.2784459640287169  1.0000
  C   C14       1.0  0.07310242261515443  0.9974151451774211  0.41067500633993054  1.0000
  Cl  Cl1       1.0  0.07306664432979848  0.27465308348042927  0.9822905176299219  1.0000
  H   H5        1.0  0.12288873935031505  0.4140938495164668  0.6368849729663992  1.0000
  H   H6        1.0  0.08391373277446589  0.35057879618935406  0.27424357537620203  1.0000
  H   H7        1.0  0.0585787857747746  0.9678847325078112  0.04707570001137131  1.0000
  H   H8        1.0  0.060223238776753625  0.81774131809782  0.27579451056912885  1.0000
  H   H9        1.0  0.0415896442270578  0.6992762864240459  0.6438367866644086  1.0000
  C   C15       1.0  0.07852594042934169  0.5729011975765359  0.9870008185889936  1.0000
  C   C16       1.0  0.10126575125607262  0.7003345286343521  0.05081793272872149  1.0000
  C   C17       1.0  0.11562682947387581  0.8291250935968091  0.9658997314818971  1.0000
  C   C18       1.0  0.10733107703948641  0.8320864451368273  0.8159609182359926  1.0000
  C   C19       1.0  0.08631208102525578  0.7062614295076051  0.7505263276478091  1.0000
  C   C20       1.0  0.07308933957767015  0.5750685540471967  0.8338613444357696  1.0000
  C   C21       1.0  0.1378776858326571  0.9589304343789311  0.033083573404391727  1.0000
  C   C22       1.0  0.15650829011105993  0.06760560877794575  0.08935786504468601  1.0000
  C   C23       1.0  0.17832379816854949  0.19485945173944552  0.155260639727274  1.0000
  C   C24       1.0  0.19695080081648086  0.303513848011018  0.21153226828925709  1.0000
  H   H10       1.0  0.10578411017437725  0.7004075338055047  0.16743336679735754  1.0000
  H   H11       1.0  0.11799014643085304  0.9314997300953514  0.7493115131206678  1.0000
  H   H12       1.0  0.0824738868968895  0.7107761634495535  0.6336972519314079  1.0000
  H   H13       1.0  0.08658431160569263  0.2204505659305651  0.75715823660659  1.0000
  H   H14       1.0  0.213306831009332  0.3989213165511525  0.2609436809859125  1.0000
  Zn  Zn1       1.0  0.9776474829097883  0.573986590388883  0.41043316537570873  1.0000
  Zn  Zn2       1.0  0.17395920348776217  0.5739824875029389  0.4104283047909648  1.0000
  C   C25       1.0  0.07415165334735917  0.5689145341125483  0.673783238159333  1.0000
  C   C26       1.0  0.077457164235883  0.5790563634639646  0.14707837452712846  1.0000
  C   C27       1.0  0.07415736828784625  0.8373257498223549  0.4048368351022178  1.0000
  C   C28       1.0  0.07745139288250358  0.3106434155407658  0.41602485346289453  1.0000
  O   O1        1.0  0.15159778824443348  0.5811142456398501  0.20080001643602108  1.0000
  O   O2        1.0  0.14900709252788658  0.5668524490881967  0.6200574914747734  1.0000
  O   O3        1.0  0.14901069350353158  0.7835979041551879  0.4028813690543058  1.0000
  O   O4        1.0  0.15159412090906052  0.3643688006125394  0.4179760307499296  1.0000
  O   O5        1.0  1.2498496973158896e-05  0.7836002772822328  0.4028854394108192  1.0000
  O   O6        1.0  8.886942703513803e-06  0.5668565544315833  0.6200614859467108  1.0000
  O   O7        1.0  0.0025995941691741025  0.5811182962984776  0.20080227727080563  1.0000
  O   O8        1.0  0.0025959262020120986  0.36437284123443625  0.41797839968534833  1.0000
