data_image0
_chemical_formula_structural       NC6NC2H4C6NH5C6ClH3Zn2C4O8
_chemical_formula_sum              "N3 C24 H12 Cl1 Zn2 O8"
_cell_length_a       14.927258858638513
_cell_length_b       9.274771166103582
_cell_length_c       10.302974078461048
_cell_angle_alpha    85.4557754151483
_cell_angle_beta     89.99986750987136
_cell_angle_gamma    90.59705168739299

_space_group_name_H-M_alt    "P 1"
_space_group_IT_number       1

loop_
  _space_group_symop_operation_xyz
  'x, y, z'

loop_
  _atom_site_type_symbol
  _atom_site_label
  _atom_site_symmetry_multiplicity
  _atom_site_fract_x
  _atom_site_fract_y
  _atom_site_fract_z
  _atom_site_occupancy
  N   N1        1.0  0.8537918183210205  0.5786602884325726  0.5653646609981084  1.0000
  C   C1        1.0  0.7762653269687029  0.5786602599152988  0.5653646705812185  1.0000
  C   C2        1.0  0.6798328201698876  0.578660375044191  0.5653646254878457  1.0000
  C   C3        1.0  0.6326272001394204  0.5549632811553404  0.45131086707479096  1.0000
  C   C4        1.0  0.5389158889620952  0.5549633067980462  0.45131074684074163  1.0000
  C   C5        1.0  0.4920167550283112  0.5786601974468379  0.5653646425577208  1.0000
  C   C6        1.0  0.39558418123797967  0.5786603125786955  0.5653645974590077  1.0000
  N   N2        1.0  0.3180576898856616  0.5786602840614214  0.5653646070421179  1.0000
  C   C7        1.0  0.5392223080672619  0.6023572913386537  0.6794184009654358  1.0000
  C   C8        1.0  0.6329336192445876  0.6023572656959482  0.6794185211994848  1.0000
  H   H1        1.0  0.6682041633744191  0.5365256060471477  0.36257049713012623  1.0000
  H   H2        1.0  0.5031005091426228  0.5365258036373882  0.36257049236012984  1.0000
  H   H3        1.0  0.5036454117531263  0.6207949561265519  0.7681588682680992  1.0000
  H   H4        1.0  0.6687489996920142  0.6207948662113759  0.7681588746113772  1.0000
  C   C9        1.0  0.08317872382645014  0.15506372505202506  0.5660722812158017  1.0000
  C   C10       1.0  0.0625643778231948  0.23837248163781902  0.44997420682804884  1.0000
  C   C11       1.0  0.05031414859713415  0.17332310071703128  0.3331395398418191  1.0000
  C   C12       1.0  0.05872523031240376  0.023587490235561517  0.331556702824922  1.0000
  C   C13       1.0  0.07768301667409873  0.9389593056962455  0.4460599292169184  1.0000
  C   C14       1.0  0.08867931400554781  0.0022457636188812887  0.5646682794211746  1.0000
  N   N3        1.0  0.030250201357912024  0.259731355301702  0.2157654802853526  1.0000
  H   H5        1.0  0.1839978709531972  0.23472402572083742  0.85019998318585  1.0000
  H   H6        1.0  0.04972391183681671  0.9721002712064551  0.2416642140262162  1.0000
  H   H7        1.0  0.15295414802243915  0.7051794412125483  0.75797571751383  1.0000
  H   H8        1.0  0.024077975541845213  0.3718052568187813  0.21572331354104393  1.0000
  H   H9        1.0  0.02133321829779035  0.21226134392187973  0.12800804506122  1.0000
  C   C15       1.0  0.08592902024864779  0.578654745485273  0.18412777332426677  1.0000
  C   C16       1.0  0.06937339173102175  0.4288338749597122  0.19360974051938418  1.0000
  C   C17       1.0  0.061158986320633206  0.3544968396789594  0.08135764283833757  1.0000
  C   C18       1.0  0.06937343232608068  0.42883395642496036  0.9585018414132637  1.0000
  C   C19       1.0  0.08592901748014459  0.5786546710256399  0.9466127925210883  1.0000
  C   C20       1.0  0.09412614670874025  0.6528348236903326  0.0600796327774158  1.0000
  Cl  Cl1       1.0  0.04047707616668818  0.1673349801345383  0.09470641520959044  1.0000
  H   H10       1.0  0.06278884384690644  0.3692466161293502  0.2879061700116816  1.0000
  H   H11       1.0  0.06278890631356115  0.36924659554624767  0.8727052039718824  1.0000
  H   H12       1.0  0.10689430414573667  0.768381175863616  0.051838530048619054  1.0000
  Zn  Zn1       1.0  0.9877689030431707  0.5786564219280164  0.565372153463062  1.0000
  Zn  Zn2       1.0  0.1840805393306395  0.5786523351440438  0.5653677839018343  1.0000
  C   C21       1.0  0.08588969619823789  0.5729081711627995  0.8024962939911257  1.0000
  C   C22       1.0  0.08596190170979259  0.5844024059227544  0.328243767733881  1.0000
  C   C23       1.0  0.08763496345299471  0.8421102944137305  0.5597601871479292  1.0000
  C   C24       1.0  0.08421655621513496  0.31519854960385474  0.5709799466664511  1.0000
  O   O1        1.0  0.16047213905321378  0.5863235292689768  0.3766087641773972  1.0000
  O   O2        1.0  0.16037544138947135  0.5709828578384174  0.7541276092331084  1.0000
  O   O3        1.0  0.16178376248414772  0.7883669769098942  0.5581164830956189  1.0000
  O   O4        1.0  0.159063751037675  0.3689394205177954  0.572619792956887  1.0000
  O   O5        1.0  0.01278562434461828  0.7883693365572302  0.558120144402669  1.0000
  O   O6        1.0  0.011377314498326685  0.5709869505566869  0.7541311984454441  1.0000
  O   O7        1.0  0.01147401189531028  0.5863275717203293  0.37661079258994784  1.0000
  O   O8        1.0  0.01006562380911746  0.3689434526518174  0.5726219187220971  1.0000
