data_image0
_chemical_formula_structural       NC8NC6H8C7ONH7C6OCH6Zn2C4O8
_chemical_formula_sum              "N3 C32 H21 O10 Zn2"
_cell_length_a       17.457602349358154
_cell_length_b       10.297852080636378
_cell_length_c       9.273891588657152
_cell_angle_alpha    86.07585780887825
_cell_angle_beta     92.54290593679646
_cell_angle_gamma    91.66731456120219

_space_group_name_H-M_alt    "P 1"
_space_group_IT_number       1

loop_
  _space_group_symop_operation_xyz
  'x, y, z'

loop_
  _atom_site_type_symbol
  _atom_site_label
  _atom_site_symmetry_multiplicity
  _atom_site_fract_x
  _atom_site_fract_y
  _atom_site_fract_z
  _atom_site_occupancy
  N   N1        1.0  0.726641446085114  0.44088424250402714  0.4759522102331777  1.0000
  C   C1        1.0  0.6656083552917775  0.39485734380612914  0.464174324431083  1.0000
  C   C2        1.0  0.5896805746301278  0.33760568179450545  0.4495332219763332  1.0000
  C   C3        1.0  0.5308964240585841  0.37843857890378474  0.5326376426640194  1.0000
  C   C4        1.0  0.45640424642660005  0.32331097680077403  0.5186782580213569  1.0000
  C   C5        1.0  0.394014141471266  0.36642661878392135  0.6066889946749618  1.0000
  C   C6        1.0  0.3196473512490795  0.3844033105426268  0.5448140848051428  1.0000
  C   C7        1.0  0.2608628813804277  0.4250532098907578  0.6280382941565954  1.0000
  C   C8        1.0  0.18506510955417146  0.4436161983826909  0.5637051232261401  1.0000
  N   N2        1.0  0.1241366183829439  0.45853446173122436  0.5119814215623115  1.0000
  C   C9        1.0  0.27595131049828564  0.44797411017033495  0.7737016513890602  1.0000
  C   C10       1.0  0.34953203553954  0.4303899073459416  0.836006624905665  1.0000
  C   C11       1.0  0.4083033529390298  0.38992415256451407  0.7532902923094931  1.0000
  C   C12       1.0  0.4419897342696855  0.22666023484422304  0.4200245217625002  1.0000
  C   C13       1.0  0.5007607882769831  0.1861096120183634  0.3373639321954114  1.0000
  C   C14       1.0  0.5744663631649036  0.2413544871574944  0.3519335308120122  1.0000
  H   H1        1.0  0.5430046850622319  0.45423633389854373  0.6065682495544307  1.0000
  H   H2        1.0  0.3076418988890256  0.36852544364712697  0.4316094859456432  1.0000
  H   H3        1.0  0.23088975642113282  0.47938390744317116  0.8389843068608924  1.0000
  H   H4        1.0  0.3610246734409984  0.44782237761468546  0.9487970189723961  1.0000
  H   H5        1.0  0.46464018438272586  0.37533894256679057  0.8044497728464437  1.0000
  H   H6        1.0  0.3855499141480036  0.1812227801938739  0.40820654602152606  1.0000
  H   H7        1.0  0.48917004816128756  0.11141786965555833  0.262103655643102  1.0000
  H   H8        1.0  0.6195264626028562  0.2090793844806473  0.28721803498728926  1.0000
  C   C15       1.0  0.9254744352334114  0.06827605409044858  0.49398315973635754  1.0000
  C   C16       1.0  0.915424690656591  0.07614388744204592  0.34249620968109984  1.0000
  C   C17       1.0  0.9096510661957417  0.9630113289010436  0.26574146505691787  1.0000
  C   C18       1.0  0.9152309348304545  0.8408826707914545  0.34242892257559476  1.0000
  C   C19       1.0  0.9253108955678545  0.8311330503010669  0.49396354394607656  1.0000
  C   C20       1.0  0.9301850770767903  0.9453303474655089  0.5687682133024397  1.0000
  C   C21       1.0  0.8992268190104182  0.9739302823319426  0.10573881124060236  1.0000
  O   O1        1.0  0.9199314690075195  0.07737133441230902  0.03583893004465999  1.0000
  N   N3        1.0  0.8651809569199408  0.870004513804006  0.02823502681625412  1.0000
  H   H9        1.0  0.9447464532994009  0.26069102610036876  0.7802423042160165  1.0000
  H   H10       1.0  0.9113954279338725  0.1706198762783815  0.2840297043686437  1.0000
  H   H11       1.0  0.9132330710591465  0.7531244057545943  0.28443814116417365  1.0000
  H   H12       1.0  0.9379286268454662  0.9385128764293731  0.6855209145526016  1.0000
  H   H13       1.0  0.945591719699299  0.6055025913196029  0.780182784393417  1.0000
  H   H14       1.0  0.8616511713037209  0.8780042302080124  0.9152969735198367  1.0000
  H   H15       1.0  0.8388230449535595  0.789148022435568  0.08123027292447782  1.0000
  C   C22       1.0  0.9266499282128903  0.44632028049191264  0.07081202627899219  1.0000
  C   C23       1.0  0.9894504374997121  0.5039721975995152  0.1450776646463965  1.0000
  C   C24       1.0  0.04789823288434536  0.5711301426062638  0.07056526395648687  1.0000
  C   C25       1.0  0.043754501450316674  0.5809709273610857  0.9187489983325126  1.0000
  C   C26       1.0  0.9825655546708013  0.5226040746796494  0.843287240038832  1.0000
  C   C27       1.0  0.9241354138341933  0.4530887762420617  0.917134706982583  1.0000
  O   O2        1.0  0.10860443838122036  0.6270897991398235  0.15127399094178395  1.0000
  C   C28       1.0  0.17175038966627598  0.698253272428168  0.08992078516779922  1.0000
  H   H16       1.0  0.7442297256120675  0.3584413690842674  0.165295075106364  1.0000
  H   H17       1.0  0.08792714678049807  0.6325326884787781  0.8578303915944949  1.0000
  H   H18       1.0  0.8024865601043734  0.3888262395623421  0.6306660932272248  1.0000
  H   H19       1.0  0.15114292565005735  0.78523718350449  0.023656786669224546  1.0000
  H   H20       1.0  0.20374495391914632  0.6352087868983141  0.022408526312169608  1.0000
  H   H21       1.0  0.211005821659273  0.7310438784305935  0.1783222751490552  1.0000
  Zn  Zn1       1.0  0.8413499425008472  0.44597429775656994  0.48635778262894774  1.0000
  Zn  Zn2       1.0  0.009428074947967604  0.4534338512089904  0.5015876471361012  1.0000
  C   C29       1.0  0.9246101216933399  0.4466347940837039  0.7571615955495552  1.0000
  C   C30       1.0  0.9261697303919573  0.4527750763681322  0.230784141918019  1.0000
  C   C31       1.0  0.9253549440019068  0.6868907402076763  0.48822464328878334  1.0000
  C   C32       1.0  0.9254248508363074  0.21251756774637998  0.49972116584808707  1.0000
  O   O3        1.0  0.9897933481483285  0.4577665597881062  0.29025189964446696  1.0000
  O   O4        1.0  0.9885539188435589  0.4473039559258898  0.709252537800011  1.0000
  O   O5        1.0  0.9891545079762459  0.6413136446940633  0.4920839681276179  1.0000
  O   O6        1.0  0.9891927019809811  0.2637568769021843  0.5074203560741981  1.0000
  O   O7        1.0  0.8615852581110381  0.6356512695191505  0.4805250684860655  1.0000
  O   O8        1.0  0.8609846688686387  0.4416431407045307  0.6976935612843775  1.0000
  O   O9        1.0  0.8622241033815502  0.45210568544949603  0.2786911906273226  1.0000
  O   O10       1.0  0.8616234568920677  0.2580959941370966  0.4958597550949315  1.0000
