data_image0
_chemical_formula_structural       NC5NC3H4C6ClH5C6NCH8Zn2C4O8
_chemical_formula_sum              "N3 C25 H17 Cl1 Zn2 O8"
_cell_length_a       13.859018345313864
_cell_length_b       9.276545438789551
_cell_length_c       9.274690524155615
_cell_angle_alpha    86.08901854457557
_cell_angle_beta     89.6873584993644
_cell_angle_gamma    89.40960550048821

_space_group_name_H-M_alt    "P 1"
_space_group_IT_number       1

loop_
  _space_group_symop_operation_xyz
  'x, y, z'

loop_
  _atom_site_type_symbol
  _atom_site_label
  _atom_site_symmetry_multiplicity
  _atom_site_fract_x
  _atom_site_fract_y
  _atom_site_fract_z
  _atom_site_occupancy
  N   N1        1.0  0.9036037684960537  0.5641994644797639  0.41110368927465757  1.0000
  C   C1        1.0  0.8313317971124614  0.5251093006416498  0.4623285646164445  1.0000
  C   C2        1.0  0.7414297020102832  0.4764863730511839  0.5260454958124341  1.0000
  C   C3        1.0  0.653714431398966  0.523888035708238  0.4639292911323855  1.0000
  C   C4        1.0  0.5661994000095418  0.4764860815464633  0.5260453701057923  1.0000
  C   C5        1.0  0.47609191862600675  0.5251091871195892  0.46232846724925575  1.0000
  N   N2        1.0  0.40365486642858184  0.5641994299834456  0.41110362023643277  1.0000
  C   C6        1.0  0.566582147623667  0.38166844721625015  0.6502962387601314  1.0000
  C   C7        1.0  0.6541144913272275  0.33444925568352724  0.7121734054118498  1.0000
  C   C8        1.0  0.7414474883848278  0.3816687441184339  0.6502964425666524  1.0000
  H   H1        1.0  0.653559380756697  0.597279471182919  0.36775577675689  1.0000
  H   H2        1.0  0.4993654744075692  0.34435848582874984  0.6991875089597286  1.0000
  H   H3        1.0  0.6542691636909473  0.2612068197693203  0.8081518617005395  1.0000
  H   H4        1.0  0.8088217308401223  0.3443590194312423  0.6991879345267965  1.0000
  C   C9        1.0  0.1565469009700619  0.14076221080528506  0.4108660796108068  1.0000
  C   C10       1.0  0.15739665776627262  0.22325332619285818  0.27783415641588727  1.0000
  C   C11       1.0  0.14945741887756392  0.15703883819406705  0.14769769720571002  1.0000
  C   C12       1.0  0.14047649186460887  0.007455489081559245  0.14859104370218135  1.0000
  C   C13       1.0  0.1411242818228848  0.9234046598561613  0.27918116418641814  1.0000
  C   C14       1.0  0.15072100246698894  0.9876256928713246  0.41135373728906693  1.0000
  Cl  Cl1       1.0  0.1493091197101879  0.26222502065289643  0.9831521927572647  1.0000
  H   H5        1.0  0.20507000373015824  0.40569772064963305  0.637467099591728  1.0000
  H   H6        1.0  0.16192825656524312  0.33994900110534165  0.2749805701916528  1.0000
  H   H7        1.0  0.13391224337170304  0.9558557116782835  0.047909708234295634  1.0000
  H   H8        1.0  0.1364166930091057  0.8071210779676679  0.2765308430454838  1.0000
  H   H9        1.0  0.11752673517404945  0.6909229839188805  0.6444159444659334  1.0000
  C   C15       1.0  0.15520431400342138  0.5605021471133611  0.9878604821545804  1.0000
  C   C16       1.0  0.2331681984410361  0.6228773461275992  0.0566337667857022  1.0000
  C   C17       1.0  0.30609501489812696  0.6961730589750921  0.9761781705550496  1.0000
  C   C18       1.0  0.30030512249919283  0.7068241832203226  0.8252878431656671  1.0000
  C   C19       1.0  0.2244061622726259  0.6435899068045401  0.7553033785593968  1.0000
  C   C20       1.0  0.15206353029611752  0.5678857068827725  0.8343592805036599  1.0000
  N   N3        1.0  0.38594234671101324  0.7616097379742697  0.044937636524436275  1.0000
  C   C21       1.0  0.3990721490885438  0.7565338076310142  0.2012162607366168  1.0000
  H   H10       1.0  0.04626501555915841  0.3866897903355522  0.2807591796883906  1.0000
  H   H11       1.0  0.3554947136715382  0.7632695046927616  0.7612617834947767  1.0000
  H   H12       1.0  0.2236235477730948  0.651029622345954  0.6382349476179665  1.0000
  H   H13       1.0  4.818516754534585e-05  0.5002387204747722  0.5588821541439875  1.0000
  H   H14       1.0  0.4380687801458536  0.8155474233154344  0.980334545234451  1.0000
  H   H15       1.0  0.4662054192613432  0.8136681397112318  0.2269274716989129  1.0000
  H   H16       1.0  0.4052565052174506  0.6425397576727929  0.24537527145109705  1.0000
  H   H17       1.0  0.33716029605250236  0.8105911056494426  0.25244940720851683  1.0000
  Zn  Zn1       1.0  0.04790770779389763  0.5641956567547208  0.41111199959291245  1.0000
  Zn  Zn2       1.0  0.2593509410899005  0.5641915069059114  0.4111071411077145  1.0000
  C   C22       1.0  0.15269459879822755  0.5607456822924384  0.6743496071521782  1.0000
  C   C23       1.0  0.15456634599801128  0.5676433019305422  0.14786967600737277  1.0000
  C   C24       1.0  0.15183854594791854  0.8275003375324843  0.4055180592777017  1.0000
  C   C25       1.0  0.1554223383304314  0.3008869149444797  0.41670129972809544  1.0000
  O   O1        1.0  0.23459388647411347  0.5700320731538857  0.20156837577424347  1.0000
  O   O2        1.0  0.2331475889531902  0.5583526700163923  0.6206468043806761  1.0000
  O   O3        1.0  0.23245522819457978  0.7737604407891732  0.4035634283324293  1.0000
  O   O4        1.0  0.23528617541147256  0.3546243117549155  0.4186516437620986  1.0000
  O   O5        1.0  0.07197240131714433  0.7737628519086364  0.40356749693260574  1.0000
  O   O6        1.0  0.07266475043846321  0.5583568128847913  0.6206507971286834  1.0000
  O   O7        1.0  0.07411105479866206  0.5700361506592828  0.20157063562545785  1.0000
  O   O8        1.0  0.0748033434020918  0.35462837988942164  0.4186540116677824  1.0000
