data_image0
_chemical_formula_structural       NC12NC2H8C6BrH5C7OH5Zn2C4O8
_chemical_formula_sum              "N2 C31 H18 Br1 O9 Zn2"
_cell_length_a       19.240039667572717
_cell_length_b       9.276564384272257
_cell_length_c       9.274074313596557
_cell_angle_alpha    86.07032153844699
_cell_angle_beta     90.2336027468708
_cell_angle_gamma    90.58593109150864

_space_group_name_H-M_alt    "P 1"
_space_group_IT_number       1

loop_
  _space_group_symop_operation_xyz
  'x, y, z'

loop_
  _atom_site_type_symbol
  _atom_site_label
  _atom_site_symmetry_multiplicity
  _atom_site_fract_x
  _atom_site_fract_y
  _atom_site_fract_z
  _atom_site_occupancy
  N   N1        1.0  0.6590547734101718  0.5626152469369385  0.4088889293297848  1.0000
  C   C1        1.0  0.5989064048694357  0.5626153392993591  0.40888883832122147  1.0000
  C   C2        1.0  0.5240883680633706  0.5626154680410689  0.40888868583616733  1.0000
  C   C3        1.0  0.48749291363858976  0.4921574600578626  0.5237122007060178  1.0000
  C   C4        1.0  0.41482175205566346  0.49203527757627885  0.5238083444754686  1.0000
  C   C5        1.0  0.3777561331238758  0.5626155683494902  0.40888843307458056  1.0000
  C   C6        1.0  0.41506619403744716  0.6331960688715021  0.29396873740247487  1.0000
  C   C7        1.0  0.4877364680030554  0.6330736262209113  0.2940650173345951  1.0000
  C   C8        1.0  0.30055104204049915  0.5626154799649365  0.40888832725511093  1.0000
  C   C9        1.0  0.262836900762934  0.4373047071831473  0.4554582588785674  1.0000
  C   C10       1.0  0.1901665933841062  0.43742241704652157  0.45535681062537026  1.0000
  C   C11       1.0  0.1542187545464266  0.5626153371923022  0.40888839496923746  1.0000
  C   C12       1.0  0.07940071732460818  0.5626152135960303  0.4088886710320394  1.0000
  N   N2        1.0  0.019252400714819304  0.5626151705325337  0.40888890236954656  1.0000
  C   C13       1.0  0.1912184268621869  0.6878083409626676  0.36241992054717803  1.0000
  C   C14       1.0  0.2638895047078688  0.6879262490658251  0.36231829168612206  1.0000
  H   H1        1.0  0.515115039021261  0.43761470682697934  0.6133627573003055  1.0000
  H   H2        1.0  0.38764256556585075  0.43839086494592294  0.6146961516313107  1.0000
  H   H3        1.0  0.3880588497735661  0.6868405109880382  0.20308087379136297  1.0000
  H   H4        1.0  0.5155441141510173  0.687616271119456  0.20441476690449734  1.0000
  H   H5        1.0  0.2895118590303575  0.33864443778496933  0.49012822013172586  1.0000
  H   H6        1.0  0.1620406642112397  0.33977184748989875  0.49117232933847527  1.0000
  H   H7        1.0  0.16391453248548357  0.785458883431531  0.3266044180041096  1.0000
  H   H8        1.0  0.291401025590956  0.7865866058957074  0.32764828067460505  1.0000
  C   C15       1.0  0.8370636357879052  0.1391378755499415  0.4092574551791157  1.0000
  C   C16       1.0  0.8278913663543649  0.2213444706023764  0.27752919000736487  1.0000
  C   C17       1.0  0.8251899165908303  0.1550749816387038  0.14703133139147995  1.0000
  C   C18       1.0  0.8316403015870463  0.005655578351927211  0.14578385280159356  1.0000
  C   C19       1.0  0.8395841328709016  0.921736106667816  0.27552016438101967  1.0000
  C   C20       1.0  0.8412501851871909  0.9860815659044098  0.40853276293632645  1.0000
  Br  Br1       1.0  0.8284545617985878  0.9155405697368988  0.966717990016499  1.0000
  H   H9        1.0  0.8171546669161099  0.40398970902225345  0.6435741874534613  1.0000
  H   H10       1.0  0.824456461439744  0.33797665001664545  0.2750617723799378  1.0000
  H   H11       1.0  0.8187419532670764  0.2203100235603921  0.046638257020347636  1.0000
  H   H12       1.0  0.8427936922635062  0.8054656302722377  0.27241280428805403  1.0000
  H   H13       1.0  0.880043622882255  0.6903517402284058  0.6330068105850863  1.0000
  C   C21       1.0  0.8383041870157716  0.5584563492407617  0.98565750975744  1.0000
  C   C22       1.0  0.7779141253143975  0.6010307221291777  0.05550994641650742  1.0000
  C   C23       1.0  0.7210039059376673  0.6551945107386907  0.976281381926894  1.0000
  C   C24       1.0  0.7231533715078831  0.668224609606157  0.8249902313366455  1.0000
  C   C25       1.0  0.7825963966780108  0.6239092155951789  0.753999398523709  1.0000
  C   C26       1.0  0.8400096071118175  0.5667630764865734  0.8321328081915649  1.0000
  C   C27       1.0  0.6636549680113768  0.7263540971960327  0.739549798749318  1.0000
  O   O1        1.0  0.6093889955272482  0.7665339705338954  0.8002217074047722  1.0000
  H   H14       1.0  0.007944438278252308  0.5217156537340488  0.09247748577577886  1.0000
  H   H15       1.0  0.6755639766555352  0.6882069266278821  0.03365479723910059  1.0000
  H   H16       1.0  0.783436313107809  0.6308977280161354  0.636836756029203  1.0000
  H   H17       1.0  0.9540135461246668  0.5367905148348724  0.5546926081932106  1.0000
  H   H18       1.0  0.6661662661785014  0.73510734771477  0.6226727916804857  1.0000
  Zn  Zn1       1.0  0.7630000348373723  0.5626114564126934  0.40889723538880207  1.0000
  Zn  Zn2       1.0  0.9153071236106229  0.5626073133372689  0.40889236887850644  1.0000
  C   C28       1.0  0.8396573161020867  0.5594480374472892  0.6721357247260217  1.0000
  C   C29       1.0  0.8386515148138299  0.565772553191844  0.14565401939173928  1.0000
  C   C30       1.0  0.8404436868940911  0.8259348416061125  0.4029264546878528  1.0000
  C   C31       1.0  0.8378650836405118  0.2992840172065847  0.41486336775397903  1.0000
  O   O2        1.0  0.8965677965313626  0.5682200744777612  0.19934846817872476  1.0000
  O   O3        1.0  0.8973385844037971  0.5569962796939001  0.6184371684122874  1.0000
  O   O4        1.0  0.8979728126145123  0.772187758965593  0.4010487768981821  1.0000
  O   O5        1.0  0.8959335161818236  0.3530286044629938  0.41673675162068785  1.0000
  O   O6        1.0  0.7823735902912298  0.7721901652898777  0.40105285264069906  1.0000
  O   O7        1.0  0.7817393704868867  0.5570004178475301  0.6184411658248119  1.0000
  O   O8        1.0  0.7809685789210572  0.568224145373738  0.19935073281468352  1.0000
  O   O9        1.0  0.7803342987354003  0.35303266610495365  0.41673912432286775  1.0000
