data_image0
_chemical_formula_structural       NC6NC2H4C9H8C7OH6Zn2C4O8
_chemical_formula_sum              "N2 C28 H18 O9 Zn2"
_cell_length_a       14.927258858638513
_cell_length_b       9.275152443626249
_cell_length_c       9.274074313596557
_cell_angle_alpha    85.92156872667384
_cell_angle_beta     90.23360497227152
_cell_angle_gamma    90.5735452640029

_space_group_name_H-M_alt    "P 1"
_space_group_IT_number       1

loop_
  _space_group_symop_operation_xyz
  'x, y, z'

loop_
  _atom_site_type_symbol
  _atom_site_label
  _atom_site_symmetry_multiplicity
  _atom_site_fract_x
  _atom_site_fract_y
  _atom_site_fract_z
  _atom_site_occupancy
  N   N1        1.0  0.8492502457441097  0.5631337321077761  0.4048195026781098  1.0000
  C   C1        1.0  0.7717237544267711  0.5631337036929862  0.4048195133627319  1.0000
  C   C2        1.0  0.6752912474682837  0.5631338183383345  0.40481946311704875  1.0000
  C   C3        1.0  0.627763112669636  0.5381921428138731  0.27824390717367176  1.0000
  C   C4        1.0  0.5340518011392426  0.5381921671480232  0.27824377365733444  1.0000
  C   C5        1.0  0.48747518242176907  0.5631336409148473  0.40481948235428966  1.0000
  C   C6        1.0  0.3910426084717491  0.5631337555631027  0.40481943210267346  1.0000
  N   N2        1.0  0.3135161171544105  0.5631337271483128  0.40481944278729554  1.0000
  C   C7        1.0  0.5350032502288838  0.5880753164422159  0.5313950382917333  1.0000
  C   C8        1.0  0.6287145617592776  0.5880752921080656  0.5313951718080712  1.0000
  H   H1        1.0  0.6630891408986702  0.5187861117644126  0.17976086004674086  1.0000
  H   H2        1.0  0.4979854866020893  0.5187863093162015  0.17976085443153123  1.0000
  H   H3        1.0  0.4996772892039074  0.607481338231683  0.6298781935149182  1.0000
  H   H4        1.0  0.6647808771842989  0.6074812483794785  0.6298782007023311  1.0000
  C   C9        1.0  0.07874861216582563  0.1395158712407753  0.40629089275957364  1.0000
  C   C10       1.0  0.04611410935064389  0.22105327659172813  0.2838493219879332  1.0000
  C   C11       1.0  0.021800881370591666  0.15438743133473126  0.15911533882143614  1.0000
  C   C12       1.0  0.029739066235888068  0.004998742628678833  0.1543532303651105  1.0000
  C   C13       1.0  0.06061908348973979  0.9217630321145284  0.27576001135692296  1.0000
  C   C14       1.0  0.08402630927663518  0.986740622664419  0.4033605401428111  1.0000
  C   C15       1.0  0.005132913920463448  0.9365811874841171  0.025183346032591647  1.0000
  C   C16       1.0  0.984530985461587  0.8792640433301004  0.9170238203057153  1.0000
  C   C17       1.0  0.9595346112965227  0.8097078257353737  0.7857912048783287  1.0000
  H   H5        1.0  0.20822008470840558  0.22399296040634595  0.694126049314655  1.0000
  H   H6        1.0  0.04139392934240041  0.3375663123251289  0.28339597240127995  1.0000
  H   H7        1.0  0.9976070502807084  0.21971085954002076  0.06577244657301273  1.0000
  H   H8        1.0  0.06438043069713631  0.8054135325197599  0.2717394465828764  1.0000
  H   H9        1.0  0.168331786745344  0.6933738671458213  0.6002301237544028  1.0000
  H   H10       1.0  0.9759464513340618  0.6931181744914352  0.7992556143830497  1.0000
  H   H11       1.0  0.8865700131757457  0.8220967009698487  0.7660605566340539  1.0000
  H   H12       1.0  0.9971244150911188  0.8611405363221729  0.6925009348310622  1.0000
  C   C18       1.0  0.08028894772590811  0.5589734660710369  0.9815989276375867  1.0000
  C   C19       1.0  0.0024450473755615065  0.6015619603694153  0.05134048441440386  1.0000
  C   C20       1.0  0.929084764130234  0.6557437157366821  0.9719708583042127  1.0000
  C   C21       1.0  0.9318534308212651  0.6687781378550306  0.8206457739422283  1.0000
  C   C22       1.0  0.008476920480227305  0.6244480447391314  0.7497703550339123  1.0000
  C   C23       1.0  0.08248593590176471  0.5672829494237884  0.8280525932155733  1.0000
  C   C24       1.0  0.8551566312433564  0.726926907772298  0.7350539517746432  1.0000
  O   O1        1.0  0.7852065256487715  0.7671201084681842  0.7956212169440204  1.0000
  H   H13       1.0  0.29894676607354476  0.5222205916515916  0.08851459935476025  1.0000
  H   H14       1.0  0.9990860339222946  0.5961682739237757  0.1682787236754908  1.0000
  H   H15       1.0  0.8705117227401613  0.688767081538068  0.029258296817477266  1.0000
  H   H16       1.0  0.009558528166480956  0.6314388758555438  0.6325895126087966  1.0000
  H   H17       1.0  0.2294320627206281  0.53730045081631  0.5506904586180306  1.0000
  H   H18       1.0  0.8583922691911103  0.7356830625966924  0.6181541490424167  1.0000
  Zn  Zn1       1.0  0.9832273530539365  0.5631299469913746  0.4048278265106935  1.0000
  Zn  Zn2       1.0  0.17953897780657324  0.5631258123080128  0.40482298236861036  1.0000
  C   C25       1.0  0.0820328839400204  0.5599654833856458  0.6680745600821782  1.0000
  C   C26       1.0  0.08073560234290311  0.5662920974071528  0.14157638390561256  1.0000
  C   C27       1.0  0.08300918858979574  0.8265407023177548  0.3981712857052122  1.0000
  C   C28       1.0  0.0797592201086259  0.29971514607401983  0.41147974111679386  1.0000
  O   O2        1.0  0.15538470301554358  0.5687404344430762  0.19526446308175216  1.0000
  O   O3        1.0  0.15637975625681333  0.5575129158893385  0.6143823932000305  1.0000
  O   O4        1.0  0.15716713421288264  0.7727757912134547  0.39643358436704923  1.0000
  O   O5        1.0  0.15459725785541623  0.353477568378954  0.4132131638184793  1.0000
  O   O6        1.0  0.008169006013559969  0.77277819092334  0.3964376450548912  1.0000
  O   O7        1.0  0.00738163865045949  0.5575170480031549  0.6143863710477238  1.0000
  O   O8        1.0  0.006386580658104486  0.5687444992769239  0.195266708328037  1.0000
  O   O9        1.0  0.00559913571050208  0.35348162395571503  0.41321551715508487  1.0000
