data_image0
_chemical_formula_structural       NC8NC6H8C7H8C6SCH8Zn2C4O8
_chemical_formula_sum              "N2 C32 H24 S1 Zn2 O8"
_cell_length_a       17.457602349358154
_cell_length_b       9.274341958901593
_cell_length_c       10.302812801239593
_cell_angle_alpha    85.52848013083198
_cell_angle_beta     92.87590592568559
_cell_angle_gamma    91.07026823974832

_space_group_name_H-M_alt    "P 1"
_space_group_IT_number       1

loop_
  _space_group_symop_operation_xyz
  'x, y, z'

loop_
  _atom_site_type_symbol
  _atom_site_label
  _atom_site_symmetry_multiplicity
  _atom_site_fract_x
  _atom_site_fract_y
  _atom_site_fract_z
  _atom_site_occupancy
  N   N1        1.0  0.7131357374220308  0.6131632657854038  0.625354184058378  1.0000
  C   C1        1.0  0.6523514463199868  0.5621699908184425  0.6147918759092378  1.0000
  C   C2        1.0  0.5767331686184846  0.4987407017280152  0.6016618972970273  1.0000
  C   C3        1.0  0.5179477469573421  0.5433344436075312  0.6764922066205127  1.0000
  C   C4        1.0  0.4437540080129544  0.4822571769541561  0.6639741630035914  1.0000
  C   C5        1.0  0.3813633474333094  0.5293416000270483  0.7432224381124832  1.0000
  C   C6        1.0  0.3066985997118107  0.5498482197462653  0.6874563470238131  1.0000
  C   C7        1.0  0.2479143512080289  0.5942377387706204  0.7623947765843826  1.0000
  C   C8        1.0  0.17180757444704448  0.6154170759009666  0.7044132614165275  1.0000
  N   N2        1.0  0.1106306832297108  0.63243817922391  0.6577962811778431  1.0000
  C   C9        1.0  0.263301133086579  0.618390610239016  0.8936073896346268  1.0000
  C   C10       1.0  0.337178689643518  0.5983159029495266  0.9497605326883314  1.0000
  C   C11       1.0  0.3959501819664872  0.5541263070564262  0.875279484018482  1.0000
  C   C12       1.0  0.4296386679547709  0.37583399573135967  0.5751940800984815  1.0000
  C   C13       1.0  0.4884105896058236  0.3315496866482275  0.5007633443079114  1.0000
  C   C14       1.0  0.5618188443596496  0.3927517287997322  0.5138310420606479  1.0000
  H   H1        1.0  0.5298109998281045  0.6268266994662761  0.7430199540161  1.0000
  H   H2        1.0  0.2944493195407042  0.5332261451617806  0.5854803089920018  1.0000
  H   H3        1.0  0.2182426982715601  0.6526813102620426  0.9523910302960827  1.0000
  H   H4        1.0  0.3489042992599467  0.6166675347705317  0.051361729325623884  1.0000
  H   H5        1.0  0.4525316515099382  0.5374799603421765  0.9213877673829509  1.0000
  H   H6        1.0  0.3734438845940686  0.32549546193161616  0.564595023492992  1.0000
  H   H7        1.0  0.477054008004613  0.2492971026019124  0.43303643562290467  1.0000
  H   H8        1.0  0.6068828838414129  0.3574953539006733  0.4555593137066772  1.0000
  C   C15       1.0  0.9143253229869903  0.19934340049497878  0.641996966360979  1.0000
  C   C16       1.0  0.9233918000032402  0.2831279172590723  0.5238632979367204  1.0000
  C   C17       1.0  0.9248276155269858  0.21824333697399018  0.40636711154227184  1.0000
  C   C18       1.0  0.9163896743578872  0.0682039021059897  0.4041105019857245  1.0000
  C   C19       1.0  0.9097124525442929  0.9829273649159346  0.5214785119084767  1.0000
  C   C20       1.0  0.9094484733987873  0.046247253874163397  0.6411653643911397  1.0000
  C   C21       1.0  0.9196302133644649  0.9983695936947916  0.2779845654848381  1.0000
  H   H9        1.0  0.8505049920801115  0.27440642620350997  0.937580713350317  1.0000
  H   H10       1.0  0.9277386832054155  0.3999464356447724  0.5219865306033462  1.0000
  H   H11       1.0  0.9317116977823708  0.285453428877962  0.3167945550996498  1.0000
  H   H12       1.0  0.9064697326056692  0.866266184022291  0.5195563815968123  1.0000
  H   H13       1.0  0.8695315487185109  0.7467178757397113  0.8421180370657586  1.0000
  H   H14       1.0  0.9799470854130524  0.9717474337512255  0.26164066215918785  1.0000
  H   H15       1.0  0.8972640772242553  0.07210231231082331  0.1951384765363955  1.0000
  H   H16       1.0  0.884244209803741  0.8974816803116119  0.28028955788022647  1.0000
  C   C22       1.0  0.9118869300922763  0.6227953454097723  0.2603326924293041  1.0000
  C   C23       1.0  0.8851922634611686  0.7653443859718181  0.2468830651912055  1.0000
  C   C24       1.0  0.871713326818479  0.8360500122460857  0.12319944025853348  1.0000
  C   C25       1.0  0.8851921951862846  0.7653442312463126  0.011731890007110833  1.0000
  C   C26       1.0  0.9118868803981585  0.6227953332795322  0.022829592007965086  1.0000
  C   C27       1.0  0.9250802089326354  0.5522036756322322  0.14765699305127214  1.0000
  S   S1        1.0  0.8377638522070564  0.018291897696788073  0.10752315892183106  1.0000
  C   C28       1.0  0.7371645385119672  0.9630178578761454  0.10285053919335453  1.0000
  H   H17       1.0  0.9219184647663725  0.56905565353635  0.5927132627511236  1.0000
  H   H18       1.0  0.8745880921838771  0.821965224412573  0.3321073980900105  1.0000
  H   H19       1.0  0.8745879398201718  0.8219650092433887  0.9167570727788933  1.0000
  H   H20       1.0  0.9456571351089574  0.4422390482341147  0.15712374200984125  1.0000
  H   H21       1.0  0.9219170409474557  0.5690548356350499  0.6996975614134398  1.0000
  H   H22       1.0  0.7239332318722197  0.8982084657839798  0.018157169681941584  1.0000
  H   H23       1.0  0.7239335519800371  0.8982099390397384  0.19439188709534028  1.0000
  H   H24       1.0  0.7010931192979559  0.06082834843400864  0.09291905724851615  1.0000
  Zn  Zn1       1.0  0.8278442147187066  0.6187217223826942  0.6347237723966216  1.0000
  Zn  Zn2       1.0  0.9959222597639312  0.6268678996938009  0.6484373336184679  1.0000
  C   C29       1.0  0.9119182608438723  0.6170505917116687  0.8787068659167789  1.0000
  C   C30       1.0  0.911850038568558  0.6285409387814287  0.4044545154895143  1.0000
  C   C31       1.0  0.910366368730539  0.8861642207667029  0.6361486719003238  1.0000
  C   C32       1.0  0.91340188330507  0.35942557444627904  0.6470127757445072  1.0000
  O   O1        1.0  0.9756224358111364  0.6335543532161239  0.45802734707007153  1.0000
  O   O2        1.0  0.9757132169936927  0.6182188495199519  0.8355419373336699  1.0000
  O   O3        1.0  0.9744591846369071  0.8355314667142304  0.6396744078971149  1.0000
  O   O4        1.0  0.9768764107548761  0.4162417435576169  0.6538947744730756  1.0000
  O   O5        1.0  0.8468900063709651  0.8293478757405577  0.629266326855418  1.0000
  O   O6        1.0  0.8481440287477756  0.6120369910480732  0.8251337853668395  1.0000
  O   O7        1.0  0.8480532479056885  0.6273724444962608  0.447617634249234  1.0000
  O   O8        1.0  0.8493072229056778  0.4100598245236616  0.6434851589991937  1.0000
