data_image0
_chemical_formula_structural       NC8NH4C6NH7C7ONH5Zn2C4O8
_chemical_formula_sum              "N4 C25 H16 O9 Zn2"
_cell_length_a       13.859017124695912
_cell_length_b       9.274771166103582
_cell_length_c       9.273042158839658
_cell_angle_alpha    86.05644510922068
_cell_angle_beta     90.09322216123502
_cell_angle_gamma    90.59707951677755

_space_group_name_H-M_alt    "P 1"
_space_group_IT_number       1

loop_
  _space_group_symop_operation_xyz
  'x, y, z'

loop_
  _atom_site_type_symbol
  _atom_site_label
  _atom_site_symmetry_multiplicity
  _atom_site_fract_x
  _atom_site_fract_y
  _atom_site_fract_z
  _atom_site_occupancy
  N   N1        1.0  0.9177478329532605  0.5618851770177382  0.40726271462741004  1.0000
  C   C1        1.0  0.8451686535577477  0.5384295334795451  0.3511428481137644  1.0000
  C   C2        1.0  0.7548844820208078  0.5092541347925827  0.2813369459902928  1.0000
  C   C3        1.0  0.6675417324045693  0.5376971791219927  0.3493889166415939  1.0000
  C   C4        1.0  0.5796541700357525  0.5092553547833377  0.2813363644641833  1.0000
  C   C5        1.0  0.5792916896322248  0.4523627645020063  0.14521095073724344  1.0000
  C   C6        1.0  0.6664529265735606  0.4240290436808734  0.07742093063085309  1.0000
  C   C7        1.0  0.754157033493042  0.45236042694023687  0.1452121333534866  1.0000
  C   C8        1.0  0.48992882072185545  0.5384304549906944  0.3511423484155076  1.0000
  N   N2        1.0  0.4177989605401484  0.5618854974233517  0.40726249803374015  1.0000
  H   H1        1.0  0.6679635098110289  0.5817342450310015  0.454753246619284  1.0000
  H   H2        1.0  0.51178184014968  0.42997698936227424  0.09164659655519224  1.0000
  H   H3        1.0  0.6660320746032459  0.3800819113373606  0.972269979843178  1.0000
  H   H4        1.0  0.8212380282685914  0.42997256113649374  0.09164878221546569  1.0000
  C   C9        1.0  0.16481660946078303  0.13829707285493953  0.4080482386418307  1.0000
  C   C10       1.0  0.14246332622149627  0.2202482288615204  0.27915577178403206  1.0000
  C   C11       1.0  0.12911790741430673  0.15383264080737827  0.14944553448169406  1.0000
  C   C12       1.0  0.1381752634455331  0.004078528315011765  0.147688260612576  1.0000
  C   C13       1.0  0.15874224020537286  0.9207892937875395  0.27481012241023817  1.0000
  C   C14       1.0  0.1707393666846433  0.9854626982632485  0.4064895092338347  1.0000
  N   N3        1.0  0.1073557986409659  0.2388683746207807  0.019136464396471542  1.0000
  H   H5        1.0  0.27377391125164574  0.2212798803246996  0.7234877375790858  1.0000
  H   H6        1.0  0.1375975852124176  0.33683510205081735  0.2786021174729822  1.0000
  H   H7        1.0  0.12836398842512597  0.9515401510748246  0.04788931932685414  1.0000
  H   H8        1.0  0.16298971317364597  0.8045818036500012  0.27068221500057427  1.0000
  H   H9        1.0  0.2402182084223221  0.6906568534005467  0.6211000572690237  1.0000
  H   H10       1.0  0.10070776818190508  0.3509417780940423  0.019089652842570137  1.0000
  H   H11       1.0  0.0976381180572432  0.1903721711839481  0.9217078667640686  1.0000
  C   C15       1.0  0.16728541945103714  0.5574218565262192  0.9840121563682027  1.0000
  C   C16       1.0  0.07872678288561641  0.5666071864000407  0.05667609900214221  1.0000
  C   C17       1.0  0.9920081108212404  0.5897449271243551  0.9803773998058362  1.0000
  C   C18       1.0  0.9943708321388814  0.601955056940328  0.8288562321825401  1.0000
  C   C19       1.0  0.08133506913397981  0.5906519078584065  0.7551867562694121  1.0000
  C   C20       1.0  0.1682705710924841  0.5663378388987439  0.83052558952209  1.0000
  C   C21       1.0  0.8998744440699852  0.5997027519879332  0.060219135479771646  1.0000
  O   O1        1.0  0.8930380208247533  0.5438826428141248  0.18769246743776224  1.0000
  N   N4        1.0  0.8183116495929588  0.6728821778244822  0.9965480583612821  1.0000
  H   H12       1.0  0.401771990069441  0.612519507228422  0.0838707391183029  1.0000
  H   H13       1.0  0.9288553605342835  0.6162170078799623  0.766206884361623  1.0000
  H   H14       1.0  0.3262751269410298  0.5967561750787665  0.5475477728811659  1.0000
  H   H15       1.0  0.8233939079423793  0.7351712090092055  0.8987676180348337  1.0000
  H   H16       1.0  0.7530941256617376  0.672719775096654  0.052790845031577494  1.0000
  Zn  Zn1       1.0  0.062051772451712006  0.5618815060113163  0.40727098703227793  1.0000
  Zn  Zn2       1.0  0.27349494489930115  0.561877526212919  0.4072660688875568  1.0000
  C   C22       1.0  0.1680420041483608  0.5589061273128693  0.6705269743890834  1.0000
  C   C23       1.0  0.16750703504437817  0.5648547263807912  0.1440102195950294  1.0000
  C   C24       1.0  0.16960817712177814  0.8252698358144148  0.40104052898893217  1.0000
  C   C25       1.0  0.1659407778935318  0.2984892856541852  0.4134967450290734  1.0000
  O   O2        1.0  0.24782294926481474  0.5673414621243588  0.19770517638289542  1.0000
  O   O3        1.0  0.24820655726307161  0.55641527844171  0.6168278719378527  1.0000
  O   O4        1.0  0.24947018179526026  0.7715073574911961  0.39921565788140556  1.0000
  O   O5        1.0  0.24655925252777006  0.35224939225666546  0.415317282352186  1.0000
  O   O6        1.0  0.08898739266806775  0.7715096399704191  0.3992197735617431  1.0000
  O   O7        1.0  0.08772378015813298  0.5564192931488405  0.6168319075783917  1.0000
  O   O8        1.0  0.0873401698559826  0.5673454083134792  0.19770747921824688  1.0000
  O   O9        1.0  0.08607647316861922  0.35225332926684083  0.41531969326878837  1.0000
