data_image0
_chemical_formula_structural       NC6NCNCH5C6BrH3C7F3H4Zn2C4O8
_chemical_formula_sum              "N3 C25 H12 Br1 F3 Zn2 O8"
_cell_length_a       14.933214217465613
_cell_length_b       9.276564384272257
_cell_length_c       10.299327507215196
_cell_angle_alpha    85.50433020317719
_cell_angle_beta     89.947286011659
_cell_angle_gamma    90.62004099175812

_space_group_name_H-M_alt    "P 1"
_space_group_IT_number       1

loop_
  _space_group_symop_operation_xyz
  'x, y, z'

loop_
  _atom_site_type_symbol
  _atom_site_label
  _atom_site_symmetry_multiplicity
  _atom_site_fract_x
  _atom_site_fract_y
  _atom_site_fract_z
  _atom_site_occupancy
  N   N1        1.0  0.8535901627316586  0.5793368802632002  0.5654465821428851  1.0000
  C   C1        1.0  0.7761064352431422  0.58033373213858  0.5645533915506649  1.0000
  C   C2        1.0  0.6797161389271221  0.5815765518043055  0.563439693371877  1.0000
  C   C3        1.0  0.6312640864708444  0.48579724333691465  0.6492764122063712  1.0000
  C   C4        1.0  0.5377377591452485  0.486880300902621  0.6483058105006474  1.0000
  C   C5        1.0  0.49176077069550633  0.5836877901816013  0.561547676518839  1.0000
  C   C6        1.0  0.3951714220612021  0.581578708835376  0.5634378259341257  1.0000
  N   N2        1.0  0.3176742505446279  0.5798192690881916  0.5650142918933996  1.0000
  C   C7        1.0  0.5403195146804484  0.6806765301218975  0.4746271893361337  1.0000
  N   N3        1.0  0.4956672194803416  0.7812967007183507  0.3844523696309332  1.0000
  C   C8        1.0  0.6343198676848057  0.6786271753404441  0.47646391092524415  1.0000
  H   H1        1.0  0.6657668059318713  0.410281699999973  0.7169528536119338  1.0000
  H   H2        1.0  0.5011636356977993  0.4120000061011259  0.7154128317140257  1.0000
  H   H3        1.0  0.5324885155496288  0.852364334457339  0.3207620370526265  1.0000
  H   H4        1.0  0.4259608283745415  0.7866505519312268  0.37965435147744886  1.0000
  H   H5        1.0  0.6720134902858328  0.7527540511963291  0.41003195031778716  1.0000
  C   C9        1.0  0.0829384306228203  0.15609424014036247  0.56556507144778  1.0000
  C   C10       1.0  0.07148949313474695  0.23959986283180612  0.44687470801937507  1.0000
  C   C11       1.0  0.06837421284527538  0.17462581931135035  0.32928530923995947  1.0000
  C   C12       1.0  0.07668847815298019  0.02522747299540739  0.3281534567389315  1.0000
  C   C13       1.0  0.08656025358730135  0.9400271577211846  0.44505032921685783  1.0000
  C   C14       1.0  0.08833447259039054  0.003050751438789195  0.5649070221781953  1.0000
  Br  Br1       1.0  0.07308518980670797  0.9368907397863963  0.16679963094157713  1.0000
  H   H6        1.0  0.060347594434342566  0.24085160587408638  0.23882806224105857  1.0000
  H   H7        1.0  0.0907041968192197  0.8237919125047249  0.4422464116138573  1.0000
  H   H8        1.0  0.13768814216798964  0.7051383146687424  0.7671357926677009  1.0000
  C   C15       1.0  0.08572257708182708  0.5796311737737845  0.1838543616612864  1.0000
  C   C16       1.0  0.17311253944419236  0.6375446505008847  0.17845791257082677  1.0000
  C   C17       1.0  0.21655903203765892  0.6692067547274025  0.05843807592056582  1.0000
  C   C18       1.0  0.17288638934028522  0.6373914929434876  0.943220783454711  1.0000
  C   C19       1.0  0.08555035093342613  0.579513869850637  0.946617788674462  1.0000
  C   C20       1.0  0.042345348195653505  0.5515038444476146  0.06740715161808053  1.0000
  C   C21       1.0  0.3115703473044611  0.7264911698208578  0.05404315643828483  1.0000
  F   F1        1.0  0.32774891730795636  0.8107208802164269  0.15685432410848918  1.0000
  F   F2        1.0  0.36998810934000126  0.6115739887693543  0.06194634772798712  1.0000
  F   F3        1.0  0.3275027857679569  0.810701058595616  0.9392111647794507  1.0000
  H   H9        1.0  0.9213995886424693  0.4679312414687966  0.40144549486247016  1.0000
  H   H10       1.0  0.20758317162786333  0.6578633274186849  0.26780669855424755  1.0000
  H   H11       1.0  0.20720187733607137  0.6576012355240172  0.8507932348943296  1.0000
  H   H12       1.0  0.9749890345463721  0.5068702660924567  0.07076151418812326  1.0000
  Zn  Zn1       1.0  0.9875147799641385  0.5794722165924527  0.5653293432380934  1.0000
  Zn  Zn2       1.0  0.18374954086717343  0.5796721004701237  0.5651422052388746  1.0000
  C   C22       1.0  0.08554428094462631  0.5737910086907196  0.80244362238234  1.0000
  C   C23       1.0  0.08572219432805818  0.5853551301087289  0.3280280501081745  1.0000
  C   C24       1.0  0.08731106202193151  0.8429587559909426  0.5598561017167033  1.0000
  C   C25       1.0  0.08395533523530241  0.316185650121513  0.5706156414246949  1.0000
  O   O1        1.0  0.16019209486586916  0.5873457056194793  0.3763430439862723  1.0000
  O   O2        1.0  0.16001201652215968  0.5719510525615294  0.7539862220795464  1.0000
  O   O3        1.0  0.1614377103889616  0.7893074113669476  0.5580950825875055  1.0000
  O   O4        1.0  0.15876633412515218  0.36998935707698155  0.5722340861562225  1.0000
  O   O5        1.0  0.012497919740878105  0.7891549599189553  0.5582374623777742  1.0000
  O   O6        1.0  0.011072236924245306  0.57180033373389  0.7541285312759597  1.0000
  O   O7        1.0  0.011252315359965076  0.5871949367784621  0.37648379176861235  1.0000
  O   O8        1.0  0.00982655452788195  0.3698385779064044  0.5723749313176822  1.0000
