data_image0
_chemical_formula_structural       NC6NH4C10H9C12H9Zn2C4O8
_chemical_formula_sum              "N2 C32 H22 Zn2 O8"
_cell_length_a       15.260246347498025
_cell_length_b       15.491143632010285
_cell_length_c       14.994061290378351
_cell_angle_alpha    82.9950652051734
_cell_angle_beta     92.81337431084009
_cell_angle_gamma    89.67314450625503

_space_group_name_H-M_alt    "P 1"
_space_group_IT_number       1

loop_
  _space_group_symop_operation_xyz
  'x, y, z'

loop_
  _atom_site_type_symbol
  _atom_site_label
  _atom_site_symmetry_multiplicity
  _atom_site_fract_x
  _atom_site_fract_y
  _atom_site_fract_z
  _atom_site_occupancy
  N   N1        1.0  0.816459042010133  0.9480914848953489  0.01306866573011578  1.0000
  C   C1        1.0  0.7418827944967772  0.9486381195244612  0.9947680998765024  1.0000
  C   C2        1.0  0.6492007573163446  0.9493184440042012  0.9719905891356038  1.0000
  C   C3        1.0  0.5912849012651016  0.9474100323008362  0.03589622099084433  1.0000
  C   C4        1.0  0.4963241138754386  0.9480905160721528  0.013108453022341655  1.0000
  C   C5        1.0  0.4384083253951638  0.9461819162370508  0.07701402648869742  1.0000
  C   C6        1.0  0.34572622399745084  0.9468621051180381  0.05423658327171288  1.0000
  N   N2        1.0  0.2711499784963072  0.9474085455088568  0.03593602289911613  1.0000
  H   H1        1.0  0.627504503476775  0.9514122768773692  0.9018763458313535  1.0000
  H   H2        1.0  0.6142486423144019  0.9453224816428072  0.10579801854003834  1.0000
  H   H3        1.0  0.4733603714334853  0.950178202429259  0.9432065846458189  1.0000
  H   H4        1.0  0.4601045813493026  0.9440878767118258  0.14712840962059978  1.0000
  C   C7        1.0  0.04644495352562661  0.6930299425849126  0.036443863496196216  1.0000
  C   C8        1.0  0.03475762720176622  0.6348370642006237  0.9777864500278912  1.0000
  C   C9        1.0  0.039702881148172754  0.539270280930812  0.0034758690917107127  1.0000
  C   C10       1.0  0.0846074013048621  0.5007947082067634  0.08280434056205832  1.0000
  C   C11       1.0  0.08799506950561375  0.41035891035378924  0.10368212816168614  1.0000
  C   C12       1.0  0.04791498659924674  0.35622313163879255  0.04553723873471483  1.0000
  C   C13       1.0  0.0030105320524915873  0.3946987042625161  0.9662087705677822  1.0000
  C   C14       1.0  0.9996227326318725  0.4851345023161404  0.9453309763613243  1.0000
  C   C15       1.0  0.05286030615558701  0.2606563482686555  0.07122666110194897  1.0000
  C   C16       1.0  0.04117252128410743  0.2024633996336638  0.012569293510062083  1.0000
  H   H5        1.0  0.05922821845399161  0.6720140108883365  0.10732844785602218  1.0000
  H   H6        1.0  0.018062671473506597  0.6580054228074417  0.9078131205840398  1.0000
  H   H7        1.0  0.11857203368285615  0.5397541211955981  0.12833542276850096  1.0000
  H   H8        1.0  0.12303266585336559  0.3824974611736661  0.1651645553727934  1.0000
  H   H9        1.0  0.9690457677838928  0.3557393562204291  0.9206776799275039  1.0000
  H   H10       1.0  0.9645852668332503  0.5129960160417111  0.8838485539300412  1.0000
  H   H11       1.0  0.06955545866246911  0.23748799556774358  0.1411999332827286  1.0000
  H   H12       1.0  0.02838886341805713  0.22347926097921175  0.9416847583300691  1.0000
  H   H13       1.0  0.03991207453771286  0.9861046203102977  0.9930773764490336  1.0000
  C   C17       1.0  0.043845741030207996  0.9477576420254462  0.7625412298702983  1.0000
  C   C18       1.0  0.09234033117712381  0.8848187094598716  0.7252986780001578  1.0000
  C   C19       1.0  0.09229510126060146  0.8847848662034895  0.6320798558145361  1.0000
  C   C20       1.0  0.043830773428498386  0.9477121386471948  0.574048966771662  1.0000
  C   C21       1.0  0.9953855506872693  0.010646332073765051  0.6113940956816405  1.0000
  C   C22       1.0  0.9953713923482689  0.01063687294312764  0.7046189684277073  1.0000
  C   C23       1.0  0.04380995747855774  0.9477059508111007  0.47497484194309836  1.0000
  C   C24       1.0  0.04797104153934573  0.026262245333543932  0.4175901270434672  1.0000
  C   C25       1.0  0.04798838213822141  0.026262166129152  0.3243665495538699  1.0000
  C   C26       1.0  0.04377177363105878  0.9477356872596574  0.28647195712801055  1.0000
  C   C27       1.0  0.0395723828359451  0.869148694173457  0.3437591838673828  1.0000
  C   C28       1.0  0.03962902169798046  0.8691451444287526  0.4369833006064653  1.0000
  H   H14       1.0  0.9948916909556654  0.011463512413564662  0.9648611279942371  1.0000
  H   H15       1.0  0.13057060217232785  0.8356370255319884  0.7681686890516792  1.0000
  H   H16       1.0  0.13118852994254282  0.8361483624507385  0.6053493077881187  1.0000
  H   H17       1.0  0.9564784017015089  0.059275754353209614  0.5685268354895838  1.0000
  H   H18       1.0  0.9571490914368501  0.05983158974564358  0.7312472202117869  1.0000
  H   H19       1.0  0.052408975715527266  0.08776347979494824  0.4448592610844974  1.0000
  H   H20       1.0  0.05153444682832629  0.08786043409125233  0.2820464907328779  1.0000
  H   H21       1.0  0.036012307465191455  0.8075568703955076  0.31657826054824156  1.0000
  H   H22       1.0  0.0352065061156326  0.8076453773199402  0.4793126847049995  1.0000
  Zn  Zn1       1.0  0.9476730574438818  0.9478920841477886  0.019672955738400333  1.0000
  Zn  Zn2       1.0  0.13993605275588267  0.9476008594008859  0.029339386759785323  1.0000
  C   C29       1.0  0.043819553096251074  0.9442843042973678  0.18759965099725873  1.0000
  C   C30       1.0  0.043791645270028434  0.9512097305176814  0.8614128333244253  1.0000
  C   C31       1.0  0.04216513475109407  0.1061697925999352  0.013527000456955325  1.0000
  C   C32       1.0  0.045446008788230234  0.7893232001709922  0.035485576966723276  1.0000
  O   O1        1.0  0.1167363341373917  0.9522539804725173  0.898263584189014  1.0000
  O   O2        1.0  0.11679803581645642  0.94301836714253  0.1580852714809344  1.0000
  O   O3        1.0  0.11546108837529001  0.07374294771928369  0.017520282856551824  1.0000
  O   O4        1.0  0.11807321591744668  0.8215294062029703  0.038828502336663816  1.0000
  O   O5        1.0  0.9695358286723841  0.07396353744602968  0.010183836858106978  1.0000
  O   O6        1.0  0.9708727653305721  0.9432399990137228  0.15074872907708012  1.0000
  O   O7        1.0  0.9708110641741298  0.9524755821616199  0.8909259706660964  1.0000
  O   O8        1.0  0.9721479460053626  0.821751001685192  0.031490955987064084  1.0000
