data_image0
_chemical_formula_structural       NC6NCNCH5C6NH7C6NCH7Zn2C4O8
_chemical_formula_sum              "N5 C25 H19 Zn2 O8"
_cell_length_a       14.933214217465613
_cell_length_b       9.274771166103582
_cell_length_c       9.273390368590327
_cell_angle_alpha    86.06293122453995
_cell_angle_beta     89.95654164007166
_cell_angle_gamma    90.63112361825276

_space_group_name_H-M_alt    "P 1"
_space_group_IT_number       1

loop_
  _space_group_symop_operation_xyz
  'x, y, z'

loop_
  _atom_site_type_symbol
  _atom_site_label
  _atom_site_symmetry_multiplicity
  _atom_site_fract_x
  _atom_site_fract_y
  _atom_site_fract_z
  _atom_site_occupancy
  N   N1        1.0  0.853503715664592  0.5626113062544345  0.40645225712699484  1.0000
  C   C1        1.0  0.7760199359884162  0.5635977478978136  0.40546005918591166  1.0000
  C   C2        1.0  0.6796295745849412  0.5648275872575206  0.40422291121985165  1.0000
  C   C3        1.0  0.6311825397747601  0.4700487200313679  0.49957433944084007  1.0000
  C   C4        1.0  0.5376561557155496  0.4711204650804797  0.4984961497961262  1.0000
  C   C5        1.0  0.491674095762196  0.566916773881029  0.40212117064509756  1.0000
  C   C6        1.0  0.3950848576187327  0.5648297225425385  0.4042208367107766  1.0000
  N   N2        1.0  0.3175877782108506  0.5630886566714051  0.40597204894297434  1.0000
  C   C7        1.0  0.5402277587641795  0.6628924411134449  0.3055658419005902  1.0000
  N   N3        1.0  0.4955701923642595  0.7624616092528018  0.20539544876026297  1.0000
  C   C8        1.0  0.6342282191495493  0.6608644936584387  0.3076061577381728  1.0000
  H   H1        1.0  0.6656892153048009  0.3953219568690302  0.5747524850666592  1.0000
  H   H2        1.0  0.501085955035705  0.3970223137327764  0.5730417570576634  1.0000
  H   H3        1.0  0.5323877653651599  0.8327869215567718  0.134645258699305  1.0000
  H   H4        1.0  0.4258635207956055  0.7677595387845573  0.20006558648402106  1.0000
  H   H5        1.0  0.6719179584241246  0.7342170939608661  0.23381043942558843  1.0000
  C   C9        1.0  0.08280075650787189  0.13925893710597181  0.40700059607618244  1.0000
  C   C10       1.0  0.062198230683045086  0.22117669419395014  0.278135286136596  1.0000
  C   C11       1.0  0.04995656950885641  0.15473622255698394  0.14844359567487442  1.0000
  C   C12       1.0  0.058364408010575214  0.004990584571953342  0.14667770577821648  1.0000
  C   C13       1.0  0.07731107446698496  0.9217328792195467  0.2737742035687434  1.0000
  C   C14       1.0  0.08829923762766595  0.9864300657541716  0.4054362506207656  1.0000
  N   N4        1.0  0.02990426805307501  0.23973898859023302  0.018161177723079677  1.0000
  H   H6        1.0  0.1835712482695766  0.22237522908671561  0.7223215596576626  1.0000
  H   H7        1.0  0.05768308088413224  0.33775887441803015  0.2775863267222416  1.0000
  H   H8        1.0  0.049369515723530315  0.9524334975183923  0.04689259606996021  1.0000
  H   H9        1.0  0.08125761868464942  0.8055290536453359  0.2696424017788377  1.0000
  H   H10       1.0  0.15254265991388904  0.6917106016466479  0.6199706166459946  1.0000
  H   H11       1.0  0.023734461015750836  0.35180604659165454  0.018120749388202743  1.0000
  H   H12       1.0  0.020993609254932773  0.19122438672317132  0.920746216989186  1.0000
  C   C15       1.0  0.0855623006525901  0.5583463418379213  0.982980899490105  1.0000
  C   C16       1.0  0.16778986010717678  0.5555648441684882  0.056503582769418026  1.0000
  C   C17       1.0  0.24866989197624376  0.5661910493080846  0.9809857148562707  1.0000
  C   C18       1.0  0.24937813270980524  0.579991642764805  0.8293316031704029  1.0000
  C   C19       1.0  0.1676806012459655  0.5803410656628702  0.7550032452779218  1.0000
  C   C20       1.0  0.0855377015164771  0.567342649920483  0.8294559071555863  1.0000
  N   N5        1.0  0.3317824616171176  0.5922802638282745  0.7484356192776453  1.0000
  C   C21       1.0  0.4201987633060965  0.5925412085234829  0.8153320253435403  1.0000
  H   H13       1.0  0.9437705630447589  0.48891157270680474  0.26909508239605007  1.0000
  H   H14       1.0  0.31035997840295904  0.5649271894248913  0.04204533443147618  1.0000
  H   H15       1.0  0.8761193115162775  0.4550637012032174  0.7343876803106  1.0000
  H   H16       1.0  0.32893897921674564  0.6018371098927342  0.6355451388819842  1.0000
  H   H17       1.0  0.4266110124701236  0.6850795459447893  0.8846236769388356  1.0000
  H   H18       1.0  0.4304526179376176  0.48944273070316496  0.8810650649078912  1.0000
  H   H19       1.0  0.47274803804716115  0.6035000062209488  0.7303670254598497  1.0000
  Zn  Zn1       1.0  0.9874283265908045  0.5627452773310457  0.40632201823772673  1.0000
  Zn  Zn2       1.0  0.18366307547316119  0.5629429777389985  0.4061141454211008  1.0000
  C   C22       1.0  0.08550303797025083  0.5598956632759049  0.6694646263075155  1.0000
  C   C23       1.0  0.08559051877968439  0.5657944154911421  0.1429716731808508  1.0000
  C   C24       1.0  0.08725545448457986  0.8262356137539577  0.3999885971662698  1.0000
  C   C25       1.0  0.08383802405377178  0.2994527327152372  0.41244778243324776  1.0000
  O   O1        1.0  0.16007001271172627  0.5683627903147901  0.1965871633352536  1.0000
  O   O2        1.0  0.15996117082620498  0.5574762458883145  0.6156909526158523  1.0000
  O   O3        1.0  0.1613752653881776  0.7725491391437174  0.39808715079051016  1.0000
  O   O4        1.0  0.15865585125824233  0.35328990616218103  0.41419085714752657  1.0000
  O   O5        1.0  0.012435483840444572  0.7723983488418877  0.39824530657465407  1.0000
  O   O6        1.0  0.01102140052477685  0.5573271878183605  0.6158490283521982  1.0000
  O   O7        1.0  0.011130242194008929  0.5682136635622574  0.19674350634526672  1.0000
  O   O8        1.0  0.009716080666757554  0.35314077024087903  0.41434730823396226  1.0000
