data_image0
_chemical_formula_structural       NC10NC3NH7C7OC3OC4H12C7OC3NC3H11Zn2C4O8
_chemical_formula_sum              "N4 C44 H30 O11 Zn2"
_cell_length_a       19.210446455230148
_cell_length_b       10.299371110280156
_cell_length_c       10.298749378158432
_cell_angle_alpha    85.57454226300094
_cell_angle_beta     89.9995885785224
_cell_angle_gamma    89.9600477448761

_space_group_name_H-M_alt    "P 1"
_space_group_IT_number       1

loop_
  _space_group_symop_operation_xyz
  'x, y, z'

loop_
  _atom_site_type_symbol
  _atom_site_label
  _atom_site_symmetry_multiplicity
  _atom_site_fract_x
  _atom_site_fract_y
  _atom_site_fract_z
  _atom_site_occupancy
  N   N1        1.0  0.6555191151143467  0.4203122572517319  0.5677202217315439  1.0000
  C   C1        1.0  0.5952906777579069  0.4225197281002134  0.5679521901708169  1.0000
  C   C2        1.0  0.5204863770105517  0.42525658774289354  0.5682395708775521  1.0000
  C   C3        1.0  0.4848816301151167  0.5414844537468515  0.5833947755157924  1.0000
  C   C4        1.0  0.4122161508189041  0.5416359946148981  0.5833422290037685  1.0000
  C   C5        1.0  0.3753196590609071  0.4259655390357621  0.5683263184271061  1.0000
  C   C6        1.0  0.2979974629257199  0.42460909151133164  0.5681752217494495  1.0000
  C   C7        1.0  0.260240529087346  0.5281848943020218  0.5048460323431436  1.0000
  C   C8        1.0  0.1874621094630416  0.526782687983538  0.5047364400910075  1.0000
  C   C9        1.0  0.15143921699990812  0.4220621911448277  0.5679051299169247  1.0000
  C   C10       1.0  0.0765096336118508  0.42076013575796756  0.5677678173775462  1.0000
  N   N2        1.0  0.016271730375881  0.41971323901515195  0.5676574529584875  1.0000
  C   C11       1.0  0.1884724954533564  0.3186120821013374  0.6312093545299323  1.0000
  C   C12       1.0  0.2612527589633121  0.3197400181354213  0.6313690970018899  1.0000
  C   C13       1.0  0.4135343666701772  0.3115578823693801  0.5534599623604199  1.0000
  N   N3        1.0  0.48430442283976083  0.31400281643111905  0.5536264262775469  1.0000
  H   H1        1.0  0.5129872020045769  0.6309159704191538  0.595476638758162  1.0000
  H   H2        1.0  0.3849520751443459  0.6316492307043298  0.5968191373575475  1.0000
  H   H3        1.0  0.2869652393905183  0.6094425557184378  0.45388087765024454  1.0000
  H   H4        1.0  0.15931324054216636  0.6072125190846573  0.45510148352805596  1.0000
  H   H5        1.0  0.1611079865082607  0.2372188737218515  0.6807444686776403  1.0000
  H   H6        1.0  0.2887569149836723  0.23942922728396066  0.6824419369033723  1.0000
  H   H7        1.0  0.3872642117722475  0.22068173870874186  0.539936489924298  1.0000
  C   C14       1.0  0.835851808045201  0.03864144734284137  0.5675740347380119  1.0000
  C   C15       1.0  0.8278201181008903  0.047954881178223996  0.431580829623623  1.0000
  C   C16       1.0  0.8229828780286232  0.9354666904459434  0.36315795768489667  1.0000
  C   C17       1.0  0.8278546957449346  0.8126869139448011  0.43189193130679393  1.0000
  C   C18       1.0  0.8359456934480254  0.8013740899767575  0.5678148874784281  1.0000
  C   C19       1.0  0.839715186037303  0.914948939069928  0.6349071492619058  1.0000
  C   C20       1.0  0.8152278999005459  0.9451718047459567  0.2194022469715182  1.0000
  O   O1        1.0  0.8437570323604172  0.8600916853691487  0.15536987003558655  1.0000
  C   C21       1.0  0.7751003142311662  0.05131422280802944  0.1482934260077484  1.0000
  C   C22       1.0  0.7945466890924414  0.0964539234138284  0.021138608650783194  1.0000
  C   C23       1.0  0.7568896653841761  0.19553625319946072  0.9517595174061848  1.0000
  O   O2        1.0  0.779103357352849  0.2373186178874187  0.8256490020737369  1.0000
  C   C24       1.0  0.7459157485865231  0.3368664831448272  0.7442141020208628  1.0000
  C   C25       1.0  0.6985019535863358  0.24948649614546659  0.010261849786873384  1.0000
  C   C26       1.0  0.6783407977711716  0.20405828684692184  0.13589962662781785  1.0000
  C   C27       1.0  0.7161212885876278  0.1052571235668247  0.2045264662635069  1.0000
  H   H8        1.0  0.8520706716948407  0.2284037326501358  0.8239820791515182  1.0000
  H   H9        1.0  0.8260920836425613  0.14289718987233166  0.37854771077984095  1.0000
  H   H10       1.0  0.8246498200432952  0.7258368627230529  0.3791663591833303  1.0000
  H   H11       1.0  0.8459074785144142  0.9069651620279354  0.7397479457937794  1.0000
  H   H12       1.0  0.8396328863743799  0.46957996458977114  0.6199047485832634  1.0000
  H   H13       1.0  0.8395498872311214  0.05548745162301239  0.9757547681319981  1.0000
  H   H14       1.0  0.7743036747800638  0.3499193781359833  0.650331722565519  1.0000
  H   H15       1.0  0.7469452025617767  0.4303170297344921  0.7912362654541358  1.0000
  H   H16       1.0  0.691362206727713  0.30872559990516274  0.7244579947690544  1.0000
  H   H17       1.0  0.6682618139666386  0.3260407426819829  0.9593750893136839  1.0000
  H   H18       1.0  0.6330744140921863  0.24518671570111805  0.1800616954412124  1.0000
  H   H19       1.0  0.698764597408381  0.07012858653970078  0.3009148928145817  1.0000
  C   C28       1.0  0.8358666461191675  0.42003582096349357  0.18629340998407407  1.0000
  C   C29       1.0  0.8739038387489919  0.5368380318628507  0.17630401264826223  1.0000
  C   C30       1.0  0.8924394052187993  0.596703365802711  0.054014374750674055  1.0000
  C   C31       1.0  0.8739066112491347  0.536886888940564  0.9410599981746629  1.0000
  C   C32       1.0  0.835930828369285  0.4199796817650858  0.9490954908727907  1.0000
  C   C33       1.0  0.8169919509491952  0.36247685901965987  0.07213466061565364  1.0000
  C   C34       1.0  0.9331708036607281  0.7194043334572218  0.0433659215070319  1.0000
  O   O3        1.0  0.9766681539147821  0.7376750068462287  0.952017232352238  1.0000
  C   C35       1.0  0.9245582990401675  0.8213699790434563  0.13628930067809716  1.0000
  C   C36       1.0  0.8594390501346774  0.8440522282544124  0.1930120266909987  1.0000
  C   C37       1.0  0.8516646455427562  0.9415676742283423  0.279744443128443  1.0000
  N   N4        1.0  0.7853939059221778  0.9635294550756976  0.33743502686015797  1.0000
  C   C38       1.0  0.9091134133079486  0.01772379478386421  0.3091562011635709  1.0000
  C   C39       1.0  0.9736843669160112  0.9969931173326313  0.25197485240251405  1.0000
  C   C40       1.0  0.9814186949861716  0.899789410040559  0.16561934599250372  1.0000
  H   H20       1.0  0.7649174881857348  0.1983219246510017  0.41260838942575107  1.0000
  H   H21       1.0  0.8898063210403336  0.5806576641791285  0.2638612422126525  1.0000
  H   H22       1.0  0.8885926158271465  0.5823847041751467  0.846665505336063  1.0000
  H   H23       1.0  0.7876754529807043  0.2724410328138078  0.07908289188207494  1.0000
  H   H24       1.0  0.764427662871616  0.19884569688222606  0.7569941355577807  1.0000
  H   H25       1.0  0.8145182543572369  0.7871192925028587  0.16895884310053377  1.0000
  H   H26       1.0  0.7422228171213513  0.9073287946880105  0.3161967643560384  1.0000
  H   H27       1.0  0.779024946580324  0.036058789987319706  0.4019467581120048  1.0000
  H   H28       1.0  0.9037739189332005  0.09334739518897496  0.3759140729773125  1.0000
  H   H29       1.0  0.017861826447505003  0.05638711617373282  0.2746222980843151  1.0000
  H   H30       1.0  0.031986567255855025  0.885060677442157  0.12260546106038836  1.0000
  Zn  Zn1       1.0  0.7596245265587036  0.42013592890123674  0.5677096066246823  1.0000
  Zn  Zn2       1.0  0.9121663025842558  0.41987898396924467  0.5676787013970683  1.0000
  C   C41       1.0  0.8359165218635912  0.4148166039156997  0.8049079331062738  1.0000
  C   C42       1.0  0.8358759732432333  0.42519994476943607  0.330480502572583  1.0000
  C   C43       1.0  0.8359239226620173  0.6572017624537949  0.5625937395167913  1.0000
  C   C44       1.0  0.8358685202067434  0.1828132260015567  0.5727947649244018  1.0000
  O   O4        1.0  0.8937679118374724  0.426829896853993  0.3788592778488451  1.0000
  O   O5        1.0  0.8938002615442572  0.4129906568719183  0.7565053272904714  1.0000
  O   O6        1.0  0.8938054575274127  0.6087197389852603  0.5608349021383296  1.0000
  O   O7        1.0  0.8937626637950883  0.23110082412577393  0.5745296056315949  1.0000
  O   O8        1.0  0.7780281132928488  0.6089140888338047  0.560858702393871  1.0000
  O   O9        1.0  0.7780229174927347  0.41318656703934487  0.7565290587873921  1.0000
  O   O10       1.0  0.7779905676952483  0.42702576187996616  0.37888144779924454  1.0000
  O   O11       1.0  0.7779853196570709  0.23129667985572186  0.5745518729551016  1.0000
