data_image0
_chemical_formula_structural       NC8NH4C7NH5C7F3H5Zn2C4O8
_chemical_formula_sum              "N3 C26 H14 F3 Zn2 O8"
_cell_length_a       13.859017124695912
_cell_length_b       9.275154477615127
_cell_length_c       9.272721663655245
_cell_angle_alpha    86.10781498077147
_cell_angle_beta     90.51616873928766
_cell_angle_gamma    89.43373790894346

_space_group_name_H-M_alt    "P 1"
_space_group_IT_number       1

loop_
  _space_group_symop_operation_xyz
  'x, y, z'

loop_
  _atom_site_type_symbol
  _atom_site_label
  _atom_site_symmetry_multiplicity
  _atom_site_fract_x
  _atom_site_fract_y
  _atom_site_fract_z
  _atom_site_occupancy
  N   N1        1.0  0.8886612869108708  0.5691389993115892  0.41567393817879195  1.0000
  C   C1        1.0  0.8161207721597645  0.5459748347126433  0.35939561996900404  1.0000
  C   C2        1.0  0.725884688948079  0.5171619981824835  0.28939262665997556  1.0000
  C   C3        1.0  0.6384950497556946  0.5452515897105199  0.35763674048357075  1.0000
  C   C4        1.0  0.5506543575393189  0.5171632205245782  0.28939205196990714  1.0000
  C   C5        1.0  0.5503856375737127  0.4609776462400161  0.1528823056019022  1.0000
  C   C6        1.0  0.6375935857888778  0.4329960177581402  0.08490088099866733  1.0000
  C   C7        1.0  0.725251018991462  0.4609753038308578  0.15288347514741418  1.0000
  C   C8        1.0  0.4608809243516335  0.5459757583022593  0.35939512541003116  1.0000
  N   N2        1.0  0.3887124090788179  0.5691393206542479  0.41567372335482583  1.0000
  H   H1        1.0  0.6388442429742814  0.5887414079238387  0.46329855798865066  1.0000
  H   H2        1.0  0.48291266800714894  0.43887007624444613  0.09916672538084836  1.0000
  H   H3        1.0  0.6372451608273106  0.38959502450472594  0.9794530494977884  1.0000
  H   H4        1.0  0.79236892700118  0.43886563910933857  0.09916888625826803  1.0000
  C   C9        1.0  0.14147362476476855  0.14574066575351474  0.4140051955798727  1.0000
  C   C10       1.0  0.1142267301099964  0.22821759584363677  0.2868653951403468  1.0000
  C   C11       1.0  0.07917187190209218  0.16151420386609505  0.16646038303077806  1.0000
  C   C12       1.0  0.07079009698821981  0.011423035146270959  0.171777141324448  1.0000
  C   C13       1.0  0.09891391088194235  0.9277224260279159  0.29601889068685927  1.0000
  C   C14       1.0  0.1359094552072877  0.9925266790878353  0.41735495609330786  1.0000
  C   C15       1.0  0.05063209694787063  0.24756448279224566  0.03778821682633571  1.0000
  N   N3        1.0  0.027694017948403767  0.3167331830322324  0.9343687542767154  1.0000
  H   H5        1.0  0.16230359185209076  0.22436647233558493  0.7679604693984912  1.0000
  H   H6        1.0  0.11814162131152806  0.34515337042352706  0.28258684011617485  1.0000
  H   H7        1.0  0.04333410451413666  0.9587853901354875  0.07923832768006989  1.0000
  H   H8        1.0  0.09384644112671081  0.8112541255609232  0.2958919899729433  1.0000
  H   H9        1.0  0.1540224138047894  0.6950661741154476  0.6545150560982811  1.0000
  C   C16       1.0  0.13615394473668693  0.5667951318012022  0.992227579048568  1.0000
  C   C17       1.0  0.1779948065516379  0.4488633042797377  0.074483386093533  1.0000
  C   C18       1.0  0.2282363104454712  0.33950768548456867  0.008145772340988781  1.0000
  C   C19       1.0  0.23369338238159076  0.3461470783236775  0.8570222154932794  1.0000
  C   C20       1.0  0.19130039855145453  0.46107702934573935  0.7737862318674811  1.0000
  C   C21       1.0  0.14122915221132648  0.5714722110942814  0.8391325066751749  1.0000
  C   C22       1.0  0.2703681116969625  0.21204045068495628  0.09798887595593864  1.0000
  F   F1        1.0  0.3025873402681474  0.25394494300943515  0.23038757893427841  1.0000
  F   F2        1.0  0.3476728231530255  0.1524031120002578  0.02863301672282215  1.0000
  F   F3        1.0  0.20021126726035954  0.10825864344573755  0.12061407106969814  1.0000
  H   H10       1.0  0.0727357631568899  0.910131110165869  0.06980516439274398  1.0000
  H   H11       1.0  0.17321057772845183  0.443740982566931  0.19130875859131313  1.0000
  H   H12       1.0  0.26991363951488045  0.26145011106050875  0.8027792970934606  1.0000
  H   H13       1.0  0.1954320278309345  0.46153816528858044  0.6571334369700659  1.0000
  H   H14       1.0  0.9664776767079859  0.8146558951036509  0.7188037126117082  1.0000
  Zn  Zn1       1.0  0.032965317301807406  0.569135288599182  0.41568219263255024  1.0000
  Zn  Zn2       1.0  0.2444085192112977  0.5691313352248792  0.41567724945128304  1.0000
  C   C23       1.0  0.14030539965180422  0.5648442695643918  0.6790266369726998  1.0000
  C   C24       1.0  0.13707073470874853  0.5734241742054651  0.1523329537857823  1.0000
  C   C25       1.0  0.13692179567736362  0.8324343442922624  0.41097549934545663  1.0000
  C   C26       1.0  0.14045427837567193  0.30583236764426625  0.42038416144126245  1.0000
  O   O1        1.0  0.21762005230963943  0.5756411509612123  0.20606387933415315  1.0000
  O   O2        1.0  0.22023658449719544  0.562623202301594  0.6252915402619645  1.0000
  O   O3        1.0  0.21750320878657026  0.7787055800833964  0.4088383560774198  1.0000
  O   O4        1.0  0.22035335515332832  0.35955878289773674  0.42251695544135015  1.0000
  O   O5        1.0  0.05702040920453344  0.7787078409292015  0.40884248663659095  1.0000
  O   O6        1.0  0.05975377306743268  0.5626271949836054  0.6252956007870076  1.0000
  O   O7        1.0  0.057137230884785284  0.5756450838253169  0.20606620596123482  1.0000
  O   O8        1.0  0.05987053444016755  0.35956270604639196  0.4225193901398887  1.0000
