data_image0
_chemical_formula_structural       NC9NC4H8C6NCOCH7C12H9Zn2C4O8
_chemical_formula_sum              "N3 C37 H24 O9 Zn2"
_cell_length_a       16.32274767691083
_cell_length_b       10.300268703208216
_cell_length_c       10.299141136925906
_cell_angle_alpha    85.54380073465761
_cell_angle_beta     89.48989962439883
_cell_angle_gamma    89.50441699892957

_space_group_name_H-M_alt    "P 1"
_space_group_IT_number       1

loop_
  _space_group_symop_operation_xyz
  'x, y, z'

loop_
  _atom_site_type_symbol
  _atom_site_label
  _atom_site_symmetry_multiplicity
  _atom_site_fract_x
  _atom_site_fract_y
  _atom_site_fract_z
  _atom_site_occupancy
  N   N1        1.0  0.7708194614492039  0.4123417137176857  0.5567832227335252  1.0000
  C   C1        1.0  0.7184897497395428  0.36491995810860645  0.5024871220029119  1.0000
  C   C2        1.0  0.6534433595248854  0.3060217684473392  0.4350509307274171  1.0000
  C   C3        1.0  0.6650060227117609  0.225459556815804  0.34280592907007135  1.0000
  C   C4        1.0  0.5856452467290708  0.18614476925362664  0.29779343470358977  1.0000
  C   C5        1.0  0.526705148841041  0.24368105238774795  0.36367567869604933  1.0000
  C   C6        1.0  0.43676953268838725  0.22847472892150922  0.3462671223941163  1.0000
  C   C7        1.0  0.3811653682172856  0.29553698484309  0.42304973875650775  1.0000
  C   C8        1.0  0.29645845119192504  0.28254093011013226  0.40817128334147235  1.0000
  C   C9        1.0  0.24044210770264143  0.35166480333094735  0.4873135709259686  1.0000
  N   N2        1.0  0.1954239102771886  0.4072290229086295  0.5509305658647878  1.0000
  C   C10       1.0  0.2663026738080261  0.20237415900534475  0.3163866577272967  1.0000
  C   C11       1.0  0.3205849090566695  0.1354007318461692  0.2397060868573466  1.0000
  C   C12       1.0  0.4051330730333222  0.1480467329775601  0.2541836288373507  1.0000
  C   C13       1.0  0.5644488610424645  0.32757530684706593  0.45973330232465703  1.0000
  H   H1        1.0  0.7239174165891763  0.19413271230623752  0.30693393986614304  1.0000
  H   H2        1.0  0.577358128951059  0.12030137414608855  0.22240152507606514  1.0000
  H   H3        1.0  0.4032700237292532  0.3581206643705226  0.4947032190171794  1.0000
  H   H4        1.0  0.20091224803092503  0.1916681021472968  0.3041301211759089  1.0000
  H   H5        1.0  0.2970841364390767  0.0733842605357391  0.1687022734985677  1.0000
  H   H6        1.0  0.4449209905233714  0.09447230220447625  0.19284450243029228  1.0000
  H   H7        1.0  0.5477056299717324  0.2928045085687567  0.5612411782550615  1.0000
  H   H8        1.0  0.547640918688654  0.43163969241529565  0.43756772871936067  1.0000
  C   C14       1.0  0.9832088498917662  0.02843665179917365  0.5538633702460958  1.0000
  C   C15       1.0  0.9969883601948245  0.03769620266832563  0.4186677952689368  1.0000
  C   C16       1.0  0.005049566744927736  0.92504817403893  0.35080468381507424  1.0000
  C   C17       1.0  0.9968030221552382  0.8025389060449162  0.41870275024836556  1.0000
  C   C18       1.0  0.9830423636672864  0.791123978056962  0.5538615335869117  1.0000
  C   C19       1.0  0.9766263770688194  0.9046711822922676  0.6208029416955052  1.0000
  N   N3        1.0  0.01788161047138637  0.9329535268283038  0.2120794430296609  1.0000
  C   C20       1.0  0.06596285165978077  0.03150260031418828  0.14163102040462427  1.0000
  O   O1        1.0  0.1122393232444161  0.1039233074959589  0.20096701405765896  1.0000
  C   C21       1.0  0.06596120653461579  0.04243104477969051  0.9961425503727699  1.0000
  H   H9        1.0  0.9998287939449642  0.13252665621593773  0.36579337109308296  1.0000
  H   H10       1.0  0.0018759659940790223  0.7161310976500057  0.36546987486033067  1.0000
  H   H11       1.0  0.9660209829543711  0.8967199822649222  0.7250805870119477  1.0000
  H   H12       1.0  0.9953015800806938  0.8578166101027139  0.16020695185585065  1.0000
  H   H13       1.0  0.003246268048634481  0.026161888496281975  0.9601858540627481  1.0000
  H   H14       1.0  0.08626418257482205  0.14085755809519898  0.957992478541107  1.0000
  H   H15       1.0  0.1082411835251249  0.968206863556921  0.9598082508568284  1.0000
  C   C22       1.0  0.9830324638115512  0.4098922538569518  0.17247074295695053  1.0000
  C   C23       1.0  0.06860860211008646  0.42284758700462227  0.16947585446552438  1.0000
  C   C24       1.0  0.11209502266482292  0.42930143298741613  0.05082228786065856  1.0000
  C   C25       1.0  0.06884857647968445  0.42262509898766676  0.9342068433020362  1.0000
  C   C26       1.0  0.9832187883103796  0.40966834829253196  0.9352542042284216  1.0000
  C   C27       1.0  0.9408379920482977  0.403379565390396  0.05482476344028497  1.0000
  C   C28       1.0  0.20262596632114016  0.44300850783407064  0.04869876078722046  1.0000
  C   C29       1.0  0.25140092455143304  0.3714091504221949  0.9658034573056783  1.0000
  C   C30       1.0  0.33660668361781165  0.38447255983824696  0.9640427074549858  1.0000
  C   C31       1.0  0.3740218235638717  0.46895526618281624  0.04468462339517498  1.0000
  C   C32       1.0  0.32630688090910387  0.5405504738290983  0.1273206349909919  1.0000
  C   C33       1.0  0.2410795813333979  0.5278129095792825  0.12955149639998065  1.0000
  H   H16       1.0  0.10176057614413649  0.4261555034918456  0.2597712638271028  1.0000
  H   H17       1.0  0.10193634408498053  0.42933772190871045  0.8423248969897728  1.0000
  H   H18       1.0  0.8748309430784024  0.3933904315454744  0.05641887807472101  1.0000
  H   H19       1.0  0.8215436193783859  0.38603760679187943  0.7298764780996785  1.0000
  H   H20       1.0  0.22375847858162135  0.30414822441225775  0.9036734721734314  1.0000
  H   H21       1.0  0.37366787479336083  0.3287692974332738  0.9003035475854527  1.0000
  H   H22       1.0  0.43998501534342904  0.4789409409472096  0.04313990614596585  1.0000
  H   H23       1.0  0.3553567781549547  0.606261664763142  0.1895114393593138  1.0000
  H   H24       1.0  0.20519943694434972  0.5854569931788955  0.19317024134530048  1.0000
  Zn  Zn1       1.0  0.8933511422198547  0.4108628139964734  0.5551017728311216  1.0000
  Zn  Zn2       1.0  0.0728922406036272  0.4086972631020964  0.5526226556087521  1.0000
  C   C34       1.0  0.9831828492524443  0.40453729357977153  0.7910718100483447  1.0000
  C   C35       1.0  0.9830624938277399  0.4150243983661126  0.3166527187898014  1.0000
  C   C36       1.0  0.9830683632284294  0.6469613899191136  0.5486864687931949  1.0000
  C   C37       1.0  0.9831769189443889  0.17259874252575674  0.5590381301373994  1.0000
  O   O2        1.0  0.05120748456244284  0.4159193122273037  0.36410069494560227  1.0000
  O   O3        1.0  0.05130539801531575  0.4019977971365039  0.7417418674175889  1.0000
  O   O4        1.0  0.051212030941690134  0.5977583314837256  0.5460140021171054  1.0000
  O   O5        1.0  0.05130079034504198  0.22015878793735033  0.5598284637115283  1.0000
  O   O6        1.0  0.9149425312098731  0.5994012899016314  0.5478959655675149  1.0000
  O   O7        1.0  0.9150358979222974  0.4036423157958356  0.7436237616147194  1.0000
  O   O8        1.0  0.9149379841524188  0.4175637860907655  0.36598102764805085  1.0000
  O   O9        1.0  0.9150312899574767  0.22180325248395574  0.561708893787704  1.0000
