data_image0
_chemical_formula_structural       NC9NC5H8C12SCH12C12NH11Zn2C4O8
_chemical_formula_sum              "N3 C43 H31 S1 Zn2 O8"
_cell_length_a       17.807436237873137
_cell_length_b       10.299776766347529
_cell_length_c       10.299774167527174
_cell_angle_alpha    85.57893362728709
_cell_angle_beta     89.3859809594266
_cell_angle_gamma    88.37162683502939

_space_group_name_H-M_alt    "P 1"
_space_group_IT_number       1

loop_
  _space_group_symop_operation_xyz
  'x, y, z'

loop_
  _atom_site_type_symbol
  _atom_site_label
  _atom_site_symmetry_multiplicity
  _atom_site_fract_x
  _atom_site_fract_y
  _atom_site_fract_z
  _atom_site_occupancy
  N   N1        1.0  0.7072508923234045  0.38732294972683945  0.5572205185805115  1.0000
  C   C1        1.0  0.6466706518800559  0.35213004476296056  0.5461962836033865  1.0000
  C   C2        1.0  0.571315491099556  0.3083539466282619  0.5324833322917457  1.0000
  C   C3        1.0  0.5532444642598793  0.23690788812618477  0.42748329475404073  1.0000
  C   C4        1.0  0.4800785175410174  0.19429314966570055  0.41408627543466925  1.0000
  C   C5        1.0  0.42393495155339167  0.2227469314461881  0.5056568350152622  1.0000
  C   C6        1.0  0.3461783841303404  0.17757338041608062  0.49150134639912796  1.0000
  C   C7        1.0  0.2839850740181037  0.25933702948485626  0.5174409824588484  1.0000
  C   C8        1.0  0.210676859264711  0.2165192575543966  0.5040576392007448  1.0000
  C   C9        1.0  0.1474329343702155  0.30097435938499073  0.5303612224490946  1.0000
  N   N2        1.0  0.0965978081834303  0.36887041864045766  0.5515085767945005  1.0000
  C   C10       1.0  0.1989784594550117  0.0916798497775757  0.46470930548754663  1.0000
  C   C11       1.0  0.2603144028887157  0.009902345957475625  0.43876127977397167  1.0000
  C   C12       1.0  0.3335032727210206  0.052325517761620866  0.45194208437883354  1.0000
  C   C13       1.0  0.44269727611077275  0.2946874201016436  0.6108761039679611  1.0000
  C   C14       1.0  0.5159161401086255  0.3371117184511707  0.6241174748097955  1.0000
  H   H1        1.0  0.5956484216088356  0.2144014198866897  0.3557730334130964  1.0000
  H   H2        1.0  0.4671815617605861  0.1405863903471307  0.3311680925510625  1.0000
  H   H3        1.0  0.292462460679258  0.35681020959481424  0.546318956019672  1.0000
  H   H4        1.0  0.1425204808785716  0.057640752848669985  0.45411411749995145  1.0000
  H   H5        1.0  0.2511386003413696  0.9132489062249131  0.40868296301198814  1.0000
  H   H6        1.0  0.3801576211149778  0.9865750183829792  0.4328930356723393  1.0000
  H   H7        1.0  0.4010102116716588  0.3166552252683814  0.683880797859346  1.0000
  H   H8        1.0  0.5293412889852056  0.3920387503241418  0.7059941011767743  1.0000
  C   C15       1.0  0.9019987747776994  0.9967280335356102  0.5543618832258255  1.0000
  C   C16       1.0  0.9065040723285466  0.984992961141581  0.6908028546052665  1.0000
  C   C17       1.0  0.9087146107006687  0.8619115151797303  0.759945000279113  1.0000
  C   C18       1.0  0.9063604176859834  0.7497119975237848  0.6908201516548254  1.0000
  C   C19       1.0  0.9018571266491343  0.7594550270907146  0.5543784014942816  1.0000
  C   C20       1.0  0.8997010908504646  0.883400943847994  0.48691303627115945  1.0000
  C   C21       1.0  0.9134724279423294  0.8505614311990849  0.9042842747003366  1.0000
  C   C22       1.0  0.8704707503013949  0.7591608142265962  0.9789541151186202  1.0000
  C   C23       1.0  0.8749709763055733  0.7487124424743485  0.11479060209111701  1.0000
  C   C24       1.0  0.9222854462493276  0.829395534717597  0.1777665803210819  1.0000
  C   C25       1.0  0.9654663142053976  0.9202142769511433  0.10446710724939556  1.0000
  C   C26       1.0  0.9610762502067871  0.9310073134387934  0.9686185896671966  1.0000
  S   S1        1.0  0.9281427012059363  0.8155243722430807  0.35206226626797554  1.0000
  C   C27       1.0  0.8526484213175801  0.9351698833653102  0.37269754001435673  1.0000
  H   H9        1.0  0.9003116081071518  0.32865171000576754  0.5023712459596432  1.0000
  H   H10       1.0  0.9072684178452648  0.07180341712472747  0.7437473237365031  1.0000
  H   H11       1.0  0.9090836420425648  0.6545847500094841  0.7435397565691519  1.0000
  H   H12       1.0  0.8962259590085176  0.8916855405986858  0.38165462076516166  1.0000
  H   H13       1.0  0.9001036607565568  0.4357155729316922  0.502393402398807  1.0000
  H   H14       1.0  0.8326552034587441  0.696975066081322  0.9323971149955171  1.0000
  H   H15       1.0  0.8413786226972552  0.6782586429096008  0.17100212705904383  1.0000
  H   H16       1.0  0.0024821806185966106  0.9824942686830296  0.15262469409238089  1.0000
  H   H17       1.0  0.9956167014771783  0.0010476451425942572  0.913806127698515  1.0000
  H   H18       1.0  0.8676911475681922  0.03077225435020448  0.3236016435106654  1.0000
  H   H19       1.0  0.843936061929345  0.9462932189489707  0.4780993652768985  1.0000
  H   H20       1.0  0.7997868227920375  0.9021302578128758  0.33135306278407184  1.0000
  C   C28       1.0  0.9019535206241869  0.3779758024934612  0.17301766300987498  1.0000
  C   C29       1.0  0.8283850032286957  0.3321610610620695  0.1769167800830782  1.0000
  C   C30       1.0  0.7910809273934534  0.3090634331759905  0.06174506267695045  1.0000
  C   C31       1.0  0.8283333473582221  0.3323948081028083  0.941612831233134  1.0000
  C   C32       1.0  0.9019023430524704  0.37820730038951544  0.9357225627391362  1.0000
  C   C33       1.0  0.9383003424720019  0.4007417605671073  0.051950214520847915  1.0000
  C   C34       1.0  0.7132496996818157  0.26059465878405197  0.06692345122038312  1.0000
  C   C35       1.0  0.6921542213211354  0.16314150064182842  0.16252981070162487  1.0000
  C   C36       1.0  0.6188959701622359  0.11757837959321016  0.1672700579510824  1.0000
  C   C37       1.0  0.5655743750054114  0.16863070000139646  0.07674862715158182  1.0000
  C   C38       1.0  0.5861741698572001  0.26571719326684495  0.9813088968920164  1.0000
  C   C39       1.0  0.6594098433990787  0.31138264525167836  0.9763027026781476  1.0000
  N   N3        1.0  0.49064819689132044  0.12197058727808541  0.08173352161379442  1.0000
  H   H21       1.0  0.9299992807865152  0.395379044948291  0.4989893329385249  1.0000
  H   H22       1.0  0.799545161058128  0.3160249039897216  0.26962522688306834  1.0000
  H   H23       1.0  0.8002015821689717  0.3130527157431065  0.8526947314103394  1.0000
  H   H24       1.0  0.9950552297595332  0.43608482971803836  0.048174235684161015  1.0000
  H   H25       1.0  0.9299241785818448  0.39571955110384627  0.6060206635114533  1.0000
  H   H26       1.0  0.7325740360778495  0.12095805768276202  0.23258589133949156  1.0000
  H   H27       1.0  0.603755026228856  0.04225002695701806  0.24130909349623786  1.0000
  H   H28       1.0  0.5454410383271145  0.306250190712114  0.9109873281639984  1.0000
  H   H29       1.0  0.6736723681693355  0.3876191158941569  0.9026085881703718  1.0000
  H   H30       1.0  0.45050814268387745  0.15942905310978905  0.014658526257383064  1.0000
  H   H31       1.0  0.4747628422234376  0.04962275801342697  0.1525363987315167  1.0000
  Zn  Zn1       1.0  0.8196080008312131  0.38199448484892984  0.555579685959305  1.0000
  Zn  Zn2       1.0  0.9842406827285766  0.37418830059603175  0.5531600853382739  1.0000
  C   C40       1.0  0.9019113111375316  0.37298992166494593  0.791554947715683  1.0000
  C   C41       1.0  0.9019391698931098  0.3831944171931764  0.3171849246563263  1.0000
  C   C42       1.0  0.9018803612761599  0.6152820093838212  0.549200369646828  1.0000
  C   C43       1.0  0.9019700638620278  0.14090077185816607  0.5595395727527197  1.0000
  O   O1        1.0  0.9644115994986643  0.3819777599821881  0.3646505487007081  1.0000
  O   O2        1.0  0.9643912779581784  0.3682808858159272  0.7422525289345838  1.0000
  O   O3        1.0  0.9643654432399786  0.5639348511950313  0.5465495048526432  1.0000
  O   O4        1.0  0.9644373780436881  0.18632380652746772  0.5603534762380269  1.0000
  O   O5        1.0  0.8394112493350477  0.5698589815827728  0.5483862958784117  1.0000
  O   O6        1.0  0.8394370837646465  0.37420657648508326  0.7440892507516745  1.0000
  O   O7        1.0  0.8394574054682442  0.38790340491922903  0.3664857091827345  1.0000
  O   O8        1.0  0.8394831840053893  0.1922494422054042  0.5621887340835356  1.0000
