data_image0
_chemical_formula_structural       NC9NC5H8C7OC3NC3H11C7OC6H10Zn2C4O8
_chemical_formula_sum              "N3 C44 H29 O10 Zn2"
_cell_length_a       17.807436237873137
_cell_length_b       10.298746005989749
_cell_length_c       10.299382801718286
_cell_angle_alpha    85.57508548997963
_cell_angle_beta     89.37299496534969
_cell_angle_gamma    88.3993582553778

_space_group_name_H-M_alt    "P 1"
_space_group_IT_number       1

loop_
  _space_group_symop_operation_xyz
  'x, y, z'

loop_
  _atom_site_type_symbol
  _atom_site_label
  _atom_site_symmetry_multiplicity
  _atom_site_fract_x
  _atom_site_fract_y
  _atom_site_fract_z
  _atom_site_occupancy
  N   N1        1.0  0.7078260014843134  0.38758635129994734  0.5572017942852343  1.0000
  C   C1        1.0  0.6472373392587268  0.35239162988793993  0.5461757340650888  1.0000
  C   C2        1.0  0.5718717027107852  0.30861327229354774  0.5324605123513134  1.0000
  C   C3        1.0  0.5537942777963436  0.23717196679650643  0.4274527788276392  1.0000
  C   C4        1.0  0.48061813942599263  0.19455503370889926  0.4140535470269166  1.0000
  C   C5        1.0  0.42447067840359975  0.22300183960479616  0.5056295746759165  1.0000
  C   C6        1.0  0.34670330141724637  0.17782595747543484  0.4914717429492079  1.0000
  C   C7        1.0  0.2845295152736381  0.2595937932855261  0.5174156353906082  1.0000
  C   C8        1.0  0.2112110502748376  0.21677380835377671  0.5040300728534894  1.0000
  C   C9        1.0  0.14798735547330377  0.301233284794191  0.5303380289297568  1.0000
  N   N2        1.0  0.0971684927401827  0.3691328608216438  0.5514888987790918  1.0000
  C   C10       1.0  0.1994828073318709  0.09192798185262707  0.4646752527781153  1.0000
  C   C11       1.0  0.2607992240058837  0.010146290989832218  0.4387229697687023  1.0000
  C   C12       1.0  0.33399825987580584  0.052571663492011714  0.4519059693747688  1.0000
  C   C13       1.0  0.4432395110212023  0.29493759420054877  0.6108565683658002  1.0000
  C   C14       1.0  0.5164685335286353  0.3373640871546979  0.6241001371755656  1.0000
  H   H1        1.0  0.5962012227446404  0.21467094275458012  0.3557382271369744  1.0000
  H   H2        1.0  0.46771689066079825  0.1408522547547806  0.3311293863429037  1.0000
  H   H3        1.0  0.2930304420071215  0.35707217352706977  0.5462985843272623  1.0000
  H   H4        1.0  0.14301667432728976  0.057887121120586055  0.4540783026543259  1.0000
  H   H5        1.0  0.2516002662508574  0.9134878422999462  0.40863964976670614  1.0000
  H   H6        1.0  0.3806366735624078  0.9868176123774068  0.432853585327144  1.0000
  H   H7        1.0  0.4015491405984933  0.3168997778857843  0.6838655953406656  1.0000
  H   H8        1.0  0.529898451788494  0.39228734710657287  0.7059827358612714  1.0000
  C   C15       1.0  0.9024649385387317  0.9969590669064989  0.5543286727745246  1.0000
  C   C16       1.0  0.9376326828102876  0.0037767743299641585  0.4313091000377717  1.0000
  C   C17       1.0  0.9546253396519939  0.8901380805601162  0.3684270469045527  1.0000
  C   C18       1.0  0.9376332557359182  0.7685401380318798  0.43125995481761104  1.0000
  C   C19       1.0  0.9025367169036989  0.7597498652136755  0.5543731739093518  1.0000
  C   C20       1.0  0.8849944521466786  0.8745229078557596  0.6149745228174848  1.0000
  C   C21       1.0  0.9924005920494934  0.8971158513525479  0.23905798795646688  1.0000
  O   O1        1.0  0.03827542679734619  0.8069591156111504  0.2131727543448558  1.0000
  C   C22       1.0  0.9781353298043187  0.006311906276302179  0.1390621886002601  1.0000
  C   C23       1.0  0.9070010304024826  0.06907336961587586  0.1279985701185957  1.0000
  C   C24       1.0  0.8938554135599384  0.17135048898645236  0.032285215547132484  1.0000
  N   N3        1.0  0.8215183299086922  0.23501131456280616  0.0221426165315739  1.0000
  C   C25       1.0  0.9518908266522408  0.21047126220185544  0.9462999937500307  1.0000
  C   C26       1.0  0.022339740702316927  0.14757719096801925  0.9555176085347878  1.0000
  C   C27       1.0  0.03542698162975966  0.045727258653074816  0.05092761355971187  1.0000
  H   H9        1.0  0.8370568666594276  0.19132291446992916  0.7876226107018143  1.0000
  H   H10       1.0  0.9525815713607036  0.09757686432901491  0.38486823559841077  1.0000
  H   H11       1.0  0.9511917487047992  0.6806974895418123  0.3833634185361732  1.0000
  H   H12       1.0  0.8578901736889364  0.8685154345064239  0.7098021765500337  1.0000
  H   H13       1.0  0.836504423668224  0.5358092355200379  0.7871877483243582  1.0000
  H   H14       1.0  0.8614931609043347  0.037837511339440244  0.19262853801667695  1.0000
  H   H15       1.0  0.7778559794756258  0.20663785168056809  0.08573404955418629  1.0000
  H   H16       1.0  0.8111102576571961  0.311107366255412  0.9510573818620082  1.0000
  H   H17       1.0  0.9424377998544111  0.28925766535152597  0.8719520225391411  1.0000
  H   H18       1.0  0.06692758919257336  0.17782063513129678  0.8885688447314504  1.0000
  H   H19       1.0  0.09052421322802395  0.998475068169821  0.05664668082505386  1.0000
  C   C28       1.0  0.9025757680409265  0.37827767368860754  0.1729800383957596  1.0000
  C   C29       1.0  0.9815011450500436  0.3754004282753922  0.1705183586060128  1.0000
  C   C30       1.0  0.021308727007895545  0.3724610287276211  0.05221855472737791  1.0000
  C   C31       1.0  0.9813180777749221  0.3754371441678097  0.9352754777499509  1.0000
  C   C32       1.0  0.902425868693103  0.37843124650730015  0.9357217807851991  1.0000
  C   C33       1.0  0.8635123118100222  0.3794893935861201  0.05513315027587451  1.0000
  C   C34       1.0  0.10464379632073315  0.3708070970974504  0.04936742008226313  1.0000
  O   O2        1.0  0.1377506404218174  0.42995203970653073  0.9543584147370242  1.0000
  C   C35       1.0  0.15042099215802396  0.3020485039311931  0.1541979136535141  1.0000
  C   C36       1.0  0.2210386990805121  0.34916559965542304  0.18426616972870977  1.0000
  C   C37       1.0  0.2649839842162445  0.28414346130589085  0.2818720063301694  1.0000
  C   C38       1.0  0.23923149856521242  0.17105064399459358  0.34960698126342904  1.0000
  C   C39       1.0  0.16960985707149945  0.1224392510351218  0.3195010044483553  1.0000
  C   C40       1.0  0.12545052314370642  0.18709278965137344  0.2220003466713889  1.0000
  H   H20       1.0  0.7536319563394479  0.3857193245176502  0.38479025759327024  1.0000
  H   H21       1.0  0.012107079572651221  0.3769005426336969  0.2606682968373577  1.0000
  H   H22       1.0  0.011931462852011295  0.37415754204111895  0.8438748135920395  1.0000
  H   H23       1.0  0.8026667928567203  0.3817083317867139  0.056226684665013016  1.0000
  H   H24       1.0  0.8721190655881861  0.38068651631657796  0.6083514844919969  1.0000
  H   H25       1.0  0.24190432663910763  0.43685730358796604  0.13302982903001667  1.0000
  H   H26       1.0  0.319065567184732  0.3214673572703286  0.3049535402026582  1.0000
  H   H27       1.0  0.2733546916107543  0.12080188343794342  0.42504677806339014  1.0000
  H   H28       1.0  0.14996703611198978  0.03423364251131034  0.37134813758584334  1.0000
  H   H29       1.0  0.07227071839953879  0.14644370165290435  0.19871916359166542  1.0000
  Zn  Zn1       1.0  0.8201818312051552  0.38225760850540647  0.5555606866765408  1.0000
  Zn  Zn2       1.0  0.9848126417279277  0.37445101871825953  0.5531406824372457  1.0000
  C   C41       1.0  0.902452062632882  0.373228184520938  0.7915470152427064  1.0000
  C   C42       1.0  0.9025442081927161  0.38348199623545404  0.3171544550074554  1.0000
  C   C43       1.0  0.902520307827306  0.615565291495539  0.5491896318100324  1.0000
  C   C44       1.0  0.9024759066608413  0.1411433315073205  0.5595119084138329  1.0000
  O   O3        1.0  0.9650101504987989  0.3822603880755313  0.3646223269443767  1.0000
  O   O4        1.0  0.9649370961971752  0.36852379178600553  0.7422420421780944  1.0000
  O   O5        1.0  0.9649913625758446  0.564214110647611  0.5465367527966913  1.0000
  O   O6        1.0  0.9649558279627933  0.18657008114916995  0.5603275197769324  1.0000
  O   O7        1.0  0.8400385887898754  0.5701385487399144  0.5483738501558515  1.0000
  O   O8        1.0  0.8399843225682431  0.37444979029725944  0.7440790703825484  1.0000
  O   O9        1.0  0.8400573772223717  0.38818634101035676  0.3664577937366742  1.0000
  O   O10       1.0  0.8400030546632881  0.1924960248141696  0.562163083937075  1.0000
