data_image0
_chemical_formula_structural       NC9NC5H8C8H10C7F3H5Zn2C4O8
_chemical_formula_sum              "N2 C33 H23 F3 Zn2 O8"
_cell_length_a       17.807436237873137
_cell_length_b       9.275653711864159
_cell_length_c       9.272291681409872
_cell_angle_alpha    86.24699051760598
_cell_angle_beta     89.81650948764641
_cell_angle_gamma    87.8440138982238

_space_group_name_H-M_alt    "P 1"
_space_group_IT_number       1

loop_
  _space_group_symop_operation_xyz
  'x, y, z'

loop_
  _atom_site_type_symbol
  _atom_site_label
  _atom_site_symmetry_multiplicity
  _atom_site_fract_x
  _atom_site_fract_y
  _atom_site_fract_z
  _atom_site_occupancy
  N   N1        1.0  0.6938414900336352  0.5274260233218955  0.4033534726814725  1.0000
  C   C1        1.0  0.6334029224190917  0.4882432126612708  0.3909881884194548  1.0000
  C   C2        1.0  0.5582239869647521  0.43950411107460163  0.37560711760368415  1.0000
  C   C3        1.0  0.540096227306072  0.35920192631892967  0.2587866606146727  1.0000
  C   C4        1.0  0.4671016312366847  0.3117554125370403  0.24376050527471538  1.0000
  C   C5        1.0  0.4111880261655528  0.3441915280867873  0.3455174107371848  1.0000
  C   C6        1.0  0.3336132897312964  0.29389649718072786  0.32964002505016765  1.0000
  C   C7        1.0  0.2710921943005669  0.38493288407036785  0.35873133293360504  1.0000
  C   C8        1.0  0.1979564696082383  0.3372610256333255  0.3437196265053457  1.0000
  C   C9        1.0  0.1343719276102226  0.4312896167647598  0.37322467744304766  1.0000
  N   N2        1.0  0.0832629733920387  0.5068821091264735  0.3969459107030342  1.0000
  C   C10       1.0  0.18675961488300313  0.1982660524963673  0.2995875342465928  1.0000
  C   C11       1.0  0.24842338253068394  0.107214203047189  0.27048686282595047  1.0000
  C   C12       1.0  0.3214410218397079  0.1544460022339873  0.2852723025071402  1.0000
  C   C13       1.0  0.4300053613636813  0.42504478666936407  0.4625830258920423  1.0000
  C   C14       1.0  0.5030532412642694  0.47227839117778897  0.4774357053340865  1.0000
  H   H1        1.0  0.5823212924593668  0.3335520923811892  0.179098512509263  1.0000
  H   H2        1.0  0.4541454050936962  0.25135490715203446  0.1515175760382943  1.0000
  H   H3        1.0  0.2791702916150236  0.4934416848025447  0.39114126897137913  1.0000
  H   H4        1.0  0.13043894616591736  0.16036847870185378  0.2877027092298676  1.0000
  H   H5        1.0  0.2396374962643041  0.9996047434010603  0.23674736374326466  1.0000
  H   H6        1.0  0.36836650531363  0.08125536938493494  0.26388818432901506  1.0000
  H   H7        1.0  0.3885054558588383  0.4501082785366317  0.5437062023030326  1.0000
  H   H8        1.0  0.5165268139226903  0.5340244840681163  0.5685267898280384  1.0000
  C   C15       1.0  0.8906597969078148  0.09364200168869496  0.39876964646931023  1.0000
  C   C16       1.0  0.8725501097652142  0.17687931230192433  0.2704867691000872  1.0000
  C   C17       1.0  0.8476859226211824  0.11188877112373108  0.14789468174224  1.0000
  C   C18       1.0  0.842045564900987  0.9616328788455837  0.15259414189659082  1.0000
  C   C19       1.0  0.860955883190002  0.8771415772763931  0.27808540553850136  1.0000
  C   C20       1.0  0.8864519366568062  0.9406547609753938  0.40154206849104046  1.0000
  C   C21       1.0  0.8295790582013607  0.2024312907310375  0.010823724098004693  1.0000
  C   C22       1.0  0.8995260668957115  0.21976916008331668  0.91689574416105  1.0000
  H   H9        1.0  0.9596074433722005  0.356295419018187  0.5974649015347944  1.0000
  H   H10       1.0  0.876133621238304  0.29347499684040246  0.26654364397033814  1.0000
  H   H11       1.0  0.8237029413697001  0.9095330247050454  0.058328951861944756  1.0000
  H   H12       1.0  0.8574778187330584  0.7608462509100515  0.27726258969425777  1.0000
  H   H13       1.0  0.8944005258195362  0.6432065317637358  0.6391570596742615  1.0000
  H   H14       1.0  0.7855418794992496  0.15132604001780267  0.9488562815489879  1.0000
  H   H15       1.0  0.8068691121249408  0.31101613191854716  0.03675126835575116  1.0000
  H   H16       1.0  0.9435351597928936  0.27416425023692126  0.9756935735744232  1.0000
  H   H17       1.0  0.9219709220696558  0.1124192511003472  0.886860162884462  1.0000
  H   H18       1.0  0.8849829675061731  0.28671578701539335  0.8165102699418951  1.0000
  C   C23       1.0  0.8869926444865508  0.5135298378460953  0.9768090685354754  1.0000
  C   C24       1.0  0.9379795828725318  0.4200986156166504  0.055899834348719146  1.0000
  C   C25       1.0  0.99298545259985  0.3393750354002323  0.9859493214403638  1.0000
  C   C26       1.0  0.9991922776821238  0.35161776015431084  0.8349949827420478  1.0000
  C   C27       1.0  0.9467318485915911  0.44035007550481  0.7547430156894319  1.0000
  C   C28       1.0  0.890119084526628  0.5207669992093213  0.8235026366903075  1.0000
  C   C29       1.0  0.05731452681698834  0.2612310825332209  0.7591745590385512  1.0000
  F   F1        1.0  0.12035256162639563  0.23356060948636337  0.8449787628765574  1.0000
  F   F2        1.0  0.07944649982396368  0.3322176180792198  0.6309683113069728  1.0000
  F   F3        1.0  0.027008818983168755  0.13144293780908556  0.7292947229485645  1.0000
  H   H19       1.0  0.7797297690796109  0.8105420160640107  0.059594690286125525  1.0000
  H   H20       1.0  0.9362880783752215  0.4115797933414478  0.17294687419633603  1.0000
  H   H21       1.0  0.031182266436521777  0.2681400703611678  0.05031320427466102  1.0000
  H   H22       1.0  0.9488550911813242  0.44408394811303875  0.637732564084732  1.0000
  H   H23       1.0  0.7191453775933593  0.6679081798926478  0.7134144301778522  1.0000
  Zn  Zn1       1.0  0.8062201668749843  0.5214937165068814  0.4015127136267489  1.0000
  Zn  Zn2       1.0  0.9708843805190945  0.5128027612497683  0.39879848308167976  1.0000
  C   C30       1.0  0.889554995143771  0.5136536831275376  0.6634406747849808  1.0000
  C   C31       1.0  0.8875513418608703  0.5206445206282069  0.13687063973726454  1.0000
  C   C32       1.0  0.8872222372186215  0.7805024480266294  0.39527329726017135  1.0000
  C   C33       1.0  0.8898840524893921  0.25379402662847506  0.4050380893765222  1.0000
  O   O1        1.0  0.9502280879836615  0.5197278091045403  0.18955870827208732  1.0000
  O   O2        1.0  0.9518545809789005  0.5079730691725299  0.6086921495123951  1.0000
  O   O3        1.0  0.9499700126033312  0.7234568788656033  0.39214511362643556  1.0000
  O   O4        1.0  0.9521125997200989  0.3042440117700107  0.40610563702514546  1.0000
  O   O5        1.0  0.8249918914821294  0.7300524689539407  0.39420556060193923  1.0000
  O   O6        1.0  0.8268764509624768  0.5145703913288087  0.6107525252921069  1.0000
  O   O7        1.0  0.8252499518667232  0.5263250661861101  0.1916173506199086  1.0000
  O   O8        1.0  0.8271344640504427  0.31084125946033825  0.40816438742452466  1.0000
