data_image0
_chemical_formula_structural       NC6NC2H4C10H6C6F3H5Zn2C4O8
_chemical_formula_sum              "N2 C28 H15 F3 Zn2 O8"
_cell_length_a       14.927258858638513
_cell_length_b       9.275150299802178
_cell_length_c       9.272721663655245
_cell_angle_alpha    85.5566990303468
_cell_angle_beta     90.51617878085045
_cell_angle_gamma    89.48389287567745

_space_group_name_H-M_alt    "P 1"
_space_group_IT_number       1

loop_
  _space_group_symop_operation_xyz
  'x, y, z'

loop_
  _atom_site_type_symbol
  _atom_site_label
  _atom_site_symmetry_multiplicity
  _atom_site_fract_x
  _atom_site_fract_y
  _atom_site_fract_z
  _atom_site_occupancy
  N   N1        1.0  0.8258290426495759  0.5702267927107114  0.4005438039678644  1.0000
  C   C1        1.0  0.7483025517014037  0.570226764245529  0.4005438147210221  1.0000
  C   C2        1.0  0.6518700432313873  0.5702268791248046  0.4005437641952372  1.0000
  C   C3        1.0  0.6042458525078312  0.5458240982937841  0.27396015084817105  1.0000
  C   C4        1.0  0.5105345402769953  0.5458241232045149  0.2739600172107397  1.0000
  C   C5        1.0  0.46405398034325973  0.5702267015903053  0.4005437838365953  1.0000
  C   C6        1.0  0.3676214048816571  0.5702268164725144  0.40054373330486825  1.0000
  N   N2        1.0  0.2900949139334849  0.570226788007332  0.40054374405802573  1.0000
  C   C7        1.0  0.5116781040752297  0.5946294824242595  0.5271273971777188  1.0000
  C   C8        1.0  0.6053894163060658  0.5946294575135289  0.5271275308151504  1.0000
  H   H1        1.0  0.6394971434304292  0.5268373582486805  0.17547083454537793  1.0000
  H   H2        1.0  0.47439348677943244  0.5268375558562879  0.17547082848813478  1.0000
  H   H3        1.0  0.4764268808002546  0.6136162127442413  0.6256168216515923  1.0000
  H   H4        1.0  0.6415304698658192  0.6136161228467754  0.6256168290423789  1.0000
  C   C9        1.0  0.060343412526268764  0.14653457240415446  0.4029577596062637  1.0000
  C   C10       1.0  0.10684719075253302  0.2279844765947685  0.2938675282420242  1.0000
  C   C11       1.0  0.1456373280785861  0.1612021581512224  0.1792334744950712  1.0000
  C   C12       1.0  0.13831555760138114  0.011995894331731982  0.17221311331594436  1.0000
  C   C13       1.0  0.09376396647699647  0.9290985722518956  0.28065529310693904  1.0000
  C   C14       1.0  0.05558923655295692  0.9939079261420167  0.39814234797204096  1.0000
  C   C15       1.0  0.19213810255277408  0.2463804318284628  0.06764900611216218  1.0000
  C   C16       1.0  0.2310710300726778  0.31771974393522506  0.9742295487558322  1.0000
  C   C17       1.0  0.2766596800738681  0.40126304262391105  0.8648394384151166  1.0000
  C   C18       1.0  0.3155851002398353  0.4725969714293345  0.7714378889121236  1.0000
  H   H5        1.0  0.019138559727916123  0.41012226486782527  0.6319339694536512  1.0000
  H   H6        1.0  0.1111638430488045  0.34444513656550035  0.29609511098114627  1.0000
  H   H7        1.0  0.1678517861132434  0.9593611225832356  0.08351044108621175  1.0000
  H   H8        1.0  0.09098962554593397  0.8130641494635608  0.2744299242215773  1.0000
  H   H9        1.0  0.9992854230789541  0.8653281649901468  0.7407401645856004  1.0000
  H   H10       1.0  0.34976486666757767  0.5352342177612228  0.6894236139721168  1.0000
  C   C19       1.0  0.05560920666724714  0.567881113868838  0.9771201247938158  1.0000
  C   C20       1.0  0.09439844816665309  0.44986744961940334  0.060513102567456116  1.0000
  C   C21       1.0  0.1409913264122411  0.34043593683066087  0.9952299661625236  1.0000
  C   C22       1.0  0.14606110218705948  0.3470799311055124  0.8440423907336263  1.0000
  C   C23       1.0  0.10675779029057342  0.4620896369677587  0.7596981817886519  1.0000
  C   C24       1.0  0.06032349102666215  0.5725614336924101  0.8239799553201967  1.0000
  F   F1        1.0  0.20997994873636544  0.254813786618707  0.21829683507347444  1.0000
  F   F2        1.0  0.2517895873302753  0.15320148564363611  0.01752140413112135  1.0000
  F   F3        1.0  0.11485937488554582  0.10902650605098652  0.10992807419865881  1.0000
  H   H11       1.0  0.9968964123370601  0.9114553004679431  0.05138707357261474  1.0000
  H   H12       1.0  0.0899541025652038  0.44474157830824  0.17738786550745944  1.0000
  H   H13       1.0  0.17964813104819966  0.2623241852397578  0.7906161742109981  1.0000
  H   H14       1.0  0.11059397144463512  0.46255108968900616  0.6430409417116172  1.0000
  H   H15       1.0  0.8981960544632785  0.8159139370643808  0.701306207288872  1.0000
  Zn  Zn1       1.0  0.9598062204585441  0.5702229712841365  0.4005521403924128  1.0000
  Zn  Zn2       1.0  0.15611787915661518  0.5702188567138342  0.4005473030123694  1.0000
  C   C25       1.0  0.05946262158940699  0.5659288952729404  0.6639379952307594  1.0000
  C   C26       1.0  0.05646361231713673  0.5745147539315392  0.13716157930058537  1.0000
  C   C27       1.0  0.056451302213492066  0.833704590840518  0.39330661993064164  1.0000
  C   C28       1.0  0.05947487485904815  0.30673732532936304  0.40779304132811856  1.0000
  O   O1        1.0  0.13124964536249517  0.5767332081671213  0.1908711534394547  1.0000
  O   O2        1.0  0.13367259894936417  0.5637062274301834  0.6102243407404084  1.0000
  O   O3        1.0  0.13123992453075362  0.7799384963941074  0.3916875819230763  1.0000
  O   O4        1.0  0.1336822521334824  0.36050094892831996  0.4094078040857072  1.0000
  O   O5        1.0  0.9822417804900904  0.7799408790725841  0.3916916393131322  1.0000
  O   O6        1.0  0.9846744447511193  0.5637103431461916  0.6102283113971063  1.0000
  O   O7        1.0  0.9822514818553465  0.5767372640237367  0.19087339077498267  1.0000
  O   O8        1.0  0.984684089282371  0.3605049950627459  0.4094101495863729  1.0000
