data_image0
_chemical_formula_structural       NC6NC3H6C6NCH9C6SCH6Zn2C4O8
_chemical_formula_sum              "N3 C27 H21 S1 Zn2 O8"
_cell_length_a       14.934028789175542
_cell_length_b       9.273386996610926
_cell_length_c       10.302812801239593
_cell_angle_alpha    85.46621381537472
_cell_angle_beta     89.97499208564275
_cell_angle_gamma    89.3610420342759

_space_group_name_H-M_alt    "P 1"
_space_group_IT_number       1

loop_
  _space_group_symop_operation_xyz
  'x, y, z'

loop_
  _atom_site_type_symbol
  _atom_site_label
  _atom_site_symmetry_multiplicity
  _atom_site_fract_x
  _atom_site_fract_y
  _atom_site_fract_z
  _atom_site_occupancy
  N   N1        1.0  0.8329033569814454  0.5780360747078555  0.5651374359047256  1.0000
  C   C1        1.0  0.7554244461523308  0.5769374963144325  0.5645276673971515  1.0000
  C   C2        1.0  0.659036808586391  0.5755658137080588  0.5637664853006403  1.0000
  C   C3        1.0  0.6105811454998017  0.6823933717041484  0.6229514814469355  1.0000
  C   C4        1.0  0.5170765660170304  0.6812920064900689  0.6223411821786209  1.0000
  C   C5        1.0  0.4711147468669237  0.5734176003370801  0.5625762711130002  1.0000
  C   C6        1.0  0.3744539625113351  0.5757321546468122  0.56385975355126  1.0000
  N   N2        1.0  0.29696192544667194  0.5775690453011952  0.5648786544071696  1.0000
  C   C7        1.0  0.5195744281187956  0.4651121064442509  0.5025719637102914  1.0000
  C   C8        1.0  0.4720191099735833  0.34783020346383897  0.4375961907921726  1.0000
  C   C9        1.0  0.6137027842297071  0.4673373102193128  0.5038048264685644  1.0000
  H   H1        1.0  0.6450793226575244  0.7665635781071918  0.6695842992624863  1.0000
  H   H2        1.0  0.480499003731859  0.7648139802186389  0.6686147338646262  1.0000
  H   H3        1.0  0.4289495919317088  0.39691948981928027  0.3577198880158168  1.0000
  H   H4        1.0  0.42968410671401835  0.2849599876068125  0.5098435385008155  1.0000
  H   H5        1.0  0.5199708121366116  0.27186502563195325  0.3955038677827436  1.0000
  H   H6        1.0  0.651766197652581  0.3849264277142994  0.458147107927046  1.0000
  C   C10       1.0  0.0676905100181091  0.15414578536509138  0.5656444732859118  1.0000
  C   C11       1.0  0.08341319414201065  0.23760556818996023  0.4482483558694079  1.0000
  C   C12       1.0  0.09070481247907297  0.17309534787035497  0.33084968391089764  1.0000
  C   C13       1.0  0.08238404882195427  0.022803057927821113  0.327845560502958  1.0000
  C   C14       1.0  0.06823936583170842  0.9383787725679239  0.44483302054928614  1.0000
  C   C15       1.0  0.06218342989700629  0.0014481845270286628  0.5643828658470382  1.0000
  N   N3        1.0  0.08891870149876245  0.9532571749566816  0.2080235829376267  1.0000
  C   C16       1.0  0.10383564655948246  0.031138666930881735  0.08132288143160693  1.0000
  H   H7        1.0  0.08598452720587696  0.4162720794190862  0.7787816021745093  1.0000
  H   H8        1.0  0.08798037446205748  0.35424686500516955  0.44665300496171434  1.0000
  H   H9        1.0  0.10199717745936925  0.24168610682818814  0.24265618958798443  1.0000
  H   H10       1.0  0.06401283896234933  0.8219819569151983  0.44278727954744107  1.0000
  H   H11       1.0  0.09515287848778019  0.8700530312477878  0.8805767161540653  1.0000
  H   H12       1.0  0.08258807393163738  0.8408964236544971  0.21071929939394018  1.0000
  H   H13       1.0  0.048324897391064825  0.10976809885937365  0.058796577716736735  1.0000
  H   H14       1.0  0.16864762333565586  0.08862518526896768  0.08149623572500797  1.0000
  H   H15       1.0  0.10609296222070645  0.953699805997135  0.004462219331193617  1.0000
  C   C17       1.0  0.0649370059774288  0.5777970021663483  0.18376519640652522  1.0000
  C   C18       1.0  0.03380376279281427  0.7216984019354262  0.17237053329902086  1.0000
  C   C19       1.0  0.018083376061781564  0.7930866401992867  0.04972576903367165  1.0000
  C   C20       1.0  0.03380368305143854  0.7216982505729095  0.9372193638802941  1.0000
  C   C21       1.0  0.0649369479594992  0.5777969925024167  0.9462621000829317  1.0000
  C   C22       1.0  0.08032392737750049  0.5065369314289896  0.0700740112950573  1.0000
  S   S1        1.0  0.9784892627850458  0.9770485911797226  0.036661994919654495  1.0000
  C   C23       1.0  0.8610327083248909  0.9267616037028816  0.04031487194827821  1.0000
  H   H16       1.0  0.021436413219674034  0.778856449662795  0.2584111839032217  1.0000
  H   H17       1.0  0.02143623529573445  0.7788562420225419  0.8430608713305502  1.0000
  H   H18       1.0  0.10432220241752006  0.39552985570957144  0.07795682440265073  1.0000
  H   H19       1.0  0.8455715931505209  0.8625975142552569  0.9567729691315306  1.0000
  H   H20       1.0  0.8455719671837314  0.8625989718815964  0.13300765878016052  1.0000
  H   H21       1.0  0.8189427555012676  0.026381985770314028  0.033253206568211846  1.0000
  Zn  Zn1       1.0  0.9668206742635749  0.5778974341298746  0.5650702543967516  1.0000
  Zn  Zn2       1.0  0.1630447150388432  0.5776958681459563  0.564956467872862  1.0000
  C   C24       1.0  0.06497231870259565  0.5720496319638209  0.8021424305850764  1.0000
  C   C25       1.0  0.064895201529046  0.5835454884277387  0.32788441515773137  1.0000
  C   C26       1.0  0.06321979161042465  0.8412900140586732  0.5594477810292464  1.0000
  C   C27       1.0  0.06664767292938721  0.3143033730859723  0.570579136550057  1.0000
  O   O1        1.0  0.13934721332620126  0.585391945706319  0.37620896949488647  1.0000
  O   O2        1.0  0.13944982061246547  0.570049102408994  0.7537311428017397  1.0000
  O   O3        1.0  0.13803362898440286  0.7874641169910859  0.5577534945289784  1.0000
  O   O4        1.0  0.14076333792922055  0.3679769415133726  0.5721865204471959  1.0000
  O   O5        1.0  0.9891019844115521  0.7876163608328139  0.5578402018544162  1.0000
  O   O6        1.0  0.9905181647697995  0.5702030795679907  0.7538177783226807  1.0000
  O   O7        1.0  0.9904155578699573  0.5855458725911464  0.37629404418312995  1.0000
  O   O8        1.0  0.9918316825363749  0.3681308580794096  0.5722716924878899  1.0000
