data_image0
_chemical_formula_structural       NC8NH4C9H10C7NH4Zn2C4O8
_chemical_formula_sum              "N3 C28 H18 Zn2 O8"
_cell_length_a       13.859017124695912
_cell_length_b       10.297183801781406
_cell_length_c       9.275157849593903
_cell_angle_alpha    86.08426286032497
_cell_angle_beta     89.74086887057864
_cell_angle_gamma    89.9976557662862

_space_group_name_H-M_alt    "P 1"
_space_group_IT_number       1

loop_
  _space_group_symop_operation_xyz
  'x, y, z'

loop_
  _atom_site_type_symbol
  _atom_site_label
  _atom_site_symmetry_multiplicity
  _atom_site_fract_x
  _atom_site_fract_y
  _atom_site_fract_z
  _atom_site_occupancy
  N   N1        1.0  0.9133602637835649  0.4078854335191089  0.4096580855664542  1.0000
  C   C1        1.0  0.8411763302408272  0.3868073190583241  0.35351490787504924  1.0000
  C   C2        1.0  0.7513837908969694  0.3605892204830303  0.2836800102015329  1.0000
  C   C3        1.0  0.663561756839528  0.38614919954956406  0.35176024882868573  1.0000
  C   C4        1.0  0.5761534727583657  0.3605903196476615  0.283679430441639  1.0000
  C   C5        1.0  0.5767496951414269  0.30946452370731414  0.14749747523737677  1.0000
  C   C6        1.0  0.6643883727591967  0.2840027865043342  0.07967929574462441  1.0000
  C   C7        1.0  0.7516150505113469  0.3094624175988956  0.14749865445864496  1.0000
  C   C8        1.0  0.48593649300563196  0.3868081493533033  0.35351440952045343  1.0000
  N   N2        1.0  0.4134113900171614  0.40788572224394826  0.4096578694467492  1.0000
  H   H1        1.0  0.6632414694564047  0.4257225451613038  0.4571683444146953  1.0000
  H   H2        1.0  0.5096170808846279  0.2893478362597437  0.09391087382883256  1.0000
  H   H3        1.0  0.6647080775160624  0.24451025999687181  0.9744846690123073  1.0000
  H   H4        1.0  0.8190732910310627  0.289343846538396  0.09391305306638698  1.0000
  C   C9        1.0  0.16339320279502245  0.02641180234373075  0.4098621843679915  1.0000
  C   C10       1.0  0.1610391614690423  0.03495597729406974  0.2582130179867046  1.0000
  C   C11       1.0  0.1598328940743834  0.9227169205867637  0.18051871535877528  1.0000
  C   C12       1.0  0.16102963600842665  0.7997797845843991  0.25762524827328237  1.0000
  C   C13       1.0  0.163387661220254  0.7893494933519538  0.4094662286891193  1.0000
  C   C14       1.0  0.16455313592999388  0.9031330304231016  0.4845935135197859  1.0000
  C   C15       1.0  0.15728656519313833  0.9413902439213221  0.01649943374077178  1.0000
  C   C16       1.0  0.10103050109066603  0.8419772244341984  0.936276160837943  1.0000
  C   C17       1.0  0.2109706383261134  0.8422457840574609  0.9316980512962276  1.0000
  H   H5        1.0  0.16430945238320027  0.35065791167392835  0.4682974723436039  1.0000
  H   H6        1.0  0.1601305742608834  0.1296768655626932  0.1996680730402065  1.0000
  H   H7        1.0  0.16014393922454406  0.7116862110173706  0.20070608512129054  1.0000
  H   H8        1.0  0.1663688446273519  0.8958135771615634  0.6015940299069535  1.0000
  H   H9        1.0  0.1678284894962221  0.5624331602039242  0.6962510857410735  1.0000
  H   H10       1.0  0.15646901617295475  0.04164838622566956  0.963780753260965  1.0000
  H   H11       1.0  0.06863442524620522  0.7589087402067647  0.0018596722167150157  1.0000
  H   H12       1.0  0.06729821721844975  0.8819654887438001  0.8343145715599376  1.0000
  H   H13       1.0  0.2453572897688696  0.7593412416207788  0.9945013592904376  1.0000
  H   H14       1.0  0.24149353043831123  0.8823886307832655  0.8270594287912051  1.0000
  C   C18       1.0  0.16467077055109544  0.4042087272578468  0.9864683562506551  1.0000
  C   C19       1.0  0.24783605828603084  0.4465574236211567  0.056142379167905876  1.0000
  C   C20       1.0  0.32605165536594405  0.4991209458962092  0.9762369056845125  1.0000
  C   C21       1.0  0.3220137824807585  0.5101714229582386  0.825572225512281  1.0000
  C   C22       1.0  0.2408322651608625  0.46677080313900127  0.754557205859534  1.0000
  C   C23       1.0  0.16211010322293393  0.41155253124099384  0.8328601167480163  1.0000
  C   C24       1.0  0.4101626327349073  0.5432787313411569  0.049217581546969535  1.0000
  N   N3        1.0  0.47776632170405287  0.5787696840535427  0.10788173565747039  1.0000
  H   H15       1.0  0.9299027991351916  0.36040878839217916  0.0943287866355822  1.0000
  H   H16       1.0  0.38209714677667694  0.5512621494844351  0.7627280815997036  1.0000
  H   H17       1.0  0.24061875919166245  0.4736004565332393  0.6374892219409594  1.0000
  H   H18       1.0  0.00505334774006161  0.376608396111701  0.5554718101695255  1.0000
  Zn  Zn1       1.0  0.05766419495830876  0.407882120800323  0.4096663516248922  1.0000
  Zn  Zn2       1.0  0.2691074155237889  0.40787854067598084  0.40966142879659295  1.0000
  C   C25       1.0  0.16259198624192717  0.4049893201792012  0.6728766112852389  1.0000
  C   C26       1.0  0.1641819327536873  0.4107729815556853  0.14645130967833397  1.0000
  C   C27       1.0  0.16340110274695618  0.6450881986210348  0.40379833382065083  1.0000
  C   C28       1.0  0.16337274387678624  0.17067254304987306  0.4155296647869766  1.0000
  O   O1        1.0  0.2442594746235729  0.41296897932454657  0.20014118506434841  1.0000
  O   O2        1.0  0.24299495758038248  0.4027896215872744  0.6191825852471107  1.0000
  O   O3        1.0  0.24364724316216346  0.5966725154139345  0.40189997174522585  1.0000
  O   O4        1.0  0.2436071172173864  0.21908609385433725  0.41742369050877565  1.0000
  O   O5        1.0  0.08316442110953992  0.5966745676245366  0.40190408990680826  1.0000
  O   O6        1.0  0.08251213574446048  0.4027932338644244  0.6191866257587373  1.0000
  O   O7        1.0  0.08377665809415147  0.4129725312997093  0.20014349295087208  1.0000
  O   O8        1.0  0.0831243003571995  0.21908963747561894  0.41742610644685585  1.0000
