data_image0
_chemical_formula_structural       NC6NC2H4C9H8C6NCH7Zn2C4O8
_chemical_formula_sum              "N3 C28 H19 Zn2 O8"
_cell_length_a       14.927258858638513
_cell_length_b       9.275152443626249
_cell_length_c       9.273390368590327
_cell_angle_alpha    85.97038560770253
_cell_angle_beta     89.9908392513429
_cell_angle_gamma    90.5735452640029

_space_group_name_H-M_alt    "P 1"
_space_group_IT_number       1

loop_
  _space_group_symop_operation_xyz
  'x, y, z'

loop_
  _atom_site_type_symbol
  _atom_site_label
  _atom_site_symmetry_multiplicity
  _atom_site_fract_x
  _atom_site_fract_y
  _atom_site_fract_z
  _atom_site_occupancy
  N   N1        1.0  0.8534413525268211  0.5618383271873373  0.40480666539385735  1.0000
  C   C1        1.0  0.7759148611814095  0.5618382987812236  0.4048066760785656  1.0000
  C   C2        1.0  0.6794823543549362  0.5618384133857692  0.4048066258324781  1.0000
  C   C3        1.0  0.6322867785813832  0.5367939491184341  0.27823005126682365  1.0000
  C   C4        1.0  0.5385754674017844  0.5367939733441592  0.27822991774941186  1.0000
  C   C5        1.0  0.49166628925787803  0.561838235977904  0.40480664506987374  1.0000
  C   C6        1.0  0.3952337154398868  0.5618383505853517  0.40480659481785325  1.0000
  N   N2        1.0  0.31770722409447605  0.561838322179238  0.4048066055025612  1.0000
  C   C7        1.0  0.538861798039914  0.5868827002481418  0.5313832196295951  1.0000
  C   C8        1.0  0.6325731092195118  0.5868826760224163  0.5313833531470069  1.0000
  H   H1        1.0  0.6678715568186384  0.5173079425276212  0.17974621159329884  1.0000
  H   H2        1.0  0.5027679025368103  0.51730814007485  0.17974620597804392  1.0000
  H   H3        1.0  0.5032770867227088  0.6063686976667431  0.6298671674002442  1.0000
  H   H4        1.0  0.668380674684217  0.6063686078203754  0.629867174587714  1.0000
  C   C9        1.0  0.0829358530832254  0.13822166119825474  0.4062780673163968  1.0000
  C   C10       1.0  0.0506230478430878  0.21965963490902005  0.28383551119090394  1.0000
  C   C11       1.0  0.026637540421155178  0.1528924964028819  0.1591005242222665  1.0000
  C   C12       1.0  0.0345882370398769  0.0034999405114319797  0.15433837744266632  1.0000
  C   C13       1.0  0.06514927547964722  0.9203628213113897  0.2757461354608155  1.0000
  C   C14       1.0  0.0882212492730719  0.985444032958152  0.40334769111749424  1.0000
  C   C15       1.0  0.010321459973370313  0.9349774898368547  0.025167453609900248  1.0000
  C   C16       1.0  0.9900037050751974  0.8775725121229033  0.9170070574645481  1.0000
  C   C17       1.0  0.9653521256876236  0.8079097239074646  0.7857733859369951  1.0000
  H   H5        1.0  0.21165108024857898  0.22293249386727365  0.6941155402373875  1.0000
  H   H6        1.0  0.045904058945524656  0.3361723024889189  0.28338215795589994  1.0000
  H   H7        1.0  0.002688954323594836  0.21814012325396168  0.06575688079286834  1.0000
  H   H8        1.0  0.0689211861413504  0.8040100567197138  0.27172553833109947  1.0000
  H   H9        1.0  0.172009480293138  0.6922371501484567  0.6002188590456008  1.0000
  H   H10       1.0  0.9817285899303257  0.6913310067630543  0.7992379037971374  1.0000
  H   H11       1.0  0.8924393670005798  0.8202825763916225  0.7660425789094738  1.0000
  H   H12       1.0  0.003187036217295654  0.8592666758731853  0.6924823651322338  1.0000
  C   C18       1.0  0.08559200555466862  0.5573343746422317  0.9815826844673965  1.0000
  C   C19       1.0  0.1678525110902822  0.5544681086808332  0.05519507980053007  1.0000
  C   C20       1.0  0.24876155431298697  0.565011832201428  0.9797438190387973  1.0000
  C   C21       1.0  0.2494665665166385  0.5788126241026312  0.8280680966128952  1.0000
  C   C22       1.0  0.1677369146818037  0.5792461067338399  0.753654513701973  1.0000
  C   C23       1.0  0.08556511114903412  0.5663313122931588  0.828043100644356  1.0000
  N   N3        1.0  0.3319000820594258  0.5910173072757907  0.7472376077965337  1.0000
  C   C24       1.0  0.42035098331266635  0.5911873221285773  0.8142252129715213  1.0000
  H   H13       1.0  0.9437623156619062  0.4880407924773757  0.26766235775676694  1.0000
  H   H14       1.0  0.31047614900702314  0.5636844313564637  0.04086941144161771  1.0000
  H   H15       1.0  0.8760931392150212  0.4542602353604734  0.7329396552696745  1.0000
  H   H16       1.0  0.3290530567629322  0.6005777201375136  0.634328707266008  1.0000
  H   H17       1.0  0.42674223603786143  0.6837252793646096  0.8833736796799938  1.0000
  H   H18       1.0  0.43063505168902716  0.4880713719893034  0.8801358057247106  1.0000
  H   H19       1.0  0.4729180771139492  0.6020928023201739  0.7292969239201451  1.0000
  Zn  Zn1       1.0  0.9874184379669775  0.5618345488305054  0.40481498929342763  1.0000
  Zn  Zn2       1.0  0.1837300754468992  0.5618304102133411  0.4048101451123609  1.0000
  C   C25       1.0  0.08553232601236066  0.5588838611043903  0.6680638413544202  1.0000
  C   C26       1.0  0.08561834246895139  0.5647829195425849  0.1415614281609423  1.0000
  C   C27       1.0  0.08721776260414305  0.8252398985518601  0.3981583949191452  1.0000
  C   C28       1.0  0.08393282807503266  0.2984251497613586  0.411466957431099  1.0000
  O   O1        1.0  0.1601263854536604  0.5672748552822608  0.1952499393942284  1.0000
  O   O2        1.0  0.16002026675694359  0.5563876915848108  0.6143712423822306  1.0000
  O   O3        1.0  0.1613802737869754  0.7714735763051422  0.39642067959675575  1.0000
  O   O4        1.0  0.15876631150357845  0.3521889797341402  0.4132003940825793  1.0000
  O   O5        1.0  0.012382134918780707  0.7714759793126073  0.39642474031727604  1.0000
  O   O6        1.0  0.011022138699368527  0.5563918269289345  0.6143752202619359  1.0000
  O   O7        1.0  0.011128257197160488  0.567278921939415  0.19525218465858152  1.0000
  O   O8        1.0  0.009768183175611785  0.35219303722198547  0.4132027474381233  1.0000
