data_image0
_chemical_formula_structural       NC5N2C2NH4C6NH7C10H6Zn2C4O8
_chemical_formula_sum              "N5 C27 H17 Zn2 O8"
_cell_length_a       13.87973921873968
_cell_length_b       9.274771166103582
_cell_length_c       9.275153671780863
_cell_angle_alpha    85.60840141486051
_cell_angle_beta     89.40940373860386
_cell_angle_gamma    90.59705032410349

_space_group_name_H-M_alt    "P 1"
_space_group_IT_number       1

loop_
  _space_group_symop_operation_xyz
  'x, y, z'

loop_
  _atom_site_type_symbol
  _atom_site_label
  _atom_site_symmetry_multiplicity
  _atom_site_fract_x
  _atom_site_fract_y
  _atom_site_fract_z
  _atom_site_occupancy
  N   N1        1.0  0.9291730208381125  0.5745806670348541  0.4066198785466819  1.0000
  C   C1        1.0  0.8566243026540445  0.5989773344053815  0.34992022755187757  1.0000
  C   C2        1.0  0.7665215265396927  0.6292803790527042  0.279493134329196  1.0000
  C   C3        1.0  0.6793646050173643  0.5987641383138813  0.3527686428672306  1.0000
  C   C4        1.0  0.5936421246616818  0.6292803145111188  0.27949317436194754  1.0000
  C   C5        1.0  0.502147180617088  0.5989771894061436  0.34992012456028543  1.0000
  N   N2        1.0  0.428477589594654  0.5745806423776532  0.40661986759520286  1.0000
  N   N3        1.0  0.5966431234577235  0.6875800034946464  0.1405896688060302  1.0000
  C   C6        1.0  0.6821334533790441  0.7180323737993888  0.07135874660135033  1.0000
  C   C7        1.0  0.6836124145959005  0.7781696135649058  0.9174543811083868  1.0000
  N   N4        1.0  0.7662460217197443  0.6875799568474654  0.14058967964547953  1.0000
  H   H1        1.0  0.678276295170917  0.5521158730626505  0.4636163867092229  1.0000
  H   H2        1.0  0.7492418073696114  0.8460002231063035  0.8949277277763019  1.0000
  H   H3        1.0  0.6834820390948018  0.6880206294985489  0.8453775832690771  1.0000
  H   H4        1.0  0.6192369779107868  0.8459981569306672  0.8949269653170053  1.0000
  C   C8        1.0  0.17586661740460285  0.15098610553055725  0.40740581842072277  1.0000
  C   C9        1.0  0.15458217411981656  0.233964722202163  0.27846129139687337  1.0000
  C   C10       1.0  0.1422987163001339  0.1685831063878213  0.1486986672806885  1.0000
  C   C11       1.0  0.15135666704252748  0.018842994512468177  0.14694068737951316  1.0000
  C   C12       1.0  0.17087169505526068  0.934540414792366  0.2741138935984322  1.0000
  C   C13       1.0  0.18179305421982783  0.998164151377267  0.40584646190836615  1.0000
  N   N5        1.0  0.1216159452519161  0.2546575925941619  0.01833696519198936  1.0000
  H   H5        1.0  0.2821271419667617  0.2314543578563044  0.722972746251163  1.0000
  H   H6        1.0  0.14972814539894697  0.35055601260022917  0.27790741155847765  1.0000
  H   H7        1.0  0.14236178204915584  0.9671001542328331  0.04710143990810223  1.0000
  H   H8        1.0  0.1751459884611426  0.8183658261573007  0.2699843208925272  1.0000
  H   H9        1.0  0.24944407600230423  0.7016475223627395  0.6205437048534006  1.0000
  H   H10       1.0  0.11497821625045022  0.36673137448250515  0.018290132079852528  1.0000
  H   H11       1.0  0.11269547263434032  0.20693803127851762  0.9208690186381197  1.0000
  C   C14       1.0  0.18173826583445796  0.5734910140967362  0.9831984966775558  1.0000
  C   C15       1.0  0.20796166394215665  0.7009721321139104  0.04670754932514032  1.0000
  C   C16       1.0  0.22519280066498593  0.8298109931522427  0.9614780049081135  1.0000
  C   C17       1.0  0.21631202976100813  0.8327734553498591  0.811532032122364  1.0000
  C   C18       1.0  0.19196162422213447  0.706901255846216  0.7464016151413277  1.0000
  C   C19       1.0  0.17592141790059831  0.5756591834246695  0.8300537826426032  1.0000
  C   C20       1.0  0.25092324004452937  0.9596650104042053  0.028348051095295597  1.0000
  C   C21       1.0  0.27246714603140254  0.06838093754738717  0.08435962776533401  1.0000
  C   C22       1.0  0.2976939938539245  0.19568250017748356  0.14995477478820574  1.0000
  C   C23       1.0  0.31923373821687795  0.3043776414015129  0.20596373860966288  1.0000
  H   H12       1.0  0.18448932313854913  0.3345759007016641  0.28217472029353674  1.0000
  H   H13       1.0  0.21282204102953228  0.70104516457831  0.16332280725180204  1.0000
  H   H14       1.0  0.22915432586850293  0.9322240200001898  0.7446423015492791  1.0000
  H   H15       1.0  0.1878963726307714  0.711417682880215  0.6295616250061418  1.0000
  H   H16       1.0  0.18551663153147532  0.2209082136436873  0.7542079457545358  1.0000
  H   H17       1.0  0.3381473940472388  0.39982088735059745  0.25514451012815886  1.0000
  Zn  Zn1       1.0  0.07326145061285194  0.5745768157973961  0.4066282119030176  1.0000
  Zn  Zn2       1.0  0.28438898159926107  0.5745727077396094  0.4066233761871083  1.0000
  C   C24       1.0  0.17697855485390665  0.5695028557186284  0.6699905534592707  1.0000
  C   C25       1.0  0.18067419462431378  0.5796484881854087  0.14326117275181516  1.0000
  C   C26       1.0  0.1807073282775209  0.8380147253837215  0.4003952807249247  1.0000
  C   C27       1.0  0.1769453365059883  0.3111348856573468  0.41285652555234065  1.0000
  O   O1        1.0  0.26043883629173337  0.5817071406930232  0.19697784548748798  1.0000
  O   O2        1.0  0.25745481928522884  0.5674399960289205  0.6162697974550457  1.0000
  O   O3        1.0  0.26046476060299595  0.7842667304392144  0.39856970455473273  1.0000
  O   O4        1.0  0.25742882374523646  0.3648804163261765  0.41467783025696653  1.0000
  O   O5        1.0  0.10022153641947493  0.7842691072137822  0.3985737578272226  1.0000
  O   O6        1.0  0.09721160774901771  0.56744410566941  0.6162737706554187  1.0000
  O   O7        1.0  0.10019563637568396  0.5817111956282464  0.19698008518290624  1.0000
  O   O8        1.0  0.0971856230105157  0.3648844612209053  0.4146801780772822  1.0000
