data_image0
_chemical_formula_structural       NC8NH4C7NH5C6ClH4Zn2C4O8
_chemical_formula_sum              "N3 C25 H13 Cl1 Zn2 O8"
_cell_length_a       13.859017981522156
_cell_length_b       9.275154477615127
_cell_length_c       9.276548810779733
_cell_angle_alpha    86.30571482512589
_cell_angle_beta     89.72476127004172
_cell_angle_gamma    89.43373755438122

_space_group_name_H-M_alt    "P 1"
_space_group_IT_number       1

loop_
  _space_group_symop_operation_xyz
  'x, y, z'

loop_
  _atom_site_type_symbol
  _atom_site_label
  _atom_site_symmetry_multiplicity
  _atom_site_fract_x
  _atom_site_fract_y
  _atom_site_fract_z
  _atom_site_occupancy
  N   N1        1.0  0.903339453414777  0.5634360964806593  0.41675108765688895  1.0000
  C   C1        1.0  0.8312322436709844  0.5558473519407645  0.3554284936946346  1.0000
  C   C2        1.0  0.7415351148480767  0.5464083186421775  0.2791511676683296  1.0000
  C   C3        1.0  0.7419526782583614  0.5280013037590312  0.13040663815383846  1.0000
  C   C4        1.0  0.6548188463763731  0.5188356376329966  0.056331554950475926  1.0000
  C   C5        1.0  0.5670873917070328  0.5280030235383655  0.1304063967589375  1.0000
  C   C6        1.0  0.566304872111014  0.5464092900589557  0.27915098779333736  1.0000
  C   C7        1.0  0.6536200905411056  0.5556107511226702  0.35351210141045497  1.0000
  C   C8        1.0  0.4759924217025113  0.5558482533409896  0.3554282569266116  1.0000
  N   N2        1.0  0.4033905359784188  0.5634364090538819  0.4167509953246846  1.0000
  H   H1        1.0  0.8094842630217179  0.5207580160109162  0.07187723357693176  1.0000
  H   H2        1.0  0.6552823021948385  0.5046172695094373  0.9414328071849574  1.0000
  H   H3        1.0  0.500027974142938  0.520761109363528  0.0718768260319087  1.0000
  H   H4        1.0  0.6531556860541812  0.5698578008433386  0.46864444505228353  1.0000
  C   C9        1.0  0.15616723583333902  0.1400317507885143  0.4150835267788644  1.0000
  C   C10       1.0  0.13009824825915972  0.22205103354344669  0.2880301475151672  1.0000
  C   C11       1.0  0.09615890218099989  0.15491423670228155  0.16770697698765002  1.0000
  C   C12       1.0  0.08772786989988379  0.004842206175632576  0.17302011951944074  1.0000
  C   C13       1.0  0.1147006260789023  0.9215888126519209  0.29717741788888086  1.0000
  C   C14       1.0  0.15057203227339877  0.9868298219205296  0.4184310091713359  1.0000
  C   C15       1.0  0.06881123121594057  0.2405013524713415  0.03912227337865604  1.0000
  N   N3        1.0  0.046831298469034006  0.30929778817119  0.935773108352544  1.0000
  H   H5        1.0  0.1737179309219643  0.21993164177500016  0.7687981950496641  1.0000
  H   H6        1.0  0.13405277851924802  0.33897140710501295  0.28375450167302096  1.0000
  H   H7        1.0  0.061129218587431484  0.9518714623188328  0.08054420617449476  1.0000
  H   H8        1.0  0.10963433232963293  0.8051200555056071  0.29705060248954274  1.0000
  H   H9        1.0  0.16648778510985807  0.6902229896457014  0.6554298973949142  1.0000
  C   C16       1.0  0.15475517690864424  0.5595680012021975  0.9935926225383973  1.0000
  C   C17       1.0  0.23533204291421167  0.6143767965808307  0.06291573974058484  1.0000
  C   C18       1.0  0.3104261774936317  0.6799318687148388  0.9829423947125453  1.0000
  C   C19       1.0  0.3060689571505429  0.6917815695775411  0.8325497120880958  1.0000
  C   C20       1.0  0.2276011852701377  0.6359614011158321  0.761573490113669  1.0000
  C   C21       1.0  0.15198406196261424  0.5672934896384718  0.8399218996405073  1.0000
  Cl  Cl1       1.0  0.40958081856993145  0.7493569830032127  0.07172128136288136  1.0000
  H   H10       1.0  0.03875024610928457  0.39818516730706754  0.285956833009279  1.0000
  H   H11       1.0  0.3639868786334573  0.7430732742256974  0.7702632034360032  1.0000
  H   H12       1.0  0.22719770841646647  0.6434846940706986  0.6445549390243763  1.0000
  H   H13       1.0  0.997338738053523  0.5144323940302231  0.5631168711039685  1.0000
  Zn  Zn1       1.0  0.047643398343021996  0.5634324124055874  0.4167593635287663  1.0000
  Zn  Zn2       1.0  0.2590866328794348  0.5634284367321525  0.4167544633127156  1.0000
  C   C22       1.0  0.1525436806645715  0.5600893164040062  0.679924813374545  1.0000
  C   C23       1.0  0.15418864702777232  0.566773353214644  0.15358916204095086  1.0000
  C   C24       1.0  0.15164347609588205  0.8267145238371632  0.4120558891993602  1.0000
  C   C25       1.0  0.15508879064016123  0.3001464142002306  0.42145815619675786  1.0000
  O   O1        1.0  0.23424016154799682  0.5691837361875798  0.2072835778123454  1.0000
  O   O2        1.0  0.23297269723932112  0.5576748244898296  0.6262262593354906  1.0000
  O   O3        1.0  0.23224468406419282  0.7729780651260159  0.40992021379842014  1.0000
  O   O4        1.0  0.2349681028574916  0.3538805048806897  0.4235895153455227  1.0000
  O   O5        1.0  0.07176185620978104  0.7729803442599075  0.40992431149005726  1.0000
  O   O6        1.0  0.0724898581860254  0.5576788352078348  0.6262302870406042  1.0000
  O   O7        1.0  0.0737573285635631  0.5691876808464005  0.20728587279815502  1.0000
  O   O8        1.0  0.07448526958350721  0.3538844402130714  0.4235919183293242  1.0000
