data_image0
_chemical_formula_structural       NC12NC2H8C7OC4NC3H8C6SCOC6H10Zn2C4O8
_chemical_formula_sum              "N3 C45 H26 O10 S1 Zn2"
_cell_length_a       17.80743265337812
_cell_length_b       10.299371701877257
_cell_length_c       10.302041481415108
_cell_angle_alpha    85.56120269447774
_cell_angle_beta     91.53022125456708
_cell_angle_gamma    89.44495547056906

_space_group_name_H-M_alt    "P 1"
_space_group_IT_number       1

loop_
  _space_group_symop_operation_xyz
  'x, y, z'

loop_
  _atom_site_type_symbol
  _atom_site_label
  _atom_site_symmetry_multiplicity
  _atom_site_fract_x
  _atom_site_fract_y
  _atom_site_fract_z
  _atom_site_occupancy
  N   N1        1.0  0.7076082594451726  0.4071212182069923  0.6021853850084575  1.0000
  C   C1        1.0  0.6567935266005805  0.4367014146415509  0.5335137159126258  1.0000
  C   C2        1.0  0.5935749836803839  0.47349703071204874  0.44809480474348506  1.0000
  C   C3        1.0  0.6053109798532077  0.5275571499453906  0.32152477056993334  1.0000
  C   C4        1.0  0.5439995650953674  0.5628484286357827  0.23850071977542453  1.0000
  C   C5        1.0  0.4707978977785492  0.5443432580587417  0.28138705332667535  1.0000
  C   C6        1.0  0.4580851022145745  0.49016419029503044  0.4084250766902524  1.0000
  C   C7        1.0  0.5202538338909116  0.4548761706371214  0.49143262085192596  1.0000
  C   C8        1.0  0.38031502906711423  0.47054400241163963  0.4541706205008038  1.0000
  C   C9        1.0  0.3615283813851278  0.4976911113134145  0.5811957976089639  1.0000
  C   C10       1.0  0.2882967711654791  0.47922750159734334  0.6241227003708425  1.0000
  C   C11       1.0  0.2329087910048502  0.43336225150685004  0.5408621042487152  1.0000
  C   C12       1.0  0.1575404823830432  0.41434538176856606  0.5851894009468082  1.0000
  N   N2        1.0  0.0969496995174066  0.3990570974949319  0.6208254980591312  1.0000
  C   C13       1.0  0.2510039140828231  0.40604606190160175  0.4143797070442165  1.0000
  C   C14       1.0  0.32418267747900553  0.4245245361756629  0.3711969821489296  1.0000
  H   H1        1.0  0.6617790478882489  0.5423915874390077  0.2871013535095295  1.0000
  H   H2        1.0  0.5532044329417442  0.6049757890361804  0.14076020574000148  1.0000
  H   H3        1.0  0.4241632421902699  0.5739991035605903  0.215822638807553  1.0000
  H   H4        1.0  0.5117472175341922  0.41136353673661996  0.5890481958196285  1.0000
  H   H5        1.0  0.403206688888996  0.5348502268199249  0.6467677304016  1.0000
  H   H6        1.0  0.27485295941775334  0.5010428500309629  0.7221171121853664  1.0000
  H   H7        1.0  0.20860884008270691  0.3701541040124724  0.34922111087231955  1.0000
  H   H8        1.0  0.3370979374548437  0.40117354312282627  0.2735052565823397  1.0000
  C   C15       1.0  0.9022432848366793  0.02171951799491612  0.6113767478356271  1.0000
  C   C16       1.0  0.9058986006282383  0.031032111605425513  0.4749191093369751  1.0000
  C   C17       1.0  0.9068892007316416  0.9185779033281032  0.40599043522599176  1.0000
  C   C18       1.0  0.905907881875772  0.7957634935076299  0.47523687465163617  1.0000
  C   C19       1.0  0.9023218657160907  0.7844486563868214  0.6116456594271111  1.0000
  C   C20       1.0  0.9003126585200302  0.8980322155211726  0.6789010460206308  1.0000
  C   C21       1.0  0.9115379503675639  0.9282512400110648  0.2619970547497912  1.0000
  O   O1        1.0  0.9476979061858068  0.8417745299829756  0.20879534428917787  1.0000
  C   C22       1.0  0.8751528363604255  0.03594654851783674  0.17836223158446285  1.0000
  C   C23       1.0  0.9073325600053564  0.07996594651689137  0.059960907098356435  1.0000
  C   C24       1.0  0.8729286861655555  0.18060907637501367  0.9795416046210068  1.0000
  C   C25       1.0  0.9065659380255985  0.22578309538238517  0.8590244274123137  1.0000
  N   N3        1.0  0.9336087903755559  0.2620934020959249  0.7621462553660415  1.0000
  C   C26       1.0  0.8057842462866115  0.2371642753469989  0.016489364541465656  1.0000
  C   C27       1.0  0.7729704024620914  0.1929479879752498  0.13312119066371197  1.0000
  C   C28       1.0  0.8071585744427128  0.09260680415767487  0.2135187712983224  1.0000
  H   H9        1.0  0.9088209764171202  0.1259136628827342  0.4221848776996209  1.0000
  H   H10       1.0  0.9072283588861576  0.7089170106763333  0.42230034400726013  1.0000
  H   H11       1.0  0.8974950881587647  0.8900489860582096  0.7841001789779286  1.0000
  H   H12       1.0  0.9015765966050736  0.4526284860424827  0.6641228532081294  1.0000
  H   H13       1.0  0.9594330272262397  0.036806640107663886  0.0308858257964868  1.0000
  H   H14       1.0  0.7787040941353078  0.3149622920275952  0.9549676053421651  1.0000
  H   H15       1.0  0.7207417005225679  0.23612653569839945  0.16103739854650834  1.0000
  H   H16       1.0  0.7800137896573661  0.05842786808936706  0.30235424655051313  1.0000
  C   C29       1.0  0.9022966728635978  0.4032130748347714  0.2302248956693318  1.0000
  C   C30       1.0  0.9367504682476602  0.5255981632360387  0.22100422289008725  1.0000
  C   C31       1.0  0.9542277239294454  0.5859624184896357  0.09947676182819976  1.0000
  C   C32       1.0  0.9368217269544417  0.5251928238362502  0.9859020821354395  1.0000
  C   C33       1.0  0.9022684981590859  0.4029550989552626  0.9927975478035003  1.0000
  C   C34       1.0  0.8852402615324066  0.34254298801452365  0.11553991918775064  1.0000
  S   S1        1.0  0.998912234309682  0.7415701698832085  0.0891479567909379  1.0000
  C   C35       1.0  0.0914491861132829  0.6698526639531424  0.09612239351328132  1.0000
  O   O2        1.0  0.12084760002150706  0.6460709497944166  0.9904615478516021  1.0000
  C   C36       1.0  0.13285461368853824  0.63765231096625  0.2216183284538817  1.0000
  C   C37       1.0  0.19949189919077903  0.5625485677848998  0.2249752921588119  1.0000
  C   C38       1.0  0.23864467047899107  0.5308408093380281  0.3427910997387147  1.0000
  C   C39       1.0  0.21195756261604015  0.5737411796089171  0.45846572376093886  1.0000
  C   C40       1.0  0.14612770145124498  0.64866938810759  0.45652762781169876  1.0000
  C   C41       1.0  0.10675073129970425  0.6807559257398226  0.3390006225572122  1.0000
  H   H17       1.0  0.837244721609819  0.17265402996069884  0.4549072642598502  1.0000
  H   H18       1.0  0.9502512494503338  0.5742464247629417  0.30798192824628745  1.0000
  H   H19       1.0  0.9506409010192437  0.5735029597019989  0.8926092154378907  1.0000
  H   H20       1.0  0.8586805850571656  0.24819255250350025  0.12172792936830044  1.0000
  H   H21       1.0  0.8893364804584825  0.3563062028216038  0.6681028406484811  1.0000
  H   H22       1.0  0.2211891384384046  0.5276411891997788  0.13668343593820298  1.0000
  H   H23       1.0  0.2897061396286418  0.47279860456087386  0.34436888706573776  1.0000
  H   H24       1.0  0.24233415212319054  0.5490607826281393  0.5495737382368839  1.0000
  H   H25       1.0  0.1255968705110424  0.6821655667385885  0.5462288827507477  1.0000
  H   H26       1.0  0.05625947568306189  0.7397283792851665  0.3406777207280862  1.0000
  Zn  Zn1       1.0  0.8199637915167027  0.4047906173459763  0.6075720030745255  1.0000
  Zn  Zn2       1.0  0.9845941634689737  0.40137710129602194  0.6154494670146962  1.0000
  C   C42       1.0  0.9022715951888763  0.39783022554484465  0.8486530574249838  1.0000
  C   C43       1.0  0.902288157719446  0.40833909440095595  0.3743686267024706  1.0000
  C   C44       1.0  0.9023033347595097  0.6402784597060491  0.6064205970705021  1.0000
  C   C45       1.0  0.902256361808667  0.16588930107586797  0.6166011530424399  1.0000
  O   O3        1.0  0.9647616675530724  0.4087583560917081  0.4257340341204047  1.0000
  O   O4        1.0  0.9647487282924054  0.3948192045578096  0.8032660887550492  1.0000
  O   O5        1.0  0.9647735161358444  0.5905992368254616  0.607661623360169  1.0000
  O   O6        1.0  0.9647368235369959  0.2129783343120275  0.6213383994769393  1.0000
  O   O7        1.0  0.8398210752684148  0.5931893854962524  0.6016830679172613  1.0000
  O   O8        1.0  0.8397962875848555  0.3974109135587656  0.7972874646316335  1.0000
  O   O9        1.0  0.8398092269485489  0.41135002036364593  0.41975384892093776  1.0000
  O   O10       1.0  0.8397843829248439  0.21556998926227558  0.6153583116207977  1.0000
