data_image0
_chemical_formula_structural       NC8NC6H8C7ONH7C6NO2H3Zn2C4O8
_chemical_formula_sum              "N4 C31 H18 O11 Zn2"
_cell_length_a       17.457602349358154
_cell_length_b       10.297852080636378
_cell_length_c       9.273395971720358
_cell_angle_alpha    84.96325203877277
_cell_angle_beta     92.78021970675468
_cell_angle_gamma    91.66731456120219

_space_group_name_H-M_alt    "P 1"
_space_group_IT_number       1

loop_
  _space_group_symop_operation_xyz
  'x, y, z'

loop_
  _atom_site_type_symbol
  _atom_site_label
  _atom_site_symmetry_multiplicity
  _atom_site_fract_x
  _atom_site_fract_y
  _atom_site_fract_z
  _atom_site_occupancy
  N   N1        1.0  0.7236825609972578  0.4675116852987682  0.47330205501353917  1.0000
  C   C1        1.0  0.6626266038536008  0.42169056425596985  0.4615036887345561  1.0000
  C   C2        1.0  0.5866703980073777  0.3646947046677893  0.4468371269770528  1.0000
  C   C3        1.0  0.5280475917406243  0.4040756406097681  0.5300860573157737  1.0000
  C   C4        1.0  0.45352831245518  0.34919193027873363  0.5161023988043247  1.0000
  C   C5        1.0  0.39130907724422315  0.3907698902605012  0.6042661766648341  1.0000
  C   C6        1.0  0.3168221590645306  0.4098276312054925  0.5422836729804006  1.0000
  C   C7        1.0  0.2581992660661396  0.4490234764953955  0.625652600282494  1.0000
  C   C8        1.0  0.18227659365513882  0.4687104637492163  0.5612075608857856  1.0000
  N   N2        1.0  0.12124768273948501  0.48453241917120926  0.5093939172668136  1.0000
  C   C9        1.0  0.2735704954599837  0.46939941543055785  0.7715692504294404  1.0000
  C   C10       1.0  0.34727218341216226  0.45072664955106845  0.8339825655950952  1.0000
  C   C11       1.0  0.40588290996621773  0.41170607544519733  0.7511223981913464  1.0000
  C   C12       1.0  0.43892226754513425  0.25426481978332083  0.41727711430673264  1.0000
  C   C13       1.0  0.49753283893012473  0.21515840371715408  0.3344727868631998  1.0000
  C   C14       1.0  0.571266700180436  0.2701487257141131  0.3490677204450694  1.0000
  H   H1        1.0  0.5402993864127915  0.4785817149768114  0.6041452215815226  1.0000
  H   H2        1.0  0.3045969239642691  0.39592762156648575  0.4288822234968137  1.0000
  H   H3        1.0  0.22863568535836  0.49966862499627873  0.8369654254190413  1.0000
  H   H4        1.0  0.3589837998898166  0.46618849935372597  0.9469690900283203  1.0000
  H   H5        1.0  0.46231906573890114  0.3962270311789206  0.8023708395635737  1.0000
  H   H6        1.0  0.382459503239928  0.2090338432205392  0.4054385883767777  1.0000
  H   H7        1.0  0.4857959836391086  0.14178157334206332  0.25908164078299545  1.0000
  H   H8        1.0  0.6162011567633326  0.23900430159903818  0.2842396913322158  1.0000
  C   C15       1.0  0.9225505565987407  0.09458846865598614  0.4913643583989673  1.0000
  C   C16       1.0  0.9122067054456487  0.10510301041386239  0.33961398882754223  1.0000
  C   C17       1.0  0.9062840643523707  0.9933114745005153  0.2627257759561943  1.0000
  C   C18       1.0  0.9120128189839671  0.8698429693717817  0.3395465847169967  1.0000
  C   C19       1.0  0.9223869788498186  0.857445807584423  0.4913447084989362  1.0000
  C   C20       1.0  0.9274063909887555  0.9703361529147817  0.5662794551312742  1.0000
  C   C21       1.0  0.8955491776519527  0.007025918689713917  0.10244489473059781  1.0000
  O   O1        1.0  0.9161181194924576  0.11168822846318038  0.03242346515786099  1.0000
  N   N3        1.0  0.8613528446946652  0.9044542596588633  0.02480633955941736  1.0000
  H   H9        1.0  0.9423783367081194  0.2820020561651815  0.7781212767483212  1.0000
  H   H10       1.0  0.9080639320627851  0.20060049840269767  0.281045816549478  1.0000
  H   H11       1.0  0.9099023681537082  0.7830978918642258  0.2814549635726744  1.0000
  H   H12       1.0  0.935376612013422  0.9614788338538373  0.6832351767740394  1.0000
  H   H13       1.0  0.9432234875523787  0.6268146612866304  0.7780616534271503  1.0000
  H   H14       1.0  0.8576037938270576  0.9144271763612406  0.9116718991329842  1.0000
  H   H15       1.0  0.8350978211314494  0.8226718603933009  0.07789373870183969  1.0000
  C   C22       1.0  0.9229044777319783  0.4800261411318978  0.06745737584575195  1.0000
  C   C23       1.0  0.8545249125339606  0.5067461629391361  0.13183623757989227  1.0000
  C   C24       1.0  0.7859332535251765  0.521175091882373  0.04917979884073409  1.0000
  C   C25       1.0  0.7837752593044941  0.5091494871750537  0.8996893277089315  1.0000
  C   C26       1.0  0.8521133528884762  0.48465336552973737  0.8338690092591028  1.0000
  C   C27       1.0  0.9220330658402974  0.47200813003178355  0.9152517659521905  1.0000
  N   N4        1.0  0.7126559099853614  0.5230373280080451  0.8150953377038475  1.0000
  O   O2        1.0  0.6459834758942609  0.5480979542139046  0.8798170813678317  1.0000
  O   O3        1.0  0.7102151210401944  0.5122283012723703  0.6818782820135709  1.0000
  H   H16       1.0  0.09079738069549516  0.34169778825390495  0.19912193753670726  1.0000
  H   H17       1.0  0.7343008165398094  0.540502924401526  0.10287533679159643  1.0000
  H   H18       1.0  0.03650502098361463  0.3827367599972926  0.6541951058664135  1.0000
  Zn  Zn1       1.0  0.8384112594651838  0.4724199393075603  0.4837257215807537  1.0000
  Zn  Zn2       1.0  0.006518960157658738  0.47961340376417705  0.498982069184559  1.0000
  C   C28       1.0  0.9221971947193728  0.4683490793835594  0.7550004332114466  1.0000
  C   C29       1.0  0.9227348601373455  0.4836859797984199  0.2277076657914534  1.0000
  C   C30       1.0  0.9224198854104401  0.7133037648514018  0.48559582851052635  1.0000
  C   C31       1.0  0.9225121123383385  0.23872973058062552  0.4971123422862953  1.0000
  O   O4        1.0  0.9864739324501461  0.48763847065685884  0.28727883155378886  1.0000
  O   O5        1.0  0.9860479781219258  0.46985528564334283  0.7070080667623226  1.0000
  O   O6        1.0  0.9862269421279802  0.6676592410379265  0.48946186430024724  1.0000
  O   O7        1.0  0.9862949111895749  0.2898345231230481  0.5048249205762854  1.0000
  O   O8        1.0  0.8586352510663672  0.6621988174953982  0.4778828649751919  1.0000
  O   O9        1.0  0.8584562868013521  0.46439642339747594  0.6954289904295103  1.0000
  O   O10       1.0  0.858882242974123  0.4821795795631878  0.27569801970683194  1.0000
  O   O11       1.0  0.8587032216011686  0.28437562171531344  0.4932442169550724  1.0000
