data_image0
_chemical_formula_structural       NC8NC6H8C6SCOC6H9C7OC3OC4H11Zn2C4O8
_chemical_formula_sum              "N2 C45 H28 S1 O11 Zn2"
_cell_length_a       17.457602349358154
_cell_length_b       10.302038109246572
_cell_length_c       10.299374482448636
_cell_angle_alpha    85.55445882342694
_cell_angle_beta     92.85818479457473
_cell_angle_gamma    91.70619204985762

_space_group_name_H-M_alt    "P 1"
_space_group_IT_number       1

loop_
  _space_group_symop_operation_xyz
  'x, y, z'

loop_
  _atom_site_type_symbol
  _atom_site_label
  _atom_site_symmetry_multiplicity
  _atom_site_fract_x
  _atom_site_fract_y
  _atom_site_fract_z
  _atom_site_occupancy
  N   N1        1.0  0.7229577326205726  0.45282019144415714  0.6266733130661934  1.0000
  C   C1        1.0  0.6618730296823773  0.4069083097871468  0.6160511340441497  1.0000
  C   C2        1.0  0.5858810755042752  0.3497996397567242  0.6028466862805276  1.0000
  C   C3        1.0  0.527346137979826  0.38993410972467113  0.6777514200709753  1.0000
  C   C4        1.0  0.452792555550211  0.33494305745197356  0.6651617107682635  1.0000
  C   C5        1.0  0.3906663248693323  0.37731908955490434  0.7444886473859721  1.0000
  C   C6        1.0  0.3161335724864761  0.39579651517659376  0.6887264429509062  1.0000
  C   C7        1.0  0.2575985769619388  0.4357470770189766  0.7637391078070157  1.0000
  C   C8        1.0  0.1816281975875973  0.4548307442587082  0.705761476926406  1.0000
  N   N2        1.0  0.12056092783447649  0.4701676344851977  0.6591476118844684  1.0000
  C   C9        1.0  0.2731041226567597  0.45746317572508455  0.8950225385935144  1.0000
  C   C10       1.0  0.3468521728886065  0.43937455250257096  0.9511724022153959  1.0000
  C   C11       1.0  0.4053755124829302  0.39960389298028426  0.8766174929209356  1.0000
  C   C12       1.0  0.4380626945021805  0.23914061834058553  0.5762342253353636  1.0000
  C   C13       1.0  0.4965858924145323  0.19928466702538733  0.501729541244494  1.0000
  C   C14       1.0  0.5703546280927769  0.2543879367029642  0.5148692274031247  1.0000
  H   H1        1.0  0.5396920835739922  0.4650948088737832  0.7443937586417121  1.0000
  H   H2        1.0  0.30380473498571414  0.3808542078479368  0.586697740152797  1.0000
  H   H3        1.0  0.2282380679741714  0.4883245892937407  0.9538638264595474  1.0000
  H   H4        1.0  0.358667665659468  0.4558742437632066  0.05282804765282789  1.0000
  H   H5        1.0  0.4618496776212634  0.38460455477815136  0.9227229038355794  1.0000
  H   H6        1.0  0.3815713886490331  0.193818274948758  0.5655760085962896  1.0000
  H   H7        1.0  0.484754192639454  0.12524045434225028  0.4338890070630365  1.0000
  H   H8        1.0  0.6152204657478803  0.22265690700672452  0.4565389575636405  1.0000
  C   C15       1.0  0.9216903408637753  0.08021245915873654  0.6428646677985266  1.0000
  C   C16       1.0  0.8561189110692923  0.08213973569420907  0.5579870704817818  1.0000
  C   C17       1.0  0.8238542566388288  0.966156020100159  0.5153010500179118  1.0000
  C   C18       1.0  0.8563656847504723  0.8470179167047868  0.5579532179276147  1.0000
  C   C19       1.0  0.9218356735618929  0.842765676142333  0.6429681150968751  1.0000
  C   C20       1.0  0.9541998676024266  0.9600032345899  0.6849013514223983  1.0000
  S   S1        1.0  0.740623093534499  0.9700835778095789  0.40589086027583504  1.0000
  C   C21       1.0  0.7970547883461314  0.9810743928300342  0.2640734044613293  1.0000
  O   O1        1.0  0.815562091638152  0.8766249628236492  0.2192335042082076  1.0000
  C   C22       1.0  0.822369210848909  0.10836034591598896  0.20064137462045648  1.0000
  C   C23       1.0  0.8766303654227936  0.11309074352128377  0.10356347524576791  1.0000
  C   C24       1.0  0.9012988944746554  0.23251763094602196  0.0438532680164887  1.0000
  C   C25       1.0  0.8721215265395894  0.3484725370132424  0.0799726669955978  1.0000
  C   C26       1.0  0.8180913510193311  0.34522511643093184  0.17571634551337567  1.0000
  C   C27       1.0  0.7931670424457374  0.22609063219623482  0.23572584444579145  1.0000
  H   H9        1.0  0.045195922914259105  0.2838798786180954  0.8030104978263941  1.0000
  H   H10       1.0  0.8300231187045863  0.17353056226469696  0.5245789226284606  1.0000
  H   H11       1.0  0.8305171458133358  0.7581461116654593  0.524076718297391  1.0000
  H   H12       1.0  0.004751151278189701  0.9575971409653686  0.7503329998077922  1.0000
  H   H13       1.0  0.9003686949277551  0.02456928255605661  0.07420375899027531  1.0000
  H   H14       1.0  0.9431634203035711  0.2351158815843339  0.9695725413421452  1.0000
  H   H15       1.0  0.8913070176950563  0.44082526263683985  0.03366387030574747  1.0000
  H   H16       1.0  0.7953588299501919  0.43517376177116396  0.20339750260582123  1.0000
  H   H17       1.0  0.7508533112250755  0.22686075698756736  0.30883750904653096  1.0000
  C   C28       1.0  0.9218340823070961  0.4615796324879364  0.2615396571996833  1.0000
  C   C29       1.0  0.0019735602021475583  0.4797369416103078  0.26571544695527405  1.0000
  C   C30       1.0  0.042297062622421056  0.49036180641103994  0.15052609617759669  1.0000
  C   C31       1.0  0.0017901653244549757  0.47966508454609524  0.030461609736095893  1.0000
  C   C32       1.0  0.9216918954468244  0.46139847753466057  0.024293050474443193  1.0000
  C   C33       1.0  0.8821556763382559  0.45280145048221354  0.14037441683649887  1.0000
  C   C34       1.0  0.1270085979423039  0.508180395980823  0.15490760559989036  1.0000
  O   O2        1.0  0.1646379636215385  0.4562929091312291  0.0721274316295719  1.0000
  C   C35       1.0  0.1690282706149313  0.5848772215059774  0.2531163792308333  1.0000
  C   C36       1.0  0.24387239118057205  0.5514335917086707  0.297389158384246  1.0000
  C   C37       1.0  0.28486515606411716  0.6234693868683057  0.3889490207557588  1.0000
  O   O3        1.0  0.35908518576899184  0.584825407156573  0.43029916152127345  1.0000
  C   C38       1.0  0.4071655044553517  0.6487790701554651  0.5226258812228709  1.0000
  C   C39       1.0  0.2505898932212856  0.731334450085926  0.4360773687741215  1.0000
  C   C40       1.0  0.1766417740344593  0.7661500669497064  0.3913673764141937  1.0000
  C   C41       1.0  0.136091770407129  0.6939006358741129  0.3000846812140232  1.0000
  H   H18       1.0  0.7707317983176093  0.42533320870419344  0.46114579647012666  1.0000
  H   H19       1.0  0.033221000916517474  0.48419151283682565  0.35885923762295335  1.0000
  H   H20       1.0  0.03286115307199512  0.4868748914824078  0.941606427708281  1.0000
  H   H21       1.0  0.8203739938058403  0.43880264051182744  0.13635147246788848  1.0000
  H   H22       1.0  0.27046277717005385  0.4683017790837069  0.2616723026678016  1.0000
  H   H23       1.0  0.462380028234322  0.5978436232514495  0.5370878169499738  1.0000
  H   H24       1.0  0.37946146844753126  0.6457698371430726  0.6175976388226679  1.0000
  H   H25       1.0  0.4189799083882322  0.7512759054526696  0.48594152729132917  1.0000
  H   H26       1.0  0.2806648821499782  0.7890708638721443  0.5067314730462459  1.0000
  H   H27       1.0  0.1507720130460224  0.8498022532954419  0.4271720790021562  1.0000
  H   H28       1.0  0.07936537787070312  0.7241446238312579  0.2652313035701608  1.0000
  Zn  Zn1       1.0  0.8376974240286271  0.4578228050945509  0.6360521923714471  1.0000
  Zn  Zn2       1.0  0.005821218166060848  0.4651543729278293  0.6497793638805383  1.0000
  C   C42       1.0  0.9217160818332534  0.4562601613359548  0.8801155220523342  1.0000
  C   C43       1.0  0.9218043965564501  0.4667187349610333  0.4057163117911764  1.0000
  C   C44       1.0  0.9218051968701592  0.6986279327238972  0.6377729372889176  1.0000
  C   C45       1.0  0.9217152238404867  0.2243494011095799  0.648058960898955  1.0000
  O   O4        1.0  0.9855965363586164  0.4712200920370996  0.45931270342181557  1.0000
  O   O5        1.0  0.9855260115446476  0.4573223151950249  0.8369373619854417  1.0000
  O   O6        1.0  0.9855971127293721  0.6530373179222801  0.6412439401319958  1.0000
  O   O7        1.0  0.9855253778245505  0.2755050961192975  0.6550060232157064  1.0000
  O   O8        1.0  0.8579932069977394  0.6474720794025938  0.6308255283450375  1.0000
  O   O9        1.0  0.8579221061196739  0.45175863663836024  0.8265188811628801  1.0000
  O   O10       1.0  0.8579926312670973  0.4656563686078725  0.4488926611646437  1.0000
  O   O11       1.0  0.8579214727099744  0.2699413633801284  0.6445860783268486  1.0000
