data_image0
_chemical_formula_structural       NC8NH4C12H8C12H8Zn2C4O8
_chemical_formula_sum              "N2 C36 H20 Zn2 O8"
_cell_length_a       14.927258825633057
_cell_length_b       13.024581838241813
_cell_length_c       13.024585202197207
_cell_angle_alpha    84.12653577963174
_cell_angle_beta     93.99279185103242
_cell_angle_gamma    93.7331727635998

_space_group_name_H-M_alt    "P 1"
_space_group_IT_number       1

loop_
  _space_group_symop_operation_xyz
  'x, y, z'

loop_
  _atom_site_type_symbol
  _atom_site_label
  _atom_site_symmetry_multiplicity
  _atom_site_fract_x
  _atom_site_fract_y
  _atom_site_fract_z
  _atom_site_occupancy
  N   N1        1.0  0.836748464952179  0.1241045915986967  0.8366255631783124  1.0000
  C   C1        1.0  0.7592220399789477  0.12410457270903773  0.836625570543196  1.0000
  C   C2        1.0  0.6627894006199802  0.12410457266289485  0.8366256098716219  1.0000
  C   C3        1.0  0.6083377431893374  0.060680492364610476  0.7741430614113483  1.0000
  C   C4        1.0  0.514626426841973  0.06068042803483631  0.7741430427003728  1.0000
  C   C5        1.0  0.4749734014850189  0.12410461034187986  0.8366255462268104  1.0000
  C   C6        1.0  0.5294250546218456  0.18752869770109282  0.8991080173501256  1.0000
  C   C7        1.0  0.6231364379608868  0.1875287620287631  0.8991080360653839  1.0000
  C   C8        1.0  0.3785407534894056  0.12410454036457877  0.8366255087557273  1.0000
  N   N2        1.0  0.3010143328590041  0.12410459846700683  0.8366255155831617  1.0000
  H   H1        1.0  0.638276762556688  0.011332838384955564  0.7255281495155229  1.0000
  H   H2        1.0  0.4731731099711851  0.01133282173785655  0.7255282193538508  1.0000
  H   H3        1.0  0.499486035254495  0.23687635168074772  0.9477229292459513  1.0000
  H   H4        1.0  0.6645896921338138  0.23687636126691805  0.9477229367445817  1.0000
  C   C9        1.0  0.05213295659779412  0.821229797764921  0.8442235470084607  1.0000
  C   C10       1.0  0.00795943528563003  0.7584329310181531  0.7724478718783196  1.0000
  C   C11       1.0  0.03702004839231842  0.6601030660819485  0.7632681155720278  1.0000
  C   C12       1.0  0.11027175157483016  0.6225306533158539  0.8261534994671715  1.0000
  C   C13       1.0  0.15505655133704677  0.6853625425015668  0.8970717747131596  1.0000
  C   C14       1.0  0.12606510038376223  0.7837240026857395  0.906318400196563  1.0000
  C   C15       1.0  0.142013331440618  0.5190520978908165  0.8152988855061021  1.0000
  C   C16       1.0  0.23026659291452448  0.5132643348183051  0.7858858448303544  1.0000
  C   C17       1.0  0.2621743037123525  0.4187667285148784  0.7680894772506683  1.0000
  C   C18       1.0  0.2064468032708362  0.32881143825486503  0.7791713260645586  1.0000
  C   C19       1.0  0.11892373445041526  0.3327261752438302  0.8093443226606576  1.0000
  C   C20       1.0  0.08563855362695325  0.42697146275788483  0.8290366781702889  1.0000
  H   H5        1.0  0.9510532318302442  0.7853161433445869  0.7231974035602238  1.0000
  H   H6        1.0  0.002500339480756768  0.6132215874294337  0.7070047687033685  1.0000
  H   H7        1.0  0.21214736306553017  0.6578859679135645  0.9456822859924807  1.0000
  H   H8        1.0  0.1616314753685275  0.8303332185272853  0.9620728457598557  1.0000
  H   H9        1.0  0.27407735160998836  0.5826274892030442  0.7748882401756858  1.0000
  H   H10       1.0  0.33007157818019284  0.41542740099212727  0.7448811411887821  1.0000
  H   H11       1.0  0.23129842228424  0.25563424805743906  0.7650014779366623  1.0000
  H   H12       1.0  0.868586015289532  0.3420902430139093  0.8717243076940029  1.0000
  C   C21       1.0  0.0504552197151411  0.12286277435981964  0.5344422534172217  1.0000
  C   C22       1.0  0.03520957804740842  0.2052804128121546  0.4579461244607619  1.0000
  C   C23       1.0  0.06572995443656815  0.20370133474112798  0.35910561374185135  1.0000
  C   C24       1.0  0.11140734981526323  0.11942818714885961  0.3347712295776819  1.0000
  C   C25       1.0  0.1275364205224503  0.03759739440643251  0.4111794593874769  1.0000
  C   C26       1.0  0.09705635609877472  0.039089917280099806  0.5100654038660326  1.0000
  C   C27       1.0  0.14504421917281718  0.1184762887906825  0.2305950224016  1.0000
  C   C28       1.0  0.23828860134992436  0.11511368673769935  0.22299711192488242  1.0000
  C   C29       1.0  0.27460299534879096  0.1205829429477203  0.12663565885965133  1.0000
  C   C30       1.0  0.21844548410868758  0.1296981371666157  0.03655854265390812  1.0000
  C   C31       1.0  0.12560805132381936  0.13209640680907395  0.04243800543939514  1.0000
  C   C32       1.0  0.08731623696399547  0.12533848824984006  0.13881791640020968  1.0000
  H   H13       1.0  0.999869015835102  0.27111965098905255  0.47447821912690047  1.0000
  H   H14       1.0  0.053879265847667  0.2682693448543223  0.30148938301676464  1.0000
  H   H15       1.0  0.1632820478706611  0.9722910806116702  0.3939526421121937  1.0000
  H   H16       1.0  0.11007109670711945  0.9746314263666759  0.5673607422752813  1.0000
  H   H17       1.0  0.283267819844885  0.11008092656772783  0.29207013865181697  1.0000
  H   H18       1.0  0.3465506576096921  0.11853696157030247  0.12180575432950036  1.0000
  H   H19       1.0  0.24684148157094343  0.13424630298629592  0.9618775656206471  1.0000
  H   H20       1.0  0.8687613943320267  0.16128433497627737  0.05338218086195723  1.0000
  Zn  Zn1       1.0  0.9707257839878287  0.12410184878178332  0.8366315674603624  1.0000
  Zn  Zn2       1.0  0.16703707394475156  0.12409890876384201  0.8366281736618744  1.0000
  C   C33       1.0  0.08011947140492559  0.12076169791210707  0.024681015163113718  1.0000
  C   C34       1.0  0.05764560838323442  0.12744036137073533  0.6485787942964872  1.0000
  C   C35       1.0  0.07905055442762364  0.3124565922744807  0.8278066151456098  1.0000
  C   C36       1.0  0.058714393177397246  0.9357442280761511  0.8454532802458584  1.0000
  O   O1        1.0  0.13455763107084695  0.12897102605981645  0.686882884949104  1.0000
  O   O2        1.0  0.15220311435575073  0.11922802252996335  0.9863740719766141  1.0000
  O   O3        1.0  0.15133901135486338  0.27402407843852905  0.8273965741734813  1.0000
  O   O4        1.0  0.13542166278624146  0.9741749772142839  0.8458603054109951  1.0000
  O   O5        1.0  0.0023411281546621403  0.2740257803334452  0.8273994357069588  1.0000
  O   O6        1.0  0.0032052963470114975  0.11923096335919388  0.9863768475739421  1.0000
  O   O7        1.0  0.9855597356753933  0.12897392587973577  0.6868844242299903  1.0000
  O   O8        1.0  0.9864237716846036  0.974177869973274  0.8458619220288408  1.0000
