data_image0
_chemical_formula_structural       NC12NC2H8C7OC3NC3H11C7OC6OCH11Zn2C4O8
_chemical_formula_sum              "N3 C45 H30 O11 Zn2"
_cell_length_a       17.80743265337812
_cell_length_b       10.298746005989749
_cell_length_c       10.299362532796529
_cell_angle_alpha    85.58216748152913
_cell_angle_beta     91.54954799628842
_cell_angle_gamma    89.44452832379845

_space_group_name_H-M_alt    "P 1"
_space_group_IT_number       1

loop_
  _space_group_symop_operation_xyz
  'x, y, z'

loop_
  _atom_site_type_symbol
  _atom_site_label
  _atom_site_symmetry_multiplicity
  _atom_site_fract_x
  _atom_site_fract_y
  _atom_site_fract_z
  _atom_site_occupancy
  N   N1        1.0  0.7073290027676665  0.4063277685008471  0.6014740204194262  1.0000
  C   C1        1.0  0.6565009044902342  0.43586569874945097  0.5327788091545309  1.0000
  C   C2        1.0  0.5932657366400822  0.47260874113647994  0.447330614036439  1.0000
  C   C3        1.0  0.6049771028473745  0.5265909205831291  0.3207173214252636  1.0000
  C   C4        1.0  0.5436495334964851  0.5618310603075585  0.2376649440336027  1.0000
  C   C5        1.0  0.4704562133489705  0.5433522828476718  0.2805659891870762  1.0000
  C   C6        1.0  0.45776813809496797  0.4892514497750764  0.4076474075932028  1.0000
  C   C7        1.0  0.5199530211861583  0.4540145586036397  0.4906832738038495  1.0000
  C   C8        1.0  0.3800069675562176  0.4696594244872898  0.4534086095847587  1.0000
  C   C9        1.0  0.3612443100800172  0.4968915162491863  0.5804537248195294  1.0000
  C   C10       1.0  0.28802105439736325  0.47845432952457245  0.6233953360659417  1.0000
  C   C11       1.0  0.2326176006525442  0.4325310439724901  0.540129766820832  1.0000
  C   C12       1.0  0.1572579186766848  0.41354146329353214  0.5844722376821045  1.0000
  N   N2        1.0  0.0966740710411942  0.3982751175438548  0.6201205337861726  1.0000
  C   C13       1.0  0.25068883858584473  0.40513021095542295  0.41362759890151785  1.0000
  C   C14       1.0  0.3238591985078241  0.4235820968640769  0.3704301053130563  1.0000
  H   H1        1.0  0.6614384710608112  0.5414041716277236  0.286282101347866  1.0000
  H   H2        1.0  0.552835378066554  0.6038982653115093  0.13989091494122552  1.0000
  H   H3        1.0  0.4238087844343582  0.5729678921053858  0.2149786899163495  1.0000
  H   H4        1.0  0.5114654166651433  0.4105618836429259  0.5883327360240093  1.0000
  H   H5        1.0  0.4029347945279247  0.5340964238475594  0.6460292748695224  1.0000
  H   H6        1.0  0.27459574224548816  0.5003353110363913  0.7214048776455761  1.0000
  H   H7        1.0  0.2082816551578694  0.36919283544231823  0.34846511038349104  1.0000
  H   H8        1.0  0.3367560303724201  0.40016554028251533  0.2727237590205267  1.0000
  C   C15       1.0  0.9019692299545918  0.02090003536594831  0.610778540581334  1.0000
  C   C16       1.0  0.9370943006987033  0.028642897527859205  0.4899581264758039  1.0000
  C   C17       1.0  0.9540651331552527  0.9154508261768928  0.42813865045825206  1.0000
  C   C18       1.0  0.9370948564176401  0.7934062707947106  0.4899090166510462  1.0000
  C   C19       1.0  0.9020410247532726  0.7836927564704311  0.6108275329675446  1.0000
  C   C20       1.0  0.8845197790643735  0.8980042271847994  0.6703318974265438  1.0000
  C   C21       1.0  0.9917955188387052  0.9234226709902376  0.30113183186702885  1.0000
  O   O1        1.0  0.03766182836224319  0.8344884829570611  0.27811653984201573  1.0000
  C   C22       1.0  0.9774950640627705  0.03222594014419444  0.20024260482648493  1.0000
  C   C23       1.0  0.9063560502682055  0.09308571887861761  0.18472833732365943  1.0000
  C   C24       1.0  0.8931767540610581  0.19500046469616406  0.08819164536570434  1.0000
  N   N3        1.0  0.8208352644193794  0.2567275802131199  0.0735231530523428  1.0000
  C   C25       1.0  0.9511827349697263  0.23566164138580148  0.005836646692379821  1.0000
  C   C26       1.0  0.021635708750383786  0.1746507286601682  0.019462012171457484  1.0000
  C   C27       1.0  0.034756522103398524  0.07316157491643294  0.11569169949167411  1.0000
  H   H9        1.0  0.8366420991695328  0.21354372323417037  0.8399823304834787  1.0000
  H   H10       1.0  0.952027099390546  0.12283693018618712  0.44445212044043236  1.0000
  H   H11       1.0  0.9506367332641141  0.7059202497267424  0.44286033475508235  1.0000
  H   H12       1.0  0.8574483948567482  0.8912837256994899  0.7634646285984794  1.0000
  H   H13       1.0  0.8360894973467279  0.5580152346639818  0.8395129002938058  1.0000
  H   H14       1.0  0.860870280935423  0.060641642689696296  0.24651167768652948  1.0000
  H   H15       1.0  0.7771946721721547  0.22719508216083978  0.13438341471794102  1.0000
  H   H16       1.0  0.8104021712718963  0.3325372704001981  0.00178608211370701  1.0000
  H   H17       1.0  0.9417035557480316  0.31418681644845314  0.9308965621670211  1.0000
  H   H18       1.0  0.06620063404601573  0.20607754098656006  0.9553022931682666  1.0000
  H   H19       1.0  0.08985640691369312  0.027382005554528206  0.12485800087203412  1.0000
  C   C28       1.0  0.901946490765468  0.40217705430321576  0.22943334898942447  1.0000
  C   C29       1.0  0.8306271447953092  0.34496655730125414  0.22930188100332427  1.0000
  C   C30       1.0  0.7943319341010511  0.31744132779535783  0.11204863389909536  1.0000
  C   C31       1.0  0.8308387246292271  0.34512575289972847  0.9940577238748536  1.0000
  C   C32       1.0  0.9020637858342164  0.40241570298318324  0.9921727559569329  1.0000
  C   C33       1.0  0.9371450218374514  0.43086771494693643  0.1103767635845465  1.0000
  C   C34       1.0  0.7194024113942019  0.2556880554966061  0.1142591470860781  1.0000
  O   O2        1.0  0.7040459734621853  0.17679240054087653  0.20941552873661995  1.0000
  C   C35       1.0  0.6618969675244276  0.28343086847805377  0.008591878879450118  1.0000
  C   C36       1.0  0.6561313379209159  0.4069330569666606  0.940469724665787  1.0000
  C   C37       1.0  0.6011445257851261  0.4322519631671678  0.8421421595296952  1.0000
  C   C38       1.0  0.5505995466693074  0.3356248391034571  0.8106668201289144  1.0000
  C   C39       1.0  0.5555751228617598  0.21233256169167783  0.8796693647779409  1.0000
  C   C40       1.0  0.6105551906093525  0.1868865851572794  0.9780690043222968  1.0000
  O   O3        1.0  0.4965207413482104  0.36590536555994535  0.7110940770139003  1.0000
  C   C41       1.0  0.44173632303148064  0.2772696378253061  0.669092366119596  1.0000
  H   H20       1.0  0.8028090602794187  0.32279905292680366  0.3205023422415014  1.0000
  H   H21       1.0  0.803980343359262  0.32059906843526187  0.9037158537884599  1.0000
  H   H22       1.0  0.9920901579520601  0.4750585541567374  0.10965544036928132  1.0000
  H   H23       1.0  0.9295132144615873  0.42390785959548066  0.6640194819302074  1.0000
  H   H24       1.0  0.6935847349687646  0.48441573440360086  0.9640923202088327  1.0000
  H   H25       1.0  0.5975740116089154  0.5277932306289302  0.7904132285875791  1.0000
  H   H26       1.0  0.5172588255370439  0.13555357733656392  0.858102260015645  1.0000
  H   H27       1.0  0.6133957737053072  0.09117853084862594  0.029649774459004737  1.0000
  H   H28       1.0  0.4064529960661167  0.3266985575430353  0.5893220924258791  1.0000
  H   H29       1.0  0.40504831715539863  0.24581271788989323  0.7508830562663782  1.0000
  H   H30       1.0  0.46973355224268504  0.19136345193791154  0.6317722812267528  1.0000
  Zn  Zn1       1.0  0.8196855833185316  0.40400048214926365  0.6068624881151323  1.0000
  Zn  Zn2       1.0  0.9843174886279702  0.4005918128501078  0.614742658482528  1.0000
  C   C42       1.0  0.9020394412633395  0.3971965205720052  0.8479982492350989  1.0000
  C   C43       1.0  0.9019654286323137  0.4073973760036001  0.3736071109857739  1.0000
  C   C44       1.0  0.9020227999117741  0.6395071388392131  0.6056429167712107  1.0000
  C   C45       1.0  0.9019820136702719  0.16508519848594802  0.6159625098992292  1.0000
  O   O4        1.0  0.9644487338985834  0.4078501251967104  0.4249836257778652  1.0000
  O   O5        1.0  0.96450794265423  0.3941556903292907  0.8026022275073806  1.0000
  O   O6        1.0  0.9644936625408553  0.5898245968765876  0.6068985416116357  1.0000
  O   O7        1.0  0.9644629578201427  0.2121812290731049  0.6206872116103717  1.0000
  O   O8        1.0  0.8395400579455687  0.5924110670908895  0.600917932291342  1.0000
  O   O9        1.0  0.8395543381917603  0.39674372095865973  0.7966215490415737  1.0000
  O   O10       1.0  0.8394951292417279  0.410438110076666  0.41900138590766134  1.0000
  O   O11       1.0  0.8395093531743121  0.21476920469399263  0.6147050691074603  1.0000
