data_image0
_chemical_formula_structural       NC8NH4C6ClH5C7OH5Zn2C4O8
_chemical_formula_sum              "N2 C25 H14 Cl1 O9 Zn2"
_cell_length_a       13.859017124695912
_cell_length_b       10.30297070629231
_cell_length_c       9.274074313596557
_cell_angle_alpha    86.12141784095925
_cell_angle_beta     90.23359480828564
_cell_angle_gamma    89.99834178165982

_space_group_name_H-M_alt    "P 1"
_space_group_IT_number       1

loop_
  _space_group_symop_operation_xyz
  'x, y, z'

loop_
  _atom_site_type_symbol
  _atom_site_label
  _atom_site_symmetry_multiplicity
  _atom_site_fract_x
  _atom_site_fract_y
  _atom_site_fract_z
  _atom_site_occupancy
  N   N1        1.0  0.9042219060844972  0.4067889763170194  0.4102257214192619  1.0000
  C   C1        1.0  0.8317146349688106  0.3857141539856066  0.35406584485538994  1.0000
  C   C2        1.0  0.7415199052424889  0.3595001501784354  0.2842101761210625  1.0000
  C   C3        1.0  0.6540899562109989  0.38505613698640473  0.35231066424698154  1.0000
  C   C4        1.0  0.5662895837785351  0.35950124859567684  0.2842095968722182  1.0000
  C   C5        1.0  0.5661015124376855  0.308383437111146  0.1479871374374248  1.0000
  C   C6        1.0  0.653349614268639  0.28292567688571135  0.08014878631621825  1.0000
  C   C7        1.0  0.7409668745726447  0.30838133244601873  0.1479883156864823  1.0000
  C   C8        1.0  0.4764747948740035  0.3857149837061007  0.35406534688063807  1.0000
  N   N2        1.0  0.4042730310772399  0.40678926483506017  0.41022550542724967  1.0000
  H   H1        1.0  0.6543767309658335  0.42462330199016907  0.4577501114694942  1.0000
  H   H2        1.0  0.498660284357644  0.28826989093147803  0.09438459839816014  1.0000
  H   H3        1.0  0.6530634862959085  0.24343931806802943  0.9749228717908003  1.0000
  H   H4        1.0  0.8081165070050752  0.28826590393527307  0.0943867757883976  1.0000
  C   C9        1.0  0.15425208568643645  0.02554173962685246  0.41023184012389535  1.0000
  C   C10       1.0  0.25396155172952195  0.02264403734742681  0.4379924611029009  1.0000
  C   C11       1.0  0.30343472721746356  0.9042494300170923  0.4517664395431926  1.0000
  C   C12       1.0  0.2539615507741828  0.7875360680785695  0.4379923933194789  1.0000
  C   C13       1.0  0.15425209620899616  0.7880266821685806  0.4102319226290927  1.0000
  C   C14       1.0  0.10488340172577248  0.9076230775781503  0.3964869009896077  1.0000
  Cl  Cl1       1.0  0.4279956064137986  0.9021330255386495  0.48644596989828276  1.0000
  H   H5        1.0  0.11669327397415419  0.3539363645184581  0.3997740934955024  1.0000
  H   H6        1.0  0.2936184292619648  0.11201681414401522  0.4490334109916275  1.0000
  H   H7        1.0  0.2936183908215837  0.6968156204008878  0.44903330744125575  1.0000
  H   H8        1.0  0.027984435554206044  0.9089295459865878  0.3750770312106031  1.0000
  H   H9        1.0  0.11669327001145358  0.4609084002467491  0.3997743656110764  1.0000
  C   C15       1.0  0.15309679584784638  0.40304498954597384  0.9869906784526686  1.0000
  C   C16       1.0  0.0689670034825085  0.4413737061674381  0.056879565161598526  1.0000
  C   C17       1.0  0.989588636713236  0.49013612368053994  0.9776973657894564  1.0000
  C   C18       1.0  0.9924832554395  0.5018668387719636  0.8264173634495341  1.0000
  C   C19       1.0  0.07531025412164458  0.4619707179815116  0.7553885912483156  1.0000
  C   C20       1.0  0.15540737355040024  0.4105233560561925  0.8334730838086117  1.0000
  C   C21       1.0  0.9094845796762587  0.5541994857540187  0.7410266901134932  1.0000
  O   O1        1.0  0.8338731005558899  0.590372492889176  0.8017329977805865  1.0000
  H   H10       1.0  0.3888551738764836  0.3699683134445264  0.09377915637925271  1.0000
  H   H11       1.0  0.9262792626637484  0.5198564344295704  0.03509904417986732  1.0000
  H   H12       1.0  0.0764283262223786  0.46826232366398446  0.6382319280762  1.0000
  H   H13       1.0  0.3138811555600338  0.38353982760223243  0.5560071969217194  1.0000
  H   H14       1.0  0.9129108684819561  0.5620798481980898  0.6241571717363654  1.0000
  Zn  Zn1       1.0  0.048525884798630736  0.40678566692074175  0.4102339866060825  1.0000
  Zn  Zn2       1.0  0.25996907699489147  0.4067820881127626  0.4102290614146261  1.0000
  C   C22       1.0  0.1549684972949923  0.403937786086263  0.6734697414560544  1.0000
  C   C23       1.0  0.15352877383782212  0.4096316082555864  0.14699344797252012  1.0000
  C   C24       1.0  0.1542314667066622  0.6438500268807101  0.4044884869749101  1.0000
  C   C25       1.0  0.1542657324850556  0.1697178083356248  0.4159747792959436  1.0000
  O   O2        1.0  0.2339153390902202  0.4118351155882707  0.20068996998201638  1.0000
  O   O3        1.0  0.23506242132456825  0.4017305794452417  0.6197690664478404  1.0000
  O   O4        1.0  0.23446618219925486  0.5954627612495214  0.40256480039256504  1.0000
  O   O5        1.0  0.23451150576931212  0.2181029421177474  0.4178941279730886  1.0000
  O   O6        1.0  0.07398338386900516  0.5954648129183244  0.4025689200417195  1.0000
  O   O7        1.0  0.07457962278021024  0.4017341902421268  0.6197731092488156  1.0000
  O   O8        1.0  0.073432535879983  0.41183866583455786  0.20069227994887903  1.0000
  O   O9        1.0  0.07402870285009143  0.2181064840328462  0.41789654599825443  1.0000
