data_image0
_chemical_formula_structural       NC12NC2H8C6NH7C6NH7Zn2C4O8
_chemical_formula_sum              "N4 C30 H22 Zn2 O8"
_cell_length_a       19.240039667572717
_cell_length_b       9.274771166103584
_cell_length_c       9.274774538082516
_cell_angle_alpha    84.9550519661537
_cell_angle_beta     90.34966360595384
_cell_angle_gamma    90.59704977044065

_space_group_name_H-M_alt    "P 1"
_space_group_IT_number       1

loop_
  _space_group_symop_operation_xyz
  'x, y, z'

loop_
  _atom_site_type_symbol
  _atom_site_label
  _atom_site_symmetry_multiplicity
  _atom_site_fract_x
  _atom_site_fract_y
  _atom_site_fract_z
  _atom_site_occupancy
  N   N1        1.0  0.6577848416460903  0.5925437318306834  0.40513152796973895  1.0000
  C   C1        1.0  0.5976364730329881  0.5925438259057971  0.40513143674331653  1.0000
  C   C2        1.0  0.5228184361033044  0.5925439575098048  0.40513128391889053  1.0000
  C   C3        1.0  0.4863184815149435  0.5199380531204998  0.5201842320078558  1.0000
  C   C4        1.0  0.4136473941393152  0.5198140543782046  0.5202806301957306  1.0000
  C   C5        1.0  0.3764862009485934  0.5925440625309764  0.40513103070628276  1.0000
  C   C6        1.0  0.4137006878138225  0.6652742764934293  0.28998164703929574  1.0000
  C   C7        1.0  0.4863710360838866  0.665150014985336  0.29007818183607714  1.0000
  C   C8        1.0  0.2992811097632383  0.5925439760827251  0.40513092482656066  1.0000
  C   C9        1.0  0.2615968884827952  0.46633482947304666  0.4518893017640677  1.0000
  C   C10       1.0  0.1889265017808858  0.4664544526476348  0.4517875961136797  1.0000
  C   C11       1.0  0.1529488223162627  0.5925438320149292  0.40513099277580666  1.0000
  C   C12       1.0  0.078130785328221  0.5925437032675023  0.4051312693450544  1.0000
  N   N2        1.0  0.017982468919846693  0.5925436559044313  0.40513150104728823  1.0000
  C   C13       1.0  0.18991865396053648  0.7186332961194782  0.3584743305076803  1.0000
  C   C14       1.0  0.2625896523408874  0.7187531209369221  0.3583724438023512  1.0000
  H   H1        1.0  0.514015212831636  0.463718422468176  0.6100134606582766  1.0000
  H   H2        1.0  0.38654399362160463  0.46447008687981284  0.6113479470639751  1.0000
  H   H3        1.0  0.38661755753041527  0.7206182745326051  0.1989142736080609  1.0000
  H   H4        1.0  0.5141040765597132  0.7213695316005848  0.20024925988317266  1.0000
  H   H5        1.0  0.28829363209982617  0.36700423503713736  0.4867048505997835  1.0000
  H   H6        1.0  0.16082346675285927  0.3681126113347115  0.4877493025201642  1.0000
  H   H7        1.0  0.16259186545087817  0.8169751100373316  0.32251264032046967  1.0000
  H   H8        1.0  0.2900793878381661  0.818083803751338  0.3235568450527435  1.0000
  C   C15       1.0  0.8357554516724437  0.16894030939311347  0.40591816806270287  1.0000
  C   C16       1.0  0.819387752210044  0.2533725900285848  0.2768532092825193  1.0000
  C   C17       1.0  0.8095069239053058  0.18945386102346307  0.1469693880690781  1.0000
  C   C18       1.0  0.8160275049845586  0.039733567818935445  0.14520976496505633  1.0000
  C   C19       1.0  0.8311048331595196  0.9539972932312877  0.2725017487627668  1.0000
  C   C20       1.0  0.840018523343676  0.01613593472540265  0.4043573542922123  1.0000
  N   N3        1.0  0.7935621351121664  0.27699798780090457  0.016485930494599236  1.0000
  H   H9        1.0  0.9148910950277109  0.24585099864470017  0.721779822018644  1.0000
  H   H10       1.0  0.815881710410422  0.3699701246361204  0.2762988127843373  1.0000
  H   H11       1.0  0.8087541597691007  0.9891162713468564  0.04527726849234193  1.0000
  H   H12       1.0  0.8341558563084048  0.837869259573251  0.2683683184337713  1.0000
  H   H13       1.0  0.8905087790660523  0.717198903213832  0.6192551159927833  1.0000
  H   H14       1.0  0.7887733182027808  0.38907229768111184  0.016439054551004025  1.0000
  H   H15       1.0  0.7863611024373356  0.23037723728853374  0.9189269497332608  1.0000
  C   C21       1.0  0.8366582112934002  0.5962275448059564  0.9813146342672399  1.0000
  C   C22       1.0  0.8863351552305456  0.6813529673545773  0.047894300104821534  1.0000
  C   C23       1.0  0.9390704278933835  0.754595812484828  0.9669944310861313  1.0000
  C   C24       1.0  0.9425545518626183  0.7430454177733841  0.8180382952127365  1.0000
  C   C25       1.0  0.8931165850481754  0.661097706788526  0.7497502122491362  1.0000
  C   C26       1.0  0.8391157467553924  0.5888486233037703  0.8289608547993197  1.0000
  N   N4        1.0  0.9895442630577216  0.8395205499272244  0.03657971163160556  1.0000
  H   H16       1.0  0.7313490562027182  0.31424159773786653  0.10775449358971545  1.0000
  H   H17       1.0  0.8851184905489567  0.688194412785559  0.16390182526153874  1.0000
  H   H18       1.0  0.9832660376478508  0.7987783377258831  0.7544048348957659  1.0000
  H   H19       1.0  0.8961956751253345  0.6570851868699292  0.6335845545757186  1.0000
  H   H20       1.0  0.7660738538959919  0.40331259951493803  0.5632209150719367  1.0000
  H   H21       1.0  0.987571485581973  0.8485664982509491  0.14793296898113484  1.0000
  H   H22       1.0  0.029246857851920268  0.8941191040822563  0.9772370260997882  1.0000
  Zn  Zn1       1.0  0.7617301101005216  0.5925397863004821  0.40513984933729397  1.0000
  Zn  Zn2       1.0  0.914037194176761  0.592535732251235  0.40513498013337235  1.0000
  C   C27       1.0  0.8386207566837276  0.584496794709811  0.6687481580865884  1.0000
  C   C28       1.0  0.837148220351495  0.6005805426518176  0.14152680963372544  1.0000
  C   C29       1.0  0.8391924516010095  0.8560479629547486  0.3989010818338674  1.0000
  C   C30       1.0  0.8365764649646485  0.3290276406412797  0.4113739660274194  1.0000
  O   O1        1.0  0.8951123848524426  0.602033616813622  0.19529364299986085  1.0000
  O   O2        1.0  0.8962541381701862  0.5830395590139374  0.6149772156494628  1.0000
  O   O3        1.0  0.8967150142286832  0.8023205485618452  0.39707378962410234  1.0000
  O   O4        1.0  0.8946514565600392  0.3827526385281805  0.4131969607934023  1.0000
  O   O5        1.0  0.7811157957422967  0.8023228800265567  0.39707786867133077  1.0000
  O   O6        1.0  0.7806549281784175  0.5830436242472681  0.6149812145497857  1.0000
  O   O7        1.0  0.7795131696231192  0.6020376468844595  0.19529590677612707  1.0000
  O   O8        1.0  0.7790522415896753  0.3827566573395713  0.4131993327955552  1.0000
