data_image0
_chemical_formula_structural       NC9NC5H8C7F3H5C6OCH7Zn2C4O8
_chemical_formula_sum              "N2 C32 H20 F3 O9 Zn2"
_cell_length_a       17.807436237873137
_cell_length_b       9.272718291674593
_cell_length_c       9.273891588657152
_cell_angle_alpha    86.50478335773057
_cell_angle_beta     89.08663702953788
_cell_angle_gamma    87.96869977406762

_space_group_name_H-M_alt    "P 1"
_space_group_IT_number       1

loop_
  _space_group_symop_operation_xyz
  'x, y, z'

loop_
  _atom_site_type_symbol
  _atom_site_label
  _atom_site_symmetry_multiplicity
  _atom_site_fract_x
  _atom_site_fract_y
  _atom_site_fract_z
  _atom_site_occupancy
  N   N1        1.0  0.7061363985389968  0.5263711411932606  0.41010148040017413  1.0000
  C   C1        1.0  0.6457367652041182  0.4871818923803865  0.397567822466939  1.0000
  C   C2        1.0  0.5706062598316266  0.438434782429439  0.3819773133474329  1.0000
  C   C3        1.0  0.5531661640331713  0.35806193474226977  0.26481990503005326  1.0000
  C   C4        1.0  0.48021906582843393  0.31060759168750973  0.24958987050851775  1.0000
  C   C5        1.0  0.4236650803410977  0.3431065316432897  0.3514780368023924  1.0000
  C   C6        1.0  0.3461403552390822  0.29280323339033654  0.335384527249432  1.0000
  C   C7        1.0  0.28352639466595  0.38385480600798805  0.36486699828221014  1.0000
  C   C8        1.0  0.2104378231922429  0.33617513502362595  0.349650436744136  1.0000
  C   C9        1.0  0.14676096819916962  0.4302190702435627  0.3795595558036665  1.0000
  N   N2        1.0  0.0955777926667861  0.5058238989529085  0.40360563181569786  1.0000
  C   C10       1.0  0.19938086368841942  0.19715715507604292  0.3049210886700606  1.0000
  C   C11       1.0  0.261137541638066  0.10609011454134887  0.27542918805332617  1.0000
  C   C12       1.0  0.33410904571895883  0.1533295990672625  0.2904175996072064  1.0000
  C   C13       1.0  0.4417937306439637  0.424030588465472  0.468882964999382  1.0000
  C   C14       1.0  0.5147950305039816  0.47127192049284256  0.4839386181556258  1.0000
  H   H1        1.0  0.5958924516189883  0.3323629100127732  0.18502788933064562  1.0000
  H   H2        1.0  0.4678091457906157  0.2501511878805176  0.15709388642312927  1.0000
  H   H3        1.0  0.2915088529186088  0.4923802842459457  0.39774337352872347  1.0000
  H   H4        1.0  0.1430973546920292  0.1592534013388136  0.2928734061699154  1.0000
  H   H5        1.0  0.2524571215906216  0.9984631116115497  0.24122725751688234  1.0000
  H   H6        1.0  0.3810958706016668  0.08012801656159406  0.2687188196518333  1.0000
  H   H7        1.0  0.3997824200860859  0.44914419253374427  0.550107345653575  1.0000
  H   H8        1.0  0.5277314356521063  0.533073142526552  0.575288679559105  1.0000
  C   C15       1.0  0.9025065494266923  0.09259896316079883  0.403641886479843  1.0000
  C   C16       1.0  0.8569940447985489  0.17540980975444276  0.3047848875223804  1.0000
  C   C17       1.0  0.8061309945838347  0.10976174737243281  0.21739065847768543  1.0000
  C   C18       1.0  0.8027806480559488  0.9587262367088595  0.22587378517962484  1.0000
  C   C19       1.0  0.8483585067877163  0.8749246004462564  0.3216105415735393  1.0000
  C   C20       1.0  0.8992148116257264  0.9395847444121495  0.4100775821593976  1.0000
  C   C21       1.0  0.7592786423894633  0.20015748205239925  0.10938568638112134  1.0000
  F   F1        1.0  0.7398154777735816  0.33307850967253594  0.16209727061982426  1.0000
  F   F2        1.0  0.6937719837257618  0.13194022099667002  0.08036264292841055  1.0000
  F   F3        1.0  0.8001874926664592  0.22163662444043042  0.9824383139712882  1.0000
  H   H9        1.0  0.9908152902687973  0.16945296371589125  0.7132527912015366  1.0000
  H   H10       1.0  0.860013270858651  0.2921585247008629  0.2980255985595677  1.0000
  H   H11       1.0  0.7654241982437301  0.9049762094432662  0.15718065344979282  1.0000
  H   H12       1.0  0.8452858123086741  0.7583352097765234  0.32360118737582133  1.0000
  H   H13       1.0  0.06002086289118246  0.8167595264739969  0.5808866368198689  1.0000
  C   C22       1.0  0.9021065836533435  0.5122074652831551  0.9835348242576782  1.0000
  C   C23       1.0  0.9634094590076087  0.5698737609950222  0.05154489461725875  1.0000
  C   C24       1.0  0.02040799701054307  0.6385338006966477  0.9713244412044757  1.0000
  C   C25       1.0  0.016307071792779574  0.649878106303414  0.8200360800694229  1.0000
  C   C26       1.0  0.9565863350666824  0.5912552929652668  0.7506508437267887  1.0000
  C   C27       1.0  0.8996147739636615  0.5199761961270603  0.8301845746345766  1.0000
  O   O1        1.0  0.07966556688606508  0.6945327541016062  0.045988157947650654  1.0000
  C   C28       1.0  0.14125148370706947  0.7671654976468775  0.9784563208525777  1.0000
  H   H14       1.0  0.7237099465424847  0.43306189202199846  0.09686039192106932  1.0000
  H   H15       1.0  0.05938111302657267  0.7026639977345082  0.7548103461536029  1.0000
  H   H16       1.0  0.9559511093257279  0.5987199324397745  0.6336362566353002  1.0000
  H   H17       1.0  0.7806723099227133  0.46091355953423485  0.5562335348773293  1.0000
  H   H18       1.0  0.12070073282834626  0.8658213882397718  0.9151387280929993  1.0000
  H   H19       1.0  0.17286242219961423  0.6939385866448853  0.9069771911843709  1.0000
  H   H20       1.0  0.17958409944265163  0.79960712974565  0.06292017432925198  1.0000
  Zn  Zn1       1.0  0.8185207617123755  0.5204378793344142  0.40823522666347967  1.0000
  Zn  Zn2       1.0  0.9831934221037606  0.5117455139369329  0.4054836474199037  1.0000
  C   C29       1.0  0.9001064434658469  0.5127626594362684  0.6701060355417521  1.0000
  C   C30       1.0  0.9016095310823656  0.5194224598496031  0.1436129638101722  1.0000
  C   C31       1.0  0.8998500696919524  0.7794339000344813  0.4031166117120834  1.0000
  C   C32       1.0  0.9018658551726337  0.2527494902547416  0.4106024522692957  1.0000
  O   O2        1.0  0.9639351565704515  0.5185388789368138  0.19629239198721127  1.0000
  O   O3        1.0  0.9627635623983636  0.5070478443805759  0.6153377991450861  1.0000
  O   O4        1.0  0.9625556904944225  0.7223883019040758  0.39974197587867455  1.0000
  O   O5        1.0  0.9641429725607883  0.303198433704136  0.41188810818368005  1.0000
  O   O6        1.0  0.8375711550606669  0.7289849625349893  0.4018307668311114  1.0000
  O   O7        1.0  0.8377790204535533  0.5136462369759157  0.6174265263994761  1.0000
  O   O8        1.0  0.8389506199718822  0.5251372053706838  0.19837938568207633  1.0000
  O   O9        1.0  0.839158435681142  0.30979675081496194  0.413975209879896  1.0000
