data_image0
_chemical_formula_structural       NC8NC6H8C7F3H5C6OCH7Zn2C4O8
_chemical_formula_sum              "N2 C32 H20 F3 O9 Zn2"
_cell_length_a       17.457602349358154
_cell_length_b       9.27228830945605
_cell_length_c       9.273891588657152
_cell_angle_alpha    85.77446637080028
_cell_angle_beta     92.54290593679646
_cell_angle_gamma    91.12935064675003

_space_group_name_H-M_alt    "P 1"
_space_group_IT_number       1

loop_
  _space_group_symop_operation_xyz
  'x, y, z'

loop_
  _atom_site_type_symbol
  _atom_site_label
  _atom_site_symmetry_multiplicity
  _atom_site_fract_x
  _atom_site_fract_y
  _atom_site_fract_z
  _atom_site_occupancy
  N   N1        1.0  0.7184518843589082  0.6005240190744587  0.46685327107026403  1.0000
  C   C1        1.0  0.6576803969038783  0.5493976657447348  0.45536603731276454  1.0000
  C   C2        1.0  0.5820780178297686  0.4858029247665882  0.4410864693756769  1.0000
  C   C3        1.0  0.5230617850954307  0.5311598178909256  0.5239330372562576  1.0000
  C   C4        1.0  0.4488829365199539  0.4699244676267622  0.5103217740538446  1.0000
  C   C5        1.0  0.3862477749521802  0.517817017601435  0.5980602427543398  1.0000
  C   C6        1.0  0.31177881050777134  0.5377853995814506  0.536071813130582  1.0000
  C   C7        1.0  0.2527632985817106  0.5829390200878255  0.6190393252746977  1.0000
  C   C8        1.0  0.17686002019525124  0.6035586563297415  0.554588932226054  1.0000
  N   N2        1.0  0.11584673800824571  0.6201297576770033  0.5027710242640231  1.0000
  C   C9        1.0  0.26772145205207215  0.6083993939014223  0.764557940916512  1.0000
  C   C10       1.0  0.3414021205240261  0.588866985851898  0.8269739556861246  1.0000
  C   C11       1.0  0.40040343335743345  0.5439179118269798  0.7445131574556405  1.0000
  C   C12       1.0  0.4350177587188384  0.3625655074829568  0.4122783708079887  1.0000
  C   C13       1.0  0.4940192905250268  0.3175221626349152  0.3298738515338675  1.0000
  C   C14       1.0  0.5674108698110363  0.37888777895763076  0.34409458815092275  1.0000
  H   H1        1.0  0.534739233980432  0.6153554276993896  0.5973849942030869  1.0000
  H   H2        1.0  0.29986360326747447  0.5201483774055737  0.4229674803026327  1.0000
  H   H3        1.0  0.22248137393670328  0.6432891744170793  0.8296422488555759  1.0000
  H   H4        1.0  0.3527956773979494  0.6082308504524563  0.9396542666651548  1.0000
  H   H5        1.0  0.4568231628397384  0.527716763784696  0.7957647411154743  1.0000
  H   H6        1.0  0.3788361917090748  0.31209390442960644  0.40074732487260595  1.0000
  H   H7        1.0  0.48285307627787344  0.2345551038304976  0.2550852406432982  1.0000
  H   H8        1.0  0.6126544114283085  0.34303682332318197  0.27958290411556597  1.0000
  C   C15       1.0  0.9194026687253694  0.1866334804262182  0.48723717797138605  1.0000
  C   C16       1.0  0.9561789855172392  0.2694294995421216  0.3767178829247311  1.0000
  C   C17       1.0  0.9853978670113874  0.2041813611080865  0.26049025459573394  1.0000
  C   C18       1.0  0.9775723604323677  0.054507394941864636  0.25056985427245193  1.0000
  C   C19       1.0  0.9435876335639873  0.9701832158824023  0.3631761160398985  1.0000
  C   C20       1.0  0.9149033223362872  0.03400965374759556  0.4824003301850863  1.0000
  C   C21       1.0  0.011098125499066969  0.9834768791644535  0.1269958242031508  1.0000
  F   F1        1.0  0.010806441875820694  0.07694747386687162  0.0034978498731448363  1.0000
  F   F2        1.0  0.9689561764921387  0.8607965766708042  0.09571169185989459  1.0000
  F   F3        1.0  0.08577815827845427  0.9448858050705458  0.1649584152505601  1.0000
  H   H9        1.0  0.7897040087355892  0.2651525306588942  0.7347710403418184  1.0000
  H   H10       1.0  0.9610112436002052  0.38594563884733346  0.37864606094324516  1.0000
  H   H11       1.0  0.013595335429927635  0.2712774235020299  0.17750909116067004  1.0000
  H   H12       1.0  0.9411472463887635  0.8535947373669697  0.35971455390606627  1.0000
  H   H13       1.0  0.8781393269158545  0.9056607010165801  0.8281420307310374  1.0000
  C   C22       1.0  0.9184294696475528  0.606562331599198  0.0616787594598518  1.0000
  C   C23       1.0  0.9809023024147355  0.6706016731052522  0.1355803357666734  1.0000
  C   C24       1.0  0.03896839181646384  0.7452002431251357  0.06064384406521817  1.0000
  C   C25       1.0  0.03476872825977951  0.7561313171850905  0.9087654355576188  1.0000
  C   C26       1.0  0.9739115214831725  0.6912978303034004  0.8336722540211916  1.0000
  C   C27       1.0  0.915876485132183  0.6140807287761227  0.9079586982628528  1.0000
  O   O1        1.0  0.09935653910446912  0.8073598335620951  0.14099919532791638  1.0000
  C   C28       1.0  0.16209801816340508  0.8864077160490471  0.07919660431189035  1.0000
  H   H14       1.0  0.7365087449007978  0.5089470587486731  0.1567167486807779  1.0000
  H   H15       1.0  0.07864831172355348  0.8134057565191136  0.8475212250592827  1.0000
  H   H16       1.0  0.9732533150741799  0.6987033794540194  0.7164927102595571  1.0000
  H   H17       1.0  0.7945928807369703  0.5426983578343726  0.6218958915074287  1.0000
  H   H18       1.0  0.14099616321144537  0.9830288288656797  0.012383317194778922  1.0000
  H   H19       1.0  0.19445090870683623  0.8163783477041144  0.012082460670148839  1.0000
  H   H20       1.0  0.2011670780079846  0.9228312891292014  0.1673910271878716  1.0000
  Zn  Zn1       1.0  0.8331314503994934  0.6061780164253865  0.477226700631993  1.0000
  Zn  Zn2       1.0  0.001167184941462059  0.6144640356072046  0.4924094593265878  1.0000
  C   C29       1.0  0.9163878755253642  0.6069116910710683  0.7480263426305234  1.0000
  C   C30       1.0  0.9179125846676528  0.613732273176294  0.22161011415969  1.0000
  C   C31       1.0  0.9157671537861658  0.8737862956740137  0.4775722148931767  1.0000
  C   C32       1.0  0.9185332580405454  0.3468559329618725  0.49206432343324097  1.0000
  O   O2        1.0  0.9815078323021452  0.619276777633222  0.2810463515164707  1.0000
  O   O3        1.0  0.9803278693567254  0.6076549913095424  0.7001130592376467  1.0000
  O   O4        1.0  0.9798257645499688  0.8231595805380233  0.4817193513459266  1.0000
  O   O5        1.0  0.9820098800408086  0.40377219493870364  0.4994399461283832  1.0000
  O   O6        1.0  0.8522886979578123  0.8168698542677791  0.4701962086414793  1.0000
  O   O7        1.0  0.85279079378854  0.6013669978246654  0.6885898298082763  1.0000
  O   O8        1.0  0.8539707622781062  0.6129887184813201  0.26952138995890507  1.0000
  O   O9        1.0  0.8544728097425277  0.39748412642673076  0.48791509266190675  1.0000
