data_image0
_chemical_formula_structural       NC9NC5H8C6NCOH7C6OCH7Zn2C4O8
_chemical_formula_sum              "N3 C32 H22 O10 Zn2"
_cell_length_a       17.807436237873137
_cell_length_b       10.29961932979008
_cell_length_c       9.273891588657152
_cell_angle_alpha    86.08234378481637
_cell_angle_beta     89.08663702953788
_cell_angle_gamma    88.41592915749165

_space_group_name_H-M_alt    "P 1"
_space_group_IT_number       1

loop_
  _space_group_symop_operation_xyz
  'x, y, z'

loop_
  _atom_site_type_symbol
  _atom_site_label
  _atom_site_symmetry_multiplicity
  _atom_site_fract_x
  _atom_site_fract_y
  _atom_site_fract_z
  _atom_site_occupancy
  N   N1        1.0  0.7124271732548489  0.3745107858931544  0.3986555190768841  1.0000
  C   C1        1.0  0.6518660256401781  0.3392205188469395  0.38641573372423976  1.0000
  C   C2        1.0  0.5765346142897929  0.29532331285265156  0.37119076973334786  1.0000
  C   C3        1.0  0.558763270432182  0.2229468487951631  0.25463606182168363  1.0000
  C   C4        1.0  0.4856205942494617  0.18021379088681574  0.23976187822039208  1.0000
  C   C5        1.0  0.4292005496525472  0.20947937531367566  0.3414063412629779  1.0000
  C   C6        1.0  0.3514685049096964  0.16418080791503398  0.3256900463930643  1.0000
  C   C7        1.0  0.28922980361355355  0.24617355873293567  0.35448973933178607  1.0000
  C   C8        1.0  0.2159447254970034  0.2032375910202544  0.3396307184044238  1.0000
  C   C9        1.0  0.1526554624819849  0.2879249909710855  0.3688346202227688  1.0000
  N   N2        1.0  0.10178388413065749  0.35600781153945626  0.3923137502791887  1.0000
  C   C10       1.0  0.2043148183202966  0.07805066386068393  0.29594383921539147  1.0000
  C   C11       1.0  0.265696173243595  0.9960439840459369  0.2671348326836245  1.0000
  C   C12       1.0  0.3388623697861214  0.03858355993842966  0.2817690044997221  1.0000
  C   C13       1.0  0.44766271976381544  0.28235220809886824  0.45820443564379176  1.0000
  C   C14       1.0  0.5208587196997457  0.32489344768285155  0.4729058352081974  1.0000
  H   H1        1.0  0.6013836422478251  0.19980464849778778  0.17503675812734554  1.0000
  H   H2        1.0  0.47296150963677924  0.12577226165031585  0.14771924498857048  1.0000
  H   H3        1.0  0.2976595379684006  0.3439017169485521  0.38655230305305555  1.0000
  H   H4        1.0  0.14787509307399765  0.04391799656134653  0.28418038961743886  1.0000
  H   H5        1.0  0.2565721800634428  0.8991249108350052  0.23373997618024545  1.0000
  H   H6        1.0  0.385547502208877  0.9726648839473265  0.26061914902251293  1.0000
  H   H7        1.0  0.4057549122277342  0.30496723188496033  0.5392404942489786  1.0000
  H   H8        1.0  0.5340498319466135  0.3805459976913006  0.5637924612269007  1.0000
  C   C15       1.0  0.9070095787008471  0.9838950822577476  0.39544869863928356  1.0000
  C   C16       1.0  0.8711645461483298  0.9925937499764576  0.26113002243434824  1.0000
  C   C17       1.0  0.8542267494039861  0.8801869503100379  0.1924345741109963  1.0000
  C   C18       1.0  0.8713879648419622  0.7574255771155212  0.26123734406893107  1.0000
  C   C19       1.0  0.9072085875199831  0.7466133494916829  0.3955329973632724  1.0000
  C   C20       1.0  0.925083745752841  0.8604571504726279  0.4616027252807562  1.0000
  N   N3        1.0  0.8165009348577373  0.8929446509457548  0.056013659680817174  1.0000
  C   C21       1.0  0.828643377399567  0.806767631102946  0.9424030429158455  1.0000
  O   O1        1.0  0.8813701564376019  0.722586794552308  0.9476037702306734  1.0000
  H   H9        1.0  0.9739083707034246  0.17472828386962025  0.649538511114309  1.0000
  H   H10       1.0  0.8567590145055638  0.08695120622165309  0.20853566180353944  1.0000
  H   H11       1.0  0.8554676115646163  0.6703835775843207  0.2116374853742373  1.0000
  H   H12       1.0  0.9527251380145737  0.8528754261546825  0.5651392583917714  1.0000
  H   H13       1.0  0.9199472074978488  0.41500090483134056  0.4481178565139727  1.0000
  H   H14       1.0  0.7817933130698828  0.9750058507223212  0.033234598205160275  1.0000
  H   H15       1.0  0.793252767681825  0.8165507893112607  0.8483269265508939  1.0000
  C   C22       1.0  0.9083389843002069  0.3617562697856791  0.972195073594619  1.0000
  C   C23       1.0  0.9698795250984984  0.41368528187149445  0.03977271558041662  1.0000
  C   C24       1.0  0.027161038080510735  0.475514258181908  0.9590373938386462  1.0000
  C   C25       1.0  0.02310686719985045  0.48572990625998846  0.807663963954774  1.0000
  C   C26       1.0  0.9631445228450664  0.43293954154587877  0.738718328726196  1.0000
  C   C27       1.0  0.9058791926002835  0.3687520809940199  0.8187865677647723  1.0000
  O   O2        1.0  0.08664940162782542  0.525941813693519  0.03328118528480761  1.0000
  C   C28       1.0  0.14853466650010416  0.591348245142386  0.9652046893246736  1.0000
  H   H16       1.0  0.7296161572099216  0.29048497726234723  0.08611413857069405  1.0000
  H   H17       1.0  0.06639845981561532  0.5332640708919949  0.7420423988708786  1.0000
  H   H18       1.0  0.9625400618139535  0.43966151577194607  0.6216477657501978  1.0000
  H   H19       1.0  0.7866933082463445  0.3155656515279459  0.5452784272709139  1.0000
  H   H20       1.0  0.12839051527815012  0.6801887519183583  0.9011472951645292  1.0000
  H   H21       1.0  0.179843808144019  0.5254067606151103  0.8942746740681166  1.0000
  H   H22       1.0  0.1870009869379307  0.6205622233344008  0.049425269290571  1.0000
  Zn  Zn1       1.0  0.8247870831267489  0.3691678308277584  0.39683375772079366  1.0000
  Zn  Zn2       1.0  0.9894239188677669  0.3613402784905053  0.3941473608404473  1.0000
  C   C29       1.0  0.9063411322857805  0.36225622705761884  0.6587621215853543  1.0000
  C   C30       1.0  0.9078716675543953  0.3682534365520726  0.13221910930137892  1.0000
  C   C31       1.0  0.9071838153877181  0.6023960505891375  0.38977298181272446  1.0000
  C   C32       1.0  0.9070289276429575  0.1281120560436968  0.40120832666887485  1.0000
  O   O3        1.0  0.9701936514586517  0.3674577640828664  0.18490516328041395  1.0000
  O   O4        1.0  0.9689746982218548  0.35710998528100024  0.6040367394790587  1.0000
  O   O5        1.0  0.9696543288845767  0.5510259821949781  0.38682611986224796  1.0000
  O   O6        1.0  0.9695139649329808  0.1735417782368833  0.4021156757351152  1.0000
  O   O7        1.0  0.8446969808790854  0.5569663337538913  0.388865443735279  1.0000
  O   O8        1.0  0.8440173508434146  0.36305189648928077  0.6060759866663774  1.0000
  O   O9        1.0  0.8452363091537748  0.3733996157121551  0.1869426774043399  1.0000
  O   O10       1.0  0.8445566223086035  0.17948362147068764  0.40415329793030375  1.0000
