data_image0
_chemical_formula_structural       NC9NC3NH7C7NC2NH8C6NO2H3Zn2C4O8
_chemical_formula_sum              "N6 C31 H18 O10 Zn2"
_cell_length_a       16.053384444249904
_cell_length_b       9.273995741505848
_cell_length_c       9.273395971720356
_cell_angle_alpha    85.10796789348095
_cell_angle_beta     89.67931749283619
_cell_angle_gamma    89.75855226915094

_space_group_name_H-M_alt    "P 1"
_space_group_IT_number       1

loop_
  _space_group_symop_operation_xyz
  'x, y, z'

loop_
  _atom_site_type_symbol
  _atom_site_label
  _atom_site_symmetry_multiplicity
  _atom_site_fract_x
  _atom_site_fract_y
  _atom_site_fract_z
  _atom_site_occupancy
  N   N1        1.0  0.7955004158087874  0.575361617816365  0.4082329460891023  1.0000
  C   C1        1.0  0.7447114527017383  0.5531213757883156  0.3249776144245249  1.0000
  C   C2        1.0  0.6815946355846163  0.5254874023481682  0.22155418155824355  1.0000
  C   C3        1.0  0.6953110654417345  0.5135914403314688  0.07620269411011327  1.0000
  C   C4        1.0  0.6185927718090408  0.48607686306343795  0.018049661399378136  1.0000
  C   C5        1.0  0.5613460860439077  0.48271878289126  0.13105873941810953  1.0000
  C   C6        1.0  0.4705521768570265  0.45638970386765965  0.11960311907049226  1.0000
  C   C7        1.0  0.4148070837828137  0.5027245113582939  0.2241043935564142  1.0000
  C   C8        1.0  0.3291245022448546  0.47775495002457125  0.21313269138825586  1.0000
  C   C9        1.0  0.272607494822993  0.5259995297783149  0.32027530017723627  1.0000
  N   N2        1.0  0.2271844634340153  0.5647813859944055  0.4064011805929435  1.0000
  C   C10       1.0  0.2984602345556147  0.4063260921419468  0.0976746457476112  1.0000
  C   C11       1.0  0.353197267979973  0.3601216359893713  0.9934089842943834  1.0000
  C   C12       1.0  0.4386733423932913  0.3849117907941837  0.003939402570803054  1.0000
  N   N3        1.0  0.6005327001169051  0.5069323215761279  0.2551224540269066  1.0000
  H   H1        1.0  0.7541721455397065  0.5237760096557377  0.018852041709170216  1.0000
  H   H2        1.0  0.6063802927888984  0.47195612005190124  0.9055488762188953  1.0000
  H   H3        1.0  0.4373584658019513  0.5600430986752447  0.312949957546788  1.0000
  H   H4        1.0  0.23233222103789142  0.3864761823578742  0.08825182419975097  1.0000
  H   H5        1.0  0.3293665805357593  0.30462852063338675  0.9043080042406925  1.0000
  H   H6        1.0  0.4796610197384  0.3464076969094998  0.9224221427458353  1.0000
  H   H7        1.0  0.5742578804120193  0.5084873150500331  0.35823671194629636  1.0000
  C   C13       1.0  0.008856500930206401  0.14665447097165152  0.406273041998062  1.0000
  C   C14       1.0  0.023637049207605457  0.23089090666228795  0.2756593765419777  1.0000
  C   C15       1.0  0.04586459135050225  0.1665376574709896  0.15042873240775934  1.0000
  C   C16       1.0  0.054236826764005874  0.015867183099943723  0.15223338712536405  1.0000
  C   C17       1.0  0.037708584514561265  0.9304084655329412  0.2816585992336884  1.0000
  C   C18       1.0  0.013836251997772837  0.9934771017310621  0.4083734573357438  1.0000
  C   C19       1.0  0.07881130763276567  0.949667535165219  0.017980603445808322  1.0000
  N   N4        1.0  0.08200180051590644  0.02524286150921307  0.8867918750753758  1.0000
  C   C20       1.0  0.10709493656207103  0.9276878867826239  0.7958938167243548  1.0000
  C   C21       1.0  0.11888913358819742  0.7956845862986309  0.8724796421778946  1.0000
  N   N5        1.0  0.10113740188677012  0.8096618466655915  0.012132411504550243  1.0000
  H   H8        1.0  0.9410589287822615  0.41074957728951383  0.6143237325681081  1.0000
  H   H9        1.0  0.020018196564510315  0.34787207068007747  0.2710187484959621  1.0000
  H   H10       1.0  0.05773750802058952  0.23547003402971756  0.052312940170307076  1.0000
  H   H11       1.0  0.040526774531294496  0.8137564137324527  0.2836471912893965  1.0000
  H   H12       1.0  0.014640320484702762  0.6929212793420326  0.648433562451576  1.0000
  H   H13       1.0  0.11644773451873586  0.9516814412796333  0.6807593637398757  1.0000
  H   H14       1.0  0.13939790986862133  0.6965170559240329  0.8295981381306126  1.0000
  H   H15       1.0  0.1055639621037039  0.728131977385902  0.09649655632048337  1.0000
  C   C22       1.0  0.011846439536921773  0.5744837095721287  0.9833955260360807  1.0000
  C   C23       1.0  0.9377989924306644  0.6092137104432305  0.054378885087683175  1.0000
  C   C24       1.0  0.863438217296258  0.6303156951537134  0.9783132940723368  1.0000
  C   C25       1.0  0.8610143503113447  0.6171266464095805  0.8289957545492252  1.0000
  C   C26       1.0  0.9350318133743531  0.5848683627114643  0.7565810345017354  1.0000
  C   C27       1.0  0.01084628989337566  0.5656479115913438  0.8312510243509603  1.0000
  N   N6        1.0  0.7839060328272052  0.637815389537628  0.7512325339690413  1.0000
  O   O1        1.0  0.7117005098795105  0.6705768161203309  0.8223911528636845  1.0000
  O   O2        1.0  0.7811834082702832  0.6259977697761463  0.6182187750661052  1.0000
  H   H16       1.0  0.1931640997700652  0.4084852091997917  0.09864339942431277  1.0000
  H   H17       1.0  0.8075203099012029  0.6555984173191883  0.036993454495866995  1.0000
  H   H18       1.0  0.134505543636821  0.45806560040934907  0.5590151261881169  1.0000
  Zn  Zn1       1.0  0.9200750723573338  0.5723044592590331  0.4077126575977126  1.0000
  Zn  Zn2       1.0  0.10260970042984609  0.5678266746461693  0.40693323869136  1.0000
  C   C28       1.0  0.010999719793254988  0.5615740108076064  0.6709739221469013  1.0000
  C   C29       1.0  0.011687056797580867  0.5785588920098976  0.14367211183452233  1.0000
  C   C30       1.0  0.012897470328142372  0.8334696969576068  0.4022237810337872  1.0000
  C   C31       1.0  0.009789233698585201  0.3066614742514619  0.41242232588205363  1.0000
  O   O3        1.0  0.08090446956970787  0.5782209741190549  0.1971665971575416  1.0000
  O   O4        1.0  0.08032186025809374  0.5585123103747551  0.6168874576451266  1.0000
  O   O5        1.0  0.08185338223927574  0.778071522795235  0.39986982495052525  1.0000
  O   O6        1.0  0.0793728854901572  0.35866177466907767  0.41418412190250664  1.0000
  O   O7        1.0  0.9433118250069307  0.781469360765822  0.40046177464495414  1.0000
  O   O8        1.0  0.941780313299765  0.561911881483474  0.6174793346635263  1.0000
  O   O9        1.0  0.9423629244186698  0.5816205130684922  0.19775673840604768  1.0000
  O   O10       1.0  0.9408313401473954  0.36206130217770927  0.4147743713590375  1.0000
