data_image0
_chemical_formula_structural       NC8NH4C6ClH5C6NCH8Zn2C4O8
_chemical_formula_sum              "N3 C25 H17 Cl1 Zn2 O8"
_cell_length_a       13.859017981522156
_cell_length_b       9.276545438789551
_cell_length_c       9.274690524155615
_cell_angle_alpha    86.08901854457557
_cell_angle_beta     89.68735533555713
_cell_angle_gamma    89.4096370293992

_space_group_name_H-M_alt    "P 1"
_space_group_IT_number       1

loop_
  _space_group_symop_operation_xyz
  'x, y, z'

loop_
  _atom_site_type_symbol
  _atom_site_label
  _atom_site_symmetry_multiplicity
  _atom_site_fract_x
  _atom_site_fract_y
  _atom_site_fract_z
  _atom_site_occupancy
  N   N1        1.0  0.9036037874916223  0.5642002159568205  0.411103563489682  1.0000
  C   C1        1.0  0.8315252650427732  0.5566356962959631  0.3497924258797131  1.0000
  C   C2        1.0  0.7418638193791113  0.547226795623875  0.27352934879021085  1.0000
  C   C3        1.0  0.7423509668195126  0.5288785408069203  0.12481260687696483  1.0000
  C   C4        1.0  0.6552517876399495  0.5197421373992956  0.05075135835764666  1.0000
  C   C5        1.0  0.5674856799074156  0.5288802608195224  0.12481235961666372  1.0000
  C   C6        1.0  0.5666335764571712  0.5472277671900323  0.27352916559208595  1.0000
  C   C7        1.0  0.653914008269236  0.5563998525732712  0.347876389743051  1.0000
  C   C8        1.0  0.4762854429330874  0.5566365978630792  0.3497921860119253  1.0000
  N   N2        1.0  0.40365487001073896  0.5642005285920555  0.4111034700802253  1.0000
  H   H1        1.0  0.8099099322523113  0.5216583745001795  0.06629413751399715  1.0000
  H   H2        1.0  0.6557689940570562  0.5055691589184976  0.9358740744442575  1.0000
  H   H3        1.0  0.5004536427130457  0.5216614682615812  0.06629371942509033  1.0000
  H   H4        1.0  0.6533957439665221  0.5706014203536309  0.46298722665615366  1.0000
  C   C9        1.0  0.15654692528300318  0.14076317264109273  0.4108659186152152  1.0000
  C   C10       1.0  0.15739668209707783  0.22325428873536166  0.2778339953020064  1.0000
  C   C11       1.0  0.14945744304147038  0.1570397941339463  0.1476975371970004  1.0000
  C   C12       1.0  0.1404765158397181  0.007456437552500356  0.14859088494365036  1.0000
  C   C13       1.0  0.14112430581161184  0.9234056088658336  0.2791810053377122  1.0000
  C   C14       1.0  0.15072102665745835  0.9876266498620561  0.41135357710446185  1.0000
  Cl  Cl1       1.0  0.14930914387097616  0.2622259764694436  0.9831520327691994  1.0000
  H   H5        1.0  0.20507002906315308  0.4056987228394097  0.6374669318415414  1.0000
  H   H6        1.0  0.1619282809913114  0.3399499674165243  0.2749804084469572  1.0000
  H   H7        1.0  0.13391226720881866  0.955856654690104  0.04790955038953194  1.0000
  H   H8        1.0  0.1364167168988697  0.8071220230622999  0.27653068485209126  1.0000
  H   H9        1.0  0.11752675866670863  0.6909239133037841  0.6444157889020927  1.0000
  C   C15       1.0  0.15520433828813945  0.5605031078326139  0.9878603213458824  1.0000
  C   C16       1.0  0.2331682243647111  0.6228783716850836  0.05663359512414368  1.0000
  C   C17       1.0  0.3060950423548703  0.6961741451817587  0.9761779887418092  1.0000
  C   C18       1.0  0.30030514983422135  0.7068252646118569  0.8252876621584013  1.0000
  C   C19       1.0  0.22440618801210535  0.6435909250751259  0.7553032081175461  1.0000
  C   C20       1.0  0.15206355451480946  0.56788666499001  0.8343591201321701  1.0000
  N   N3        1.0  0.38594237584630836  0.7616108905855257  0.04493744359615292  1.0000
  C   C21       1.0  0.3990721784998539  0.7565349711615978  0.20121606598061686  1.0000
  H   H10       1.0  0.046265037553753  0.3866906604560423  0.2807590340444439  1.0000
  H   H11       1.0  0.3554947421667629  0.7632706319824127  0.7612615948049173  1.0000
  H   H12       1.0  0.22362357349612227  0.6510306399656827  0.6382347772850587  1.0000
  H   H13       1.0  4.82061905693323e-05  0.5002395521592922  0.558882014933594  1.0000
  H   H14       1.0  0.4380688103769512  0.8155486192773493  0.9803343450499763  1.0000
  H   H15       1.0  0.46620545008392905  0.813669359072827  0.2269272675977139  1.0000
  H   H16       1.0  0.4052565347587682  0.6425409263465616  0.24537507583421242  1.0000
  H   H17       1.0  0.33716032416230046  0.8105922176913776  0.2524492210708744  1.0000
  Zn  Zn1       1.0  0.04790772982302483  0.5641965282413468  0.4111118537202967  1.0000
  Zn  Zn2       1.0  0.2593509675639898  0.5641925542381281  0.4111069658014217  1.0000
  C   C22       1.0  0.15269462303018555  0.5607466409245006  0.6743494466928412  1.0000
  C   C23       1.0  0.15456637026931744  0.5676442621192326  0.1478695152874821  1.0000
  C   C24       1.0  0.15183857016188052  0.8275012954526151  0.40551789893753054  1.0000
  C   C25       1.0  0.1554223626197322  0.30088787584505106  0.4167011388890472  1.0000
  O   O1        1.0  0.2345939124277597  0.5700330998970358  0.2015682039142237  1.0000
  O   O2        1.0  0.2331476148764322  0.558353695556737  0.6206466327219862  1.0000
  O   O3        1.0  0.23245525410326717  0.7737614657537197  0.40356325677011884  1.0000
  O   O4        1.0  0.2352862013796724  0.35462533907380356  0.4186514718057096  1.0000
  O   O5        1.0  0.07197242385215952  0.7737637434085314  0.40356734771009656  1.0000
  O   O6        1.0  0.07266477298803344  0.5583577049604747  0.6206506478097966  1.0000
  O   O7        1.0  0.0741110773786362  0.5700370439377771  0.20157048610523942  1.0000
  O   O8        1.0  0.07480336599661941  0.35462927374365405  0.4186538620511954  1.0000
