data_image0
_chemical_formula_structural       NC10NC4H10C7ONCOCH8C7ONC2H11Zn2C4O8
_chemical_formula_sum              "N4 C36 H29 O11 Zn2"
_cell_length_a       19.28451875052605
_cell_length_b       10.298653850160019
_cell_length_c       10.300139412416756
_cell_angle_alpha    85.55625601834906
_cell_angle_beta     89.85094865226786
_cell_angle_gamma    90.12269427578862

_space_group_name_H-M_alt    "P 1"
_space_group_IT_number       1

loop_
  _space_group_symop_operation_xyz
  'x, y, z'

loop_
  _atom_site_type_symbol
  _atom_site_label
  _atom_site_symmetry_multiplicity
  _atom_site_fract_x
  _atom_site_fract_y
  _atom_site_fract_z
  _atom_site_occupancy
  N   N1        1.0  0.6534461673450893  0.4243511435520329  0.5649211836632411  1.0000
  C   C1        1.0  0.5934532996342549  0.4228462111275484  0.5676000526115601  1.0000
  C   C2        1.0  0.5187740524302721  0.42101322550386566  0.5709801114437834  1.0000
  C   C3        1.0  0.48337838212279133  0.35555531853510924  0.4852844828929785  1.0000
  C   C4        1.0  0.4068808773784563  0.3533227032521221  0.48712861457201484  1.0000
  C   C5        1.0  0.3706456713198097  0.43244263227200275  0.5602145001365693  1.0000
  C   C6        1.0  0.2935088835460904  0.4306629415993425  0.5600987041642338  1.0000
  C   C7        1.0  0.2567765322415898  0.3123764965827634  0.5593856637292185  1.0000
  C   C8        1.0  0.1842776378700651  0.3112342569047244  0.5601144683665229  1.0000
  C   C9        1.0  0.1474676397196682  0.4280169693099789  0.561862726157569  1.0000
  C   C10       1.0  0.07282355551956382  0.42671279445809307  0.5626205066830181  1.0000
  N   N2        1.0  0.0128151900797698  0.42566452355487333  0.5632298035539072  1.0000
  C   C11       1.0  0.1834328031113383  0.5460486252530858  0.5631460057188031  1.0000
  C   C12       1.0  0.2559329330432756  0.5474533442853262  0.5625087459662905  1.0000
  C   C13       1.0  0.4092588595172386  0.5331508098185267  0.6322651240899806  1.0000
  C   C14       1.0  0.4809215599273297  0.48360042187450497  0.6780277138872501  1.0000
  H   H1        1.0  0.5104340673151958  0.3036502824867884  0.41290273309113085  1.0000
  H   H2        1.0  0.3806032038713589  0.28792856617021406  0.42602430173684613  1.0000
  H   H3        1.0  0.2840694470860573  0.22056367091985724  0.5600968217295517  1.0000
  H   H4        1.0  0.1569577595320713  0.2192197677598411  0.5597737934703648  1.0000
  H   H5        1.0  0.1554492534113055  0.6370560784937442  0.5644716336019111  1.0000
  H   H6        1.0  0.2825325953417923  0.640133071804401  0.5624334673409941  1.0000
  H   H7        1.0  0.3789142088343174  0.5584309862093366  0.7186390971436585  1.0000
  H   H8        1.0  0.4158060856216736  0.6228293044023573  0.5660306956212062  1.0000
  H   H9        1.0  0.4742435655432453  0.40991010874924055  0.7618780872506175  1.0000
  H   H10       1.0  0.5116920807704973  0.5660796784168871  0.7114151300559366  1.0000
  C   C15       1.0  0.8330497069173737  0.043609695273081124  0.563959719080082  1.0000
  C   C16       1.0  0.8192874277820833  0.05283186224207049  0.4296384022476445  1.0000
  C   C17       1.0  0.8118964789619102  0.9402765377521404  0.36195118733470655  1.0000
  C   C18       1.0  0.8194875893052719  0.8175406025563055  0.4299868889910547  1.0000
  C   C19       1.0  0.8332183012902342  0.8063959462528401  0.5642024651439708  1.0000
  C   C20       1.0  0.8397698058838138  0.9200185061089392  0.6304537840299129  1.0000
  C   C21       1.0  0.7976254996561666  0.949796797558103  0.22005590357145402  1.0000
  O   O1        1.0  0.8147522018959775  0.8568591886111734  0.1538337391381117  1.0000
  N   N3        1.0  0.7631618054430716  0.06179878127577299  0.15815846707836423  1.0000
  C   C22       1.0  0.7600835624057283  0.08974406680893554  0.019526614430607433  1.0000
  O   O2        1.0  0.7940942181874278  0.02279697359781019  0.9442106093967579  1.0000
  C   C23       1.0  0.718472924720788  0.2027973017014677  0.9636731993078675  1.0000
  H   H11       1.0  0.860109809549449  0.23349578219813605  0.8171281113446144  1.0000
  H   H12       1.0  0.8156220754822235  0.14795558716529755  0.3775954327100255  1.0000
  H   H13       1.0  0.8140512174036139  0.730435354985574  0.37826191356271566  1.0000
  H   H14       1.0  0.8503572047185636  0.9121551540848835  0.7339754746190508  1.0000
  H   H15       1.0  0.8390760495007874  0.47463973918765967  0.6156819654113446  1.0000
  H   H16       1.0  0.7369893791274634  0.12466219528664202  0.21618319510213535  1.0000
  H   H17       1.0  0.7458921284265004  0.2948170028162216  0.9805196552578174  1.0000
  H   H18       1.0  0.7110882345362987  0.1970845815840505  0.8573487261500468  1.0000
  C   C24       1.0  0.8331822183568335  0.425154506317202  0.18272172313873192  1.0000
  C   C25       1.0  0.7655883658674929  0.3740232940501909  0.1861660327439938  1.0000
  C   C26       1.0  0.731136861278561  0.3498434273411877  0.07072012065287847  1.0000
  C   C27       1.0  0.7654248368182806  0.3737561300299932  0.9509854818070256  1.0000
  C   C28       1.0  0.8330857983277782  0.4248511767509917  0.9454404694727415  1.0000
  C   C29       1.0  0.8664759358008071  0.4506690877939623  0.061798296045123324  1.0000
  C   C30       1.0  0.6602111786474505  0.2947907928084388  0.07482539958149537  1.0000
  O   O3        1.0  0.6460834230130039  0.20460355110130915  0.002948161855981016  1.0000
  N   N4        1.0  0.6070899198525765  0.34215961381770765  0.1577686701822134  1.0000
  C   C31       1.0  0.5491018216717012  0.25620976603773943  0.19858847745813238  1.0000
  C   C32       1.0  0.6066364319415714  0.47896713822727843  0.18828823090350544  1.0000
  H   H19       1.0  0.8592702955414894  0.44366802395204935  0.5089155015417701  1.0000
  H   H20       1.0  0.7400248384935316  0.3507415508626204  0.27881414054234455  1.0000
  H   H21       1.0  0.7389232845694648  0.3536274460886064  0.8620668632948849  1.0000
  H   H22       1.0  0.9186094384685155  0.4901296501927242  0.05837356181741681  1.0000
  H   H23       1.0  0.9608898751856899  0.5203906971479504  0.7278033502439558  1.0000
  H   H24       1.0  0.5137931561531973  0.3025904750648254  0.26659007219713904  1.0000
  H   H25       1.0  0.5188957667436535  0.2318014036085905  0.11208626131164624  1.0000
  H   H26       1.0  0.5693179014638323  0.1651186711659425  0.2494852532520837  1.0000
  H   H27       1.0  0.5551329706818903  0.5076095200814579  0.22498615050784432  1.0000
  H   H28       1.0  0.645662367122208  0.49535679922937975  0.26412289880993  1.0000
  H   H29       1.0  0.6183728404291552  0.5431126870850944  0.09920575340824068  1.0000
  Zn  Zn1       1.0  0.7571523091273284  0.42472667263834296  0.5644405780293813  1.0000
  Zn  Zn2       1.0  0.9091090535784473  0.4252783489044401  0.5637210148906149  1.0000
  C   C33       1.0  0.8331013204990524  0.4197344214464265  0.8012686279294787  1.0000
  C   C34       1.0  0.8331617019157217  0.43027224481506887  0.3268930851176206  1.0000
  C   C35       1.0  0.8331835135691922  0.6622151762040355  0.5589815352652103  1.0000
  C   C36       1.0  0.8330794566397328  0.18778992941956021  0.5691802467677893  1.0000
  O   O4        1.0  0.8908216077483159  0.4321934966984986  0.3750052389552714  1.0000
  O   O5        1.0  0.8907730674958455  0.4182308994351647  0.7526099681706222  1.0000
  O   O6        1.0  0.890838661892778  0.6140371721303214  0.5569614307337416  1.0000
  O   O7        1.0  0.8907559615132048  0.23638723314475207  0.5706536792684191  1.0000
  O   O8        1.0  0.775505349337193  0.6136177882111878  0.5575079138902983  1.0000
  O   O9        1.0  0.7754397552907315  0.41781307596708694  0.7531563825799998  1.0000
  O   O10       1.0  0.7754882957767291  0.4317756285921282  0.37555009198847755  1.0000
  O   O11       1.0  0.7754226495244186  0.23596935571012811  0.571198629664079  1.0000
