data_image0
_chemical_formula_structural       NC9NC5H8C6ClH5C6OCH7Zn2C4O8
_chemical_formula_sum              "N2 C31 H20 Cl1 O9 Zn2"
_cell_length_a       17.807436237873137
_cell_length_b       10.30297070629231
_cell_length_c       9.273891588657152
_cell_angle_alpha    86.0762958320409
_cell_angle_beta     89.08663702953788
_cell_angle_gamma    88.39001192287226

_space_group_name_H-M_alt    "P 1"
_space_group_IT_number       1

loop_
  _space_group_symop_operation_xyz
  'x, y, z'

loop_
  _atom_site_type_symbol
  _atom_site_label
  _atom_site_symmetry_multiplicity
  _atom_site_fract_x
  _atom_site_fract_y
  _atom_site_fract_z
  _atom_site_occupancy
  N   N1        1.0  0.712068528650901  0.3740903002826192  0.3985037139846235  1.0000
  C   C1        1.0  0.6515165891588423  0.3388108291134808  0.38626782619487904  1.0000
  C   C2        1.0  0.5761966316989756  0.2949270520014197  0.3710477103430301  1.0000
  C   C3        1.0  0.5584441726901076  0.22257272910280007  0.25450099590505604  1.0000
  C   C4        1.0  0.48531264664224705  0.17985274394450254  0.23963153187080222  1.0000
  C   C5        1.0  0.42888496591468617  0.20910937554446463  0.34127276273449997  1.0000
  C   C6        1.0  0.3511647407129629  0.16382466572770912  0.32556147077418407  1.0000
  C   C7        1.0  0.2889046454358157  0.24579233360538155  0.3543521081876746  1.0000
  C   C8        1.0  0.21563077039842188  0.2028695007162191  0.339497829237317  1.0000
  C   C9        1.0  0.15231941030033466  0.2875309933890293  0.3686923779253013  1.0000
  N   N2        1.0  0.1014300674203698  0.35559298629517494  0.3921639887108912  1.0000
  C   C10       1.0  0.20403352765503288  0.07772087031069219  0.2958247760678567  1.0000
  C   C11       1.0  0.2654362801937629  0.9957392776972852  0.2670248265996813  1.0000
  C   C12       1.0  0.3385913770857777  0.038265840029080955  0.2816543002174745  1.0000
  C   C13       1.0  0.4473281216620651  0.28195991532337517  0.4580628088211733  1.0000
  C   C14       1.0  0.5205130215133845  0.32448814083771005  0.47275951000353195  1.0000
  H   H1        1.0  0.601070582890713  0.19943760838771785  0.17490424810470404  1.0000
  H   H2        1.0  0.47266776720051834  0.1254278692733175  0.14759491132469638  1.0000
  H   H3        1.0  0.2973088800441656  0.3434905951590761  0.3864038785181411  1.0000
  H   H4        1.0  0.14760270848431434  0.043598644759499594  0.28406509618401693  1.0000
  H   H5        1.0  0.256337575649381  0.8988498536357746  0.23364067412933084  1.0000
  H   H6        1.0  0.385293709357153  0.9723673296525396  0.26051172499647984  1.0000
  H   H7        1.0  0.4054144132946973  0.30456802079919854  0.5390963697553282  1.0000
  H   H8        1.0  0.5336896126033713  0.3801236658095361  0.5636399895877544  1.0000
  C   C15       1.0  0.9067528556065475  0.9835940924593317  0.3953400343164788  1.0000
  C   C16       1.0  0.9842512444886263  0.9769949043085839  0.42184108726039166  1.0000
  C   C17       1.0  0.02270387688025766  0.8567637185408028  0.434990101647171  1.0000
  C   C18       1.0  0.9842512440859431  0.741886935107034  0.42184101947805575  1.0000
  C   C19       1.0  0.906752863384582  0.7460790345729051  0.3953401167016943  1.0000
  C   C20       1.0  0.8683814386881604  0.8675081298639798  0.3822187392502706  1.0000
  Cl  Cl1       1.0  0.1195178293401038  0.8500232763647199  0.46809613141404727  1.0000
  H   H9        1.0  0.8775605721968768  0.3133830027114939  0.38535674480303683  1.0000
  H   H10       1.0  0.015074237539102196  0.06489551028831775  0.4323810763146163  1.0000
  H   H11       1.0  0.015074208128969441  0.6496943180159904  0.4323809732347357  1.0000
  H   H12       1.0  0.8086123294628995  0.8716692965253634  0.3617802865590789  1.0000
  H   H13       1.0  0.8775605677416604  0.4203550384580367  0.3853570170131097  1.0000
  C   C21       1.0  0.9079836676718736  0.3613396859928287  0.9720446771493574  1.0000
  C   C22       1.0  0.9695106588784386  0.41325281213393156  0.03961658393936652  1.0000
  C   C23       1.0  0.026776039117842657  0.4750628739366386  0.958874433620076  1.0000
  C   C24       1.0  0.022719202716404714  0.48527539687880655  0.8074998754894027  1.0000
  C   C25       1.0  0.962770632702018  0.4325011816114414  0.7385600705869795  1.0000
  C   C26       1.0  0.9055220505879916  0.3683333570666744  0.8186353986811472  1.0000
  O   O1        1.0  0.086251244841399  0.525475002823966  0.033112655695815216  1.0000
  C   C27       1.0  0.14811944352260586  0.5908614253623593  0.9650289360532901  1.0000
  H   H14       1.0  0.7292794370631458  0.2900901965380922  0.08597161354066474  1.0000
  H   H15       1.0  0.0659983924672205  0.5327950200227127  0.7418730605898474  1.0000
  H   H16       1.0  0.962164417737936  0.43922109947428134  0.6214887652159938  1.0000
  H   H17       1.0  0.786350043917754  0.31516319821011146  0.545133132256022  1.0000
  H   H18       1.0  0.12795211156704522  0.6796747543561601  0.9009617300812142  1.0000
  H   H19       1.0  0.1794457909664639  0.5249401134271543  0.8941062035719898  1.0000
  H   H20       1.0  0.1865781412951566  0.6200664665146775  0.049246289539846444  1.0000
  Zn  Zn1       1.0  0.8244298326348176  0.3687489797156537  0.39668254272050985  1.0000
  Zn  Zn2       1.0  0.9890687107820768  0.3609238219562809  0.39399701033851153  1.0000
  C   C28       1.0  0.9059856852059592  0.3618394903195603  0.6586116699233131  1.0000
  C   C29       1.0  0.9075146556510411  0.36783486516831876  0.1320679952895405  1.0000
  C   C30       1.0  0.9067657097585519  0.6019058511024791  0.38959600838858344  1.0000
  C   C31       1.0  0.9067345746952022  0.12776694788484774  0.4010837345910927  1.0000
  O   O2        1.0  0.969836847166355  0.36703943610849743  0.18475413714502847  1.0000
  O   O3        1.0  0.9686205939265811  0.35669482286351983  0.6038868561833886  1.0000
  O   O4        1.0  0.9692496270046014  0.5505514976629011  0.38665481990247885  1.0000
  O   O5        1.0  0.9692077582224977  0.1731827723737243  0.4019860662626065  1.0000
  O   O6        1.0  0.8442907290112495  0.5564900319699033  0.38869348770527273  1.0000
  O   O7        1.0  0.8436616961533285  0.36263491634276684  0.6059254471282185  1.0000
  O   O8        1.0  0.844877954482211  0.3729794700269784  0.18679099503304528  1.0000
  O   O9        1.0  0.8442488652210438  0.17912279789929023  0.40402303222281355  1.0000
