data_image0
_chemical_formula_structural       NC5NC4H6C7NH5C7F3H5Zn2C4O8
_chemical_formula_sum              "N3 C27 H16 F3 Zn2 O8"
_cell_length_a       13.854160002989762
_cell_length_b       9.275154477615127
_cell_length_c       9.272721663655245
_cell_angle_alpha    86.10781498077147
_cell_angle_beta     90.51618417104903
_cell_angle_gamma    89.43370676253429

_space_group_name_H-M_alt    "P 1"
_space_group_IT_number       1

loop_
  _space_group_symop_operation_xyz
  'x, y, z'

loop_
  _atom_site_type_symbol
  _atom_site_label
  _atom_site_symmetry_multiplicity
  _atom_site_fract_x
  _atom_site_fract_y
  _atom_site_fract_z
  _atom_site_occupancy
  N   N1        1.0  0.8889728495668393  0.5691382496748016  0.41567434689146626  1.0000
  C   C1        1.0  0.8161200048166725  0.5940171536223868  0.3567102347658986  1.0000
  C   C2        1.0  0.7254900296547316  0.6249671812854702  0.28335662044743454  1.0000
  C   C3        1.0  0.6385431304471048  0.5958881191764237  0.3549844327105421  1.0000
  C   C4        1.0  0.5503476170501125  0.6249671954829958  0.2833565973247445  1.0000
  C   C5        1.0  0.4610118649725683  0.5940170068495818  0.3567103258305513  1.0000
  N   N2        1.0  0.3891992793870089  0.5691381861949023  0.4156743465526711  1.0000
  C   C6        1.0  0.549127754321207  0.6837316611973758  0.1401223577978079  1.0000
  C   C7        1.0  0.6360271289626054  0.71495968363392  0.0683996118011061  1.0000
  C   C8        1.0  0.6347041517253046  0.7739017820466205  0.9136738629069906  1.0000
  C   C9        1.0  0.7242048428243854  0.6837316593739338  0.14012226748706594  1.0000
  H   H1        1.0  0.6395133196205491  0.5502943018260218  0.4658446624240571  1.0000
  H   H2        1.0  0.4807775650861093  0.705204844121514  0.08454248139871501  1.0000
  H   H3        1.0  0.6989665633128058  0.841912269180755  0.8901506726656102  1.0000
  H   H4        1.0  0.5692580860319505  0.8419122714164677  0.8901507377775443  1.0000
  H   H5        1.0  0.6348718760505321  0.6830072950582655  0.8417386767416133  1.0000
  H   H6        1.0  0.7916005229145778  0.705204956102373  0.08454239639318706  1.0000
  C   C10       1.0  0.1418738228599121  0.14573970285501378  0.4140057205658758  1.0000
  C   C11       1.0  0.11461737550492646  0.22821665592945498  0.28686590759497177  1.0000
  C   C12       1.0  0.07955022714228144  0.16151329352269728  0.16646087936298917  1.0000
  C   C13       1.0  0.07116551359690582  0.011422131873381586  0.17177763380171673  1.0000
  C   C14       1.0  0.09929918763676232  0.9277214990309757  0.2960193960988191  1.0000
  C   C15       1.0  0.13630770251705224  0.9925257208830306  0.41735547852024135  1.0000
  C   C16       1.0  0.05100044620691069  0.24756359652378612  0.03778870003254742  1.0000
  N   N3        1.0  0.02805432516834339  0.3167323161133586  0.934369226933256  1.0000
  H   H7        1.0  0.16271109288702168  0.22436549186581137  0.7679610039646034  1.0000
  H   H8        1.0  0.11853363925854096  0.34515242720690953  0.2825873543713344  1.0000
  H   H9        1.0  0.04369989511338155  0.958784510023303  0.07923880752979207  1.0000
  H   H10       1.0  0.094229941237989  0.8112532028386844  0.29589249305427523  1.0000
  H   H11       1.0  0.1544270114772527  0.6950652006313228  0.6545155868557178  1.0000
  C   C17       1.0  0.13655227776393208  0.566794173390156  0.9922281015879464  1.0000
  C   C18       1.0  0.17840780889128316  0.44886231057352366  0.07448392787634117  1.0000
  C   C19       1.0  0.22866692734380578  0.33950664939676356  0.008146337230845456  1.0000
  C   C20       1.0  0.23412591251711817  0.3461460376325196  0.8570227828929489  1.0000
  C   C21       1.0  0.1917180658018412  0.46107602441549494  0.7737867797697899  1.0000
  C   C22       1.0  0.14162926459494107  0.5714712484020061  0.8391330315487409  1.0000
  C   C23       1.0  0.27081349991041076  0.21203937905655956  0.09798946022303227  1.0000
  F   F1        1.0  0.30304402447093925  0.2539438442022701  0.23038817801962486  1.0000
  F   F2        1.0  0.34814531422509354  0.15240197516090118  0.028633636543861977  1.0000
  F   F3        1.0  0.20063205864134903  0.1082576309986647  0.12061462307029003  1.0000
  H   H12       1.0  0.07311186191177477  0.9101302052516983  0.06980565776486314  1.0000
  H   H13       1.0  0.17362190272819156  0.4437399928964887  0.19130929817376074  1.0000
  H   H14       1.0  0.2703588683914  0.2614490398154852  0.8027798811515339  1.0000
  H   H15       1.0  0.19585114362128864  0.4615371568730698  0.6571339867725916  1.0000
  H   H16       1.0  0.9668165216158541  0.8146550798242731  0.7188041571136585  1.0000
  Zn  Zn1       1.0  0.03332747262748923  0.5691344172336652  0.4156826677134646  1.0000
  Zn  Zn2       1.0  0.24484480604978787  0.5691302854948881  0.41567782177905355  1.0000
  C   C24       1.0  0.1407051881698411  0.5648433076513555  0.6790271614214142  1.0000
  C   C25       1.0  0.13746938916050455  0.5734232150210541  0.1523334767468103  1.0000
  C   C26       1.0  0.13732039791142858  0.8324333852334898  0.41097602223798463  1.0000
  C   C27       1.0  0.14085411909025566  0.30583140560564237  0.4203846859584486  1.0000
  O   O1        1.0  0.2180469471716593  0.5756401238288305  0.20606443934138508  1.0000
  O   O2        1.0  0.2206643967095372  0.5626221729620169  0.6252921014725907  1.0000
  O   O3        1.0  0.21793006268351228  0.7787045530495784  0.40883891603091316  1.0000
  O   O4        1.0  0.22078120830520054  0.3595577534596568  0.4225175167056814  1.0000
  O   O5        1.0  0.057390998191535904  0.7787069492718341  0.40884297278091153  1.0000
  O   O6        1.0  0.06012532036568084  0.5626263010204882  0.6252960881884562  1.0000
  O   O7        1.0  0.05750786082920745  0.5756441920694033  0.20606669215928486  1.0000
  O   O8        1.0  0.06024212267469119  0.3595618119847801  0.4225198775950379  1.0000
