data_image0
_chemical_formula_structural       NC8NC6H8C7ONH7C8NH6Zn2C4O8
_chemical_formula_sum              "N4 C33 H21 O9 Zn2"
_cell_length_a       17.457602349358154
_cell_length_b       10.297852080636378
_cell_length_c       9.274266800404106
_cell_angle_alpha    85.98589005779941
_cell_angle_beta     92.41618932719734
_cell_angle_gamma    91.66731456120219

_space_group_name_H-M_alt    "P 1"
_space_group_IT_number       1

loop_
  _space_group_symop_operation_xyz
  'x, y, z'

loop_
  _atom_site_type_symbol
  _atom_site_label
  _atom_site_symmetry_multiplicity
  _atom_site_fract_x
  _atom_site_fract_y
  _atom_site_fract_z
  _atom_site_occupancy
  N   N1        1.0  0.7284682669293984  0.4431258178092623  0.4759903548360997  1.0000
  C   C1        1.0  0.667449293860866  0.3971162420707485  0.4642127638166094  1.0000
  C   C2        1.0  0.5915390629580412  0.33988611424848814  0.4495720278064319  1.0000
  C   C3        1.0  0.5326552981296585  0.38059678105867834  0.5326743685166064  1.0000
  C   C4        1.0  0.4581798531060674  0.3254897104718714  0.5187153332561543  1.0000
  C   C5        1.0  0.3956842528707828  0.3684759059276839  0.6067238671346062  1.0000
  C   C6        1.0  0.32139162986031217  0.3865436035399518  0.5448505058998654  1.0000
  C   C7        1.0  0.2625074021484922  0.42707109640336965  0.6280726322756789  1.0000
  C   C8        1.0  0.1867867441623816  0.44572870636861456  0.5637410715068443  1.0000
  N   N2        1.0  0.12592025231753845  0.46072304513494217  0.5120186644087605  1.0000
  C   C9        1.0  0.2774212298798138  0.4497777544612511  0.7737323437754051  1.0000
  C   C10       1.0  0.3509272722076476  0.4321019132440422  0.8360357578930915  1.0000
  C   C11       1.0  0.4097977386768478  0.3917578179602585  0.7533214955611747  1.0000
  C   C12       1.0  0.44388359360695956  0.2289840688070912  0.4200640661505757  1.0000
  C   C13       1.0  0.5027537298668191  0.18855502349181408  0.3374055454525784  1.0000
  C   C14       1.0  0.5764418407049736  0.24377846960970004  0.3519747794142396  1.0000
  H   H1        1.0  0.5446749411945482  0.4562857986346904  0.6066031250361423  1.0000
  H   H2        1.0  0.3095218717496473  0.37083223840046364  0.4316487403796494  1.0000
  H   H3        1.0  0.23228142384981096  0.4810915337552894  0.8390133653214593  1.0000
  H   H4        1.0  0.3622847123519888  0.44936849097076403  0.9488233289874568  1.0000
  H   H5        1.0  0.4660732471055731  0.3770973624033269  0.8044796956539795  1.0000
  H   H6        1.0  0.3874579392644388  0.1835639960805613  0.4082463861955967  1.0000
  H   H7        1.0  0.4912532015167094  0.1139739742309698  0.2621471525507584  1.0000
  H   H8        1.0  0.6215795122620655  0.21159855073107783  0.2872609033201501  1.0000
  C   C15       1.0  0.9272796430320837  0.07049110940634495  0.49402085305198146  1.0000
  C   C16       1.0  0.9174114803714319  0.07858175034218551  0.3425376944851515  1.0000
  C   C17       1.0  0.911729859040877  0.9655620829724867  0.265784870915726  1.0000
  C   C18       1.0  0.9172178051999096  0.8433206326577256  0.3424704090637405  1.0000
  C   C19       1.0  0.9271161268792639  0.8333481344679423  0.4940012377526542  1.0000
  C   C20       1.0  0.9319006427424453  0.9474354086392267  0.5688040348616845  1.0000
  C   C21       1.0  0.9014974012371563  0.9767163689172177  0.10578622172297791  1.0000
  O   O1        1.0  0.9222858376882251  0.08026023000959803  0.03588809001496518  1.0000
  N   N3        1.0  0.8675444401238319  0.8729045932511816  0.028284377100715744  1.0000
  H   H9        1.0  0.946208532637461  0.2624850503741465  0.7802728328997488  1.0000
  H   H10       1.0  0.9134522993294283  0.17314373193765364  0.28407265250058056  1.0000
  H   H11       1.0  0.9152894528763202  0.755647660683469  0.28448107907355746  1.0000
  H   H12       1.0  0.9395042452800023  0.9404462172845426  0.6855538139689457  1.0000
  H   H13       1.0  0.9470538703816135  0.6072967031353633  0.78021331456684  1.0000
  H   H14       1.0  0.8641500292584962  0.8810704193749685  0.9153491504723507  1.0000
  H   H15       1.0  0.8411230046768301  0.7919701562725279  0.0812782968183674  1.0000
  C   C22       1.0  0.9289623759107901  0.4491577375257962  0.07086031092578238  1.0000
  C   C23       1.0  0.8844158287537851  0.35420044431365344  0.14797230583759324  1.0000
  C   C24       1.0  0.8352263984633437  0.26913957506714015  0.07561686548185698  1.0000
  C   C25       1.0  0.8289436136029185  0.2776899241921446  0.9243494247630416  1.0000
  C   C26       1.0  0.8745436552508679  0.3695884830623506  0.8460266953982387  1.0000
  C   C27       1.0  0.9254334000479973  0.4546815031603508  0.917161795167293  1.0000
  C   C28       1.0  0.7767271710002693  0.18465541830077664  0.8465348633550835  1.0000
  C   C29       1.0  0.8182818124579827  0.06774484487822628  0.8190873673642143  1.0000
  N   N4        1.0  0.8510836479501984  0.9754756623461721  0.7974226542795488  1.0000
  H   H16       1.0  0.013383254291326148  0.7387700851703738  0.15794641848764845  1.0000
  H   H17       1.0  0.8863752713881348  0.3475600354040309  0.2651639906694261  1.0000
  H   H18       1.0  0.80139706745129  0.1972242907994599  0.13779470959728957  1.0000
  H   H19       1.0  0.8715563929189633  0.3724199476193301  0.7288648911248412  1.0000
  H   H20       1.0  0.754841987540112  0.23124750814362405  0.7417816781366597  1.0000
  H   H21       1.0  0.7264343221426953  0.15574034448538687  0.912137639438532  1.0000
  Zn  Zn1       1.0  0.8431642905626654  0.44820056850621554  0.4863956667961867  1.0000
  Zn  Zn2       1.0  0.011224167523229637  0.45563772181579876  0.5016251501229478  1.0000
  C   C30       1.0  0.9260998670402849  0.44846276555186915  0.7571927019083926  1.0000
  C   C31       1.0  0.9282904253132609  0.45537724580385114  0.23082842270556592  1.0000
  C   C32       1.0  0.9271670543255193  0.6891142651715394  0.48826248073133377  1.0000
  C   C33       1.0  0.9272231806950358  0.21472418358098963  0.49975871555012774  1.0000
  O   O2        1.0  0.99184276122394  0.4602812638188214  0.29029469204430014  1.0000
  O   O3        1.0  0.9901010910414954  0.4492023922190224  0.7092848432498464  1.0000
  O   O4        1.0  0.9909619922670608  0.6435314933482251  0.4921217089771253  1.0000
  O   O5        1.0  0.9909818030994542  0.2659521687384281  0.5074577130771929  1.0000
  O   O6        1.0  0.8634065976358845  0.6378861190470162  0.48056309863728663  1.0000
  O   O7        1.0  0.8625456963927532  0.44355857798443415  0.69772615603785  1.0000
  O   O8        1.0  0.8642873738600254  0.45463739301515127  0.2787342723741555  1.0000
  O   O9        1.0  0.8634264152839038  0.2603082893493778  0.49589740144222194  1.0000
