data_image0
_chemical_formula_structural       NC8NC6H8C7F3H5C6NCOCH9Zn2C4O8
_chemical_formula_sum              "N3 C33 H22 F3 O9 Zn2"
_cell_length_a       17.457602349358154
_cell_length_b       9.272718291674593
_cell_length_c       10.300272075376752
_cell_angle_alpha    85.97182266394306
_cell_angle_beta     92.87481935650747
_cell_angle_gamma    91.24279848523653

_space_group_name_H-M_alt    "P 1"
_space_group_IT_number       1

loop_
  _space_group_symop_operation_xyz
  'x, y, z'

loop_
  _atom_site_type_symbol
  _atom_site_label
  _atom_site_symmetry_multiplicity
  _atom_site_fract_x
  _atom_site_fract_y
  _atom_site_fract_z
  _atom_site_occupancy
  N   N1        1.0  0.7160816463289985  0.6130946672809865  0.6369955579907525  1.0000
  C   C1        1.0  0.6552050393171273  0.5621243428701861  0.6260506911309263  1.0000
  C   C2        1.0  0.5794719319877439  0.498723598253956  0.6124448592997258  1.0000
  C   C3        1.0  0.5207662615295533  0.5432720333067078  0.687627405597871  1.0000
  C   C4        1.0  0.4464619490893479  0.48222220455297604  0.6746511876076344  1.0000
  C   C5        1.0  0.38415549047265846  0.5292586985331922  0.7542714373928507  1.0000
  C   C6        1.0  0.30952876298189835  0.5497791785320507  0.6986430061013649  1.0000
  C   C7        1.0  0.2508238937195613  0.594123424771106  0.7739321810917903  1.0000
  C   C8        1.0  0.17475639020197728  0.6153172253850492  0.716092737537583  1.0000
  N   N2        1.0  0.11361106182401072  0.6323499599116924  0.6695899301714048  1.0000
  C   C9        1.0  0.2662525166034261  0.6182168676988599  0.9053600270801586  1.0000
  C   C10       1.0  0.34009283040140237  0.5981279912440451  0.9613788308546183  1.0000
  C   C11       1.0  0.3987852992044299  0.5539834181159735  0.886548648780136  1.0000
  C   C12       1.0  0.4321549416821993  0.3758725974899437  0.5850547063719154  1.0000
  C   C13       1.0  0.49084766730481316  0.33163332689414116  0.5102741454831774  1.0000
  C   C14       1.0  0.5643667136221131  0.3928076734575112  0.5238010949469627  1.0000
  H   H1        1.0  0.5327799299495175  0.6267077695046451  0.7547948004099927  1.0000
  H   H2        1.0  0.2972508620171554  0.5332024947420733  0.5965156957419937  1.0000
  H   H3        1.0  0.2212553885409219  0.6524722507263032  0.9644148580744787  1.0000
  H   H4        1.0  0.3518502028680293  0.6164337358967233  0.06314407751089302  1.0000
  H   H5        1.0  0.45533589310437367  0.537325497112703  0.9325454126370525  1.0000
  H   H6        1.0  0.37586903029869956  0.3255567858830278  0.5740779565344165  1.0000
  H   H7        1.0  0.47934293613645335  0.24943726472723382  0.4419164969547167  1.0000
  H   H8        1.0  0.6093676875085502  0.3575867762655899  0.46525112361714993  1.0000
  C   C15       1.0  0.9165205430400349  0.19942166875871525  0.6505614081539601  1.0000
  C   C16       1.0  0.8697648810765322  0.27849962402873385  0.5569843125435197  1.0000
  C   C17       1.0  0.817581568903842  0.2084669355436951  0.4732085200723128  1.0000
  C   C18       1.0  0.8141868464320285  0.05701128929576416  0.48052222421182766  1.0000
  C   C19       1.0  0.8609998907430949  0.9769779889019063  0.5712940018751675  1.0000
  C   C20       1.0  0.9131795257761557  0.0460121770429478  0.6560358799764472  1.0000
  C   C21       1.0  0.7694308056099373  0.29507741062029835  0.3712555576724126  1.0000
  F   F1        1.0  0.7497201083184653  0.42552610805682417  0.4168344651530238  1.0000
  F   F2        1.0  0.7024736138738367  0.22044283650174193  0.3386345717108643  1.0000
  F   F3        1.0  0.8108116171152806  0.32190202807214585  0.26089718441157594  1.0000
  H   H9        1.0  0.007593722394892979  0.2824323333187919  0.9382820220487581  1.0000
  H   H10       1.0  0.872826745573209  0.395618786276293  0.5511913344265815  1.0000
  H   H11       1.0  0.7758472502297352  8.252374339234749e-05  0.41493215938659295  1.0000
  H   H12       1.0  0.857869182216689  0.8600566713098896  0.572784494253394  1.0000
  H   H13       1.0  0.07784413502672782  0.938022029129915  0.8258341987310435  1.0000
  C   C22       1.0  0.9148557558749272  0.622863618035205  0.27194735505698997  1.0000
  C   C23       1.0  0.8362171486837778  0.6531605634342226  0.26229206286565554  1.0000
  C   C24       1.0  0.7968148255472572  0.6703858335425095  0.14004372854039304  1.0000
  C   C25       1.0  0.8362261988618099  0.652832293821543  0.027156614470012164  1.0000
  C   C26       1.0  0.9148443497953476  0.6225701872322391  0.0346499256464996  1.0000
  C   C27       1.0  0.9538071390081423  0.6082860112968593  0.15752503761382552  1.0000
  N   N3        1.0  0.7160418097301281  0.6991694153362349  0.1286612657854842  1.0000
  C   C28       1.0  0.6776096910117801  0.7870579556036247  0.21357134705985795  1.0000
  O   O1        1.0  0.7153796243299312  0.8659995247427493  0.289454469954197  1.0000
  C   C29       1.0  0.5920612271208128  0.7935184288646828  0.20551658588954316  1.0000
  H   H14       1.0  0.9445103631266709  0.6092573593510817  0.6031538971503945  1.0000
  H   H15       1.0  0.8053033728346259  0.6605166220374432  0.3499606123983108  1.0000
  H   H16       1.0  0.8052405487463482  0.6641398314001816  0.9333337287323031  1.0000
  H   H17       1.0  0.014463216429707385  0.5849581499491673  0.164160906546013  1.0000
  H   H18       1.0  0.9443885572050003  0.6089803708547036  0.7101944649540743  1.0000
  H   H19       1.0  0.684135200253126  0.6616690245942213  0.048844292837736836  1.0000
  H   H20       1.0  0.5670156026827395  0.6845601445684839  0.19035581426434622  1.0000
  H   H21       1.0  0.5708921689532477  0.8310039017307533  0.29708741454092813  1.0000
  H   H22       1.0  0.5733274725914957  0.8696649129120158  0.12264120547431002  1.0000
  Zn  Zn1       1.0  0.8308000637081739  0.6186474602837375  0.6464090628495862  1.0000
  Zn  Zn2       1.0  0.9988926766766082  0.6267853442611395  0.6601869809240011  1.0000
  C   C30       1.0  0.9148674367664212  0.6168830783241063  0.8904455070142145  1.0000
  C   C31       1.0  0.9148271320048535  0.628551633824583  0.41615082643545215  1.0000
  C   C32       1.0  0.9138071892376075  0.8859903555357824  0.6498257993464795  1.0000
  C   C33       1.0  0.9158873290090188  0.3594426219500164  0.6567705874381986  1.0000
  O   O2        1.0  0.9786078209899295  0.6335425797474495  0.46977543618455675  1.0000
  O   O3        1.0  0.9786651559231938  0.6180675107421228  0.8472776374236339  1.0000
  O   O4        1.0  0.9778081326914214  0.8353749982656045  0.6529754602639799  1.0000
  O   O5        1.0  0.9794647868238439  0.41623509979620477  0.6640775113392579  1.0000
  O   O6        1.0  0.8502278961991723  0.8291977019731842  0.6425185277257814  1.0000
  O   O7        1.0  0.8510849125938281  0.6118919463371026  0.8368206468418753  1.0000
  O   O8        1.0  0.8510275779332139  0.627366965713581  0.4593168839537183  1.0000
  O   O9        1.0  0.8518845438032213  0.4100594754146101  0.653619056404825  1.0000
