data_image0
_chemical_formula_structural       NC10NC3NH7C13OH12C12NCOH11Zn2C4O8
_chemical_formula_sum              "N4 C43 H30 O10 Zn2"
_cell_length_a       19.210446455230148
_cell_length_b       10.299150109392551
_cell_length_c       10.299148425239204
_cell_angle_alpha    85.51660845067315
_cell_angle_beta     89.97590399293748
_cell_angle_gamma    89.9285097185194

_space_group_name_H-M_alt    "P 1"
_space_group_IT_number       1

loop_
  _space_group_symop_operation_xyz
  'x, y, z'

loop_
  _atom_site_type_symbol
  _atom_site_label
  _atom_site_symmetry_multiplicity
  _atom_site_fract_x
  _atom_site_fract_y
  _atom_site_fract_z
  _atom_site_occupancy
  N   N1        1.0  0.6554172282914542  0.42089812125095855  0.5667738807512757  1.0000
  C   C1        1.0  0.595188088389863  0.4231056796287488  0.5670043475509822  1.0000
  C   C2        1.0  0.5203829166633558  0.4258426478646311  0.5672898665023489  1.0000
  C   C3        1.0  0.48474052807964424  0.5420741375284618  0.5823659698532433  1.0000
  C   C4        1.0  0.412075015713286  0.5422257073315521  0.5823133211136048  1.0000
  C   C5        1.0  0.375215970372585  0.42655162316720213  0.5673761316317818  1.0000
  C   C6        1.0  0.29789420783197995  0.42519512472275695  0.5672259577894702  1.0000
  C   C7        1.0  0.2601207404233258  0.5287998833952443  0.5038272411721156  1.0000
  C   C8        1.0  0.18734275870337913  0.5273976088353156  0.5037186023021685  1.0000
  C   C9        1.0  0.15133677302098142  0.42264812419010056  0.5669575985253819  1.0000
  C   C10       1.0  0.07640760413048721  0.42134601733838467  0.5668211717197382  1.0000
  N   N2        1.0  0.0161700341558819  0.42029907920284243  0.5667115194601828  1.0000
  C   C11       1.0  0.18838655349291047  0.3191690770303133  0.6303312653245018  1.0000
  C   C12       1.0  0.2611664489035306  0.32029704398849534  0.6304902399973196  1.0000
  C   C13       1.0  0.41346771877170635  0.31214038234363994  0.5525876374253182  1.0000
  N   N3        1.0  0.4842370168482809  0.31458544363862284  0.5527524393019971  1.0000
  H   H1        1.0  0.5128170434386583  0.6315083015640676  0.5943869633449634  1.0000
  H   H2        1.0  0.3847814030526407  0.6322411672129435  0.5957289472737597  1.0000
  H   H3        1.0  0.2868327635557891  0.6100806906086653  0.4528075568157368  1.0000
  H   H4        1.0  0.15918115232050883  0.6078500783889629  0.4540296614395851  1.0000
  H   H5        1.0  0.1610350883040006  0.23775319153278904  0.6799210190950573  1.0000
  H   H6        1.0  0.2886829889334444  0.2399631421442176  0.6816169653477214  1.0000
  H   H7        1.0  0.387227365720749  0.22126196590507363  0.5391260336254877  1.0000
  C   C14       1.0  0.8358625439194705  0.03919879733174978  0.5668868255434486  1.0000
  C   C15       1.0  0.8345615566471594  0.02733924130844256  0.703707082947783  1.0000
  C   C16       1.0  0.8338413966494997  0.9041918061001898  0.7728141557007016  1.0000
  C   C17       1.0  0.834427397847121  0.7920842721443246  0.7033436864407696  1.0000
  C   C18       1.0  0.8357313684499987  0.8019883806919375  0.5666098333671898  1.0000
  C   C19       1.0  0.8364432356845042  0.9260057318214856  0.49918046463651367  1.0000
  C   C20       1.0  0.8324590427398512  0.8926275388715251  0.9174643472922629  1.0000
  C   C21       1.0  0.7896465753560534  0.7997897790381515  0.9854977844391811  1.0000
  C   C22       1.0  0.7883227197918292  0.7889892627278705  0.1216134741489362  1.0000
  C   C23       1.0  0.830243962216409  0.8698661150473437  0.19215631701759475  1.0000
  C   C24       1.0  0.8723903711102079  0.9636583451856977  0.12476561030603218  1.0000
  C   C25       1.0  0.8737303850124276  0.9746346318190203  0.9886496290701592  1.0000
  C   C26       1.0  0.8273577677719924  0.8606170167448753  0.33825302116798395  1.0000
  O   O1        1.0  0.7753248862577349  0.9438618999498851  0.37850540892746654  1.0000
  H   H8        1.0  0.8378659793079927  0.2688778519562689  0.3086322563056607  1.0000
  H   H9        1.0  0.8331403412725744  0.11409135753883536  0.7567195107735143  1.0000
  H   H10       1.0  0.8348173014207204  0.6969374802540382  0.7561807266277067  1.0000
  H   H11       1.0  0.837447057523613  0.9343612789371442  0.3937135527003153  1.0000
  H   H12       1.0  0.8361860691414162  0.4783224579926851  0.5140172060534957  1.0000
  H   H13       1.0  0.7563640452472921  0.7368597959161728  0.9333913005826604  1.0000
  H   H14       1.0  0.7544541912955461  0.7176932637477775  0.17199831606066943  1.0000
  H   H15       1.0  0.9043905967727842  0.028143092703970102  0.17761857232355538  1.0000
  H   H16       1.0  0.9076221256450654  0.046375663162357306  0.939071481262687  1.0000
  H   H17       1.0  0.8785549790884021  0.8883431565409551  0.3784169085866852  1.0000
  H   H18       1.0  0.816040301367491  0.758597535437165  0.37607013088028246  1.0000
  H   H19       1.0  0.7755694436008097  0.9341408690507631  0.47513861827667325  1.0000
  C   C27       1.0  0.8358492858196657  0.4207493780467077  0.18535203950699608  1.0000
  C   C28       1.0  0.9064683610542686  0.456193889318067  0.18135748553588416  1.0000
  C   C29       1.0  0.9421631770010968  0.47395096102084033  0.06220012291006883  1.0000
  C   C30       1.0  0.9063216758763689  0.4558539550220612  0.9461004794477345  1.0000
  C   C31       1.0  0.8357446171382548  0.42043784995139805  0.9481445596595989  1.0000
  C   C32       1.0  0.8009224787776206  0.40308423028845597  0.06827600956181468  1.0000
  C   C33       1.0  0.016827626302124536  0.5114228034251459  0.05906704246582439  1.0000
  C   C34       1.0  0.06361226644781892  0.4539695532644399  0.9754817522666328  1.0000
  C   C35       1.0  0.13383777024439647  0.48936916374133477  0.9726825977714206  1.0000
  C   C36       1.0  0.15892314992161505  0.5816079074855066  0.054153732341970295  1.0000
  C   C37       1.0  0.11206911040853851  0.6409076371274234  0.1361699672975285  1.0000
  C   C38       1.0  0.04181213050380239  0.6056147560632874  0.13906592973198717  1.0000
  N   N4        1.0  0.23120897791627718  0.6176977672639208  0.04759268696863517  1.0000
  C   C39       1.0  0.27124253923521985  0.6543072826295233  0.1563025447781832  1.0000
  O   O2        1.0  0.24769190777422304  0.6401827021821127  0.27067193577944715  1.0000
  H   H20       1.0  0.7026701412383467  0.35308547932279666  0.4002446917480616  1.0000
  H   H21       1.0  0.9340840709574851  0.4683444338673951  0.2712746866665335  1.0000
  H   H22       1.0  0.9333271460671025  0.471202034513737  0.853857323283498  1.0000
  H   H23       1.0  0.7464854439225759  0.37576336618594675  0.0705677564368099  1.0000
  H   H24       1.0  0.8086008327449266  0.40677956102601165  0.6214576427909981  1.0000
  H   H25       1.0  0.046074964378530536  0.38048298004606984  0.9133386394303784  1.0000
  H   H26       1.0  0.1690177467120153  0.4437691409764901  0.9077381435977068  1.0000
  H   H27       1.0  0.12921102430660292  0.7165595789076331  0.19590575363440868  1.0000
  H   H28       1.0  0.006713832838553867  0.6538811111601148  0.20211682729679928  1.0000
  H   H29       1.0  0.25798279098762955  0.6087132738349892  0.960408231729364  1.0000
  H   H30       1.0  0.32350304798721585  0.6912632589144445  0.14045618609030708  1.0000
  Zn  Zn1       1.0  0.7595226941015969  0.42072178325891696  0.5667633854931385  1.0000
  Zn  Zn2       1.0  0.9120645527663638  0.42046482944608043  0.5667326551021505  1.0000
  C   C40       1.0  0.8357637446778482  0.4153226386842228  0.8039623491563861  1.0000
  C   C41       1.0  0.835825167643161  0.425865609915104  0.32953381798379544  1.0000
  C   C42       1.0  0.8357532899857056  0.6578070709745347  0.5614866300681545  1.0000
  C   C43       1.0  0.8358355705422736  0.18337961725522112  0.5720096068927969  1.0000
  O   O3        1.0  0.8937059147219156  0.42747948523427864  0.3779108799919322  1.0000
  O   O4        1.0  0.8936587389670975  0.41351276171744006  0.7555615899755086  1.0000
  O   O5        1.0  0.8936495161164231  0.609322008189034  0.5597607309225976  1.0000
  O   O6        1.0  0.8937150855321504  0.23167024818111195  0.5737116416703008  1.0000
  O   O7        1.0  0.7778721092807611  0.6095163646129879  0.5597843989286427  1.0000
  O   O8        1.0  0.7778813318694162  0.4137086786000672  0.7555851881644393  1.0000
  O   O9        1.0  0.7779285078925638  0.4276753574949296  0.3779329166845707  1.0000
  O   O10       1.0  0.7779376786881892  0.23186611111243827  0.5737337757411369  1.0000
