data_image0
_chemical_formula_structural       NC9NC4H8C9H10C6OCH7Zn2C4O8
_chemical_formula_sum              "N2 C33 H25 O9 Zn2"
_cell_length_a       16.32274767691083
_cell_length_b       9.27267660452572
_cell_length_c       9.273891588657152
_cell_angle_alpha    86.3289676754197
_cell_angle_beta     89.15205086511824
_cell_angle_gamma    90.07922574154927

_space_group_name_H-M_alt    "P 1"
_space_group_IT_number       1

loop_
  _space_group_symop_operation_xyz
  'x, y, z'

loop_
  _atom_site_type_symbol
  _atom_site_label
  _atom_site_symmetry_multiplicity
  _atom_site_fract_x
  _atom_site_fract_y
  _atom_site_fract_z
  _atom_site_occupancy
  N   N1        1.0  0.785053396667058  0.5533636022527643  0.4048651098301137  1.0000
  C   C1        1.0  0.7326266448134897  0.5001394443157272  0.34437553471255256  1.0000
  C   C2        1.0  0.6674597300270666  0.43403462567044576  0.2692469987711317  1.0000
  C   C3        1.0  0.6788575531519039  0.343614986835358  0.1664797668214948  1.0000
  C   C4        1.0  0.5994163211582109  0.29948975934000455  0.11633275908764996  1.0000
  C   C5        1.0  0.5405939409874738  0.36406608805070007  0.18973006896605704  1.0000
  C   C6        1.0  0.45062720001421597  0.3469991803607711  0.17033573614524822  1.0000
  C   C7        1.0  0.3951602705656436  0.42226698749362535  0.25587683444592213  1.0000
  C   C8        1.0  0.3104267537614934  0.4076807853076641  0.23930120968448754  1.0000
  C   C9        1.0  0.25455186699847293  0.4852624555253509  0.32747114667745325  1.0000
  N   N2        1.0  0.20964737891705704  0.547625348178587  0.3983448443164812  1.0000
  C   C10       1.0  0.2801069172989035  0.3177050511369839  0.13704683657283015  1.0000
  C   C11       1.0  0.3342520980370829  0.24253694515340563  0.05161942252854801  1.0000
  C   C12       1.0  0.41882614589824757  0.2567302608932487  0.06774840274284655  1.0000
  C   C13       1.0  0.5785093207250881  0.4582254444385818  0.2967448330611193  1.0000
  H   H1        1.0  0.7377048568759526  0.3084550303352709  0.1265159302593084  1.0000
  H   H2        1.0  0.5909944804880594  0.22558989935135412  0.032341023450671795  1.0000
  H   H3        1.0  0.4173930014503365  0.4925082174178914  0.33570372937106097  1.0000
  H   H4        1.0  0.21469457796739852  0.3056890445637299  0.12339220918022464  1.0000
  H   H5        1.0  0.31062440986536793  0.17293232800660283  0.972516300053394  1.0000
  H   H6        1.0  0.4585044271395294  0.1966006186346716  0.9994124081766071  1.0000
  H   H7        1.0  0.5611710988805393  0.42066812291784417  0.4092447512737363  1.0000
  H   H8        1.0  0.562438152037385  0.5735549752107736  0.27263765829944075  1.0000
  C   C14       1.0  0.9950386764623446  0.12702044793752187  0.39979912001474904  1.0000
  C   C15       1.0  0.9618664597975771  0.19265952402715653  0.5196855005880039  1.0000
  C   C16       1.0  0.9361791353911115  0.1099936464006739  0.6429797656417602  1.0000
  C   C17       1.0  0.9428345642167288  0.9592244536952428  0.650535890188233  1.0000
  C   C18       1.0  0.9746679435040531  0.89214364939235  0.529559520155874  1.0000
  C   C19       1.0  0.9996698778118327  0.9739573545323776  0.4034231545136835  1.0000
  C   C20       1.0  0.9141687905580318  0.8772622801911333  0.7894408250027947  1.0000
  C   C21       1.0  0.872806507918825  0.7315955725130108  0.7757243414696604  1.0000
  C   C22       1.0  0.9591255202743638  0.7384303074843536  0.8353888248681586  1.0000
  H   H9        1.0  0.013977588290639222  0.4234295879502082  0.16330672539382807  1.0000
  H   H10       1.0  0.9575438811436899  0.3092392021232395  0.5196133139505843  1.0000
  H   H11       1.0  0.9116222766276472  0.16460054724854478  0.7339244359386696  1.0000
  H   H12       1.0  0.9785722636141772  0.7757027889278625  0.5308380676755602  1.0000
  H   H13       1.0  0.022042639284251875  0.8936106351083648  0.050139657760364345  1.0000
  H   H14       1.0  0.8906899450161956  0.9385327914772659  0.8805566271653983  1.0000
  H   H15       1.0  0.8693510429487065  0.6913867277011649  0.6658914612784844  1.0000
  H   H16       1.0  0.8250618351596706  0.7042193319997931  0.8596143665016602  1.0000
  H   H17       1.0  0.008079017667278029  0.7022458401528372  0.7618844286979742  1.0000
  H   H18       1.0  0.9618279894863597  0.7150427884807126  0.9541689449896829  1.0000
  C   C23       1.0  0.9986755518178396  0.5466515497554982  0.9782988438227207  1.0000
  C   C24       1.0  0.06610304608159899  0.6066544381320029  0.04610284346500081  1.0000
  C   C25       1.0  0.12894218748581213  0.6774883638167315  0.9656408390503045  1.0000
  C   C26       1.0  0.12457911467884353  0.6886777302537146  0.8143157851800344  1.0000
  C   C27       1.0  0.05886809486849742  0.6277784080313462  0.7451394191252052  1.0000
  C   C28       1.0  0.9960329559858345  0.5543262151607808  0.8249233911882714  1.0000
  O   O1        1.0  0.19412252598817092  0.7357459750729887  0.04010450825947154  1.0000
  C   C29       1.0  0.26200403481256385  0.810727424190613  0.9723168370250984  1.0000
  H   H19       1.0  0.8033164522820412  0.4607142808333271  0.09192967206707527  1.0000
  H   H20       1.0  0.17207565369974342  0.7431065177337162  0.748904524327521  1.0000
  H   H21       1.0  0.058247665068976495  0.6352195620080303  0.6281001968956691  1.0000
  H   H22       1.0  0.8657200075359482  0.49073478135788623  0.5511967767460444  1.0000
  H   H23       1.0  0.24054541668775295  0.9086106434566403  0.9086765486031415  1.0000
  H   H24       1.0  0.2957736835979443  0.7386961035091064  0.9010733338535443  1.0000
  H   H25       1.0  0.30413125690492426  0.8446297990006051  0.056663845081143645  1.0000
  Zn  Zn1       1.0  0.9075820072684064  0.5517038711421782  0.40299181033283427  1.0000
  Zn  Zn2       1.0  0.0871186729201463  0.5492733527858027  0.4002299024669831  1.0000
  C   C30       1.0  0.9964992354959322  0.5471307270383106  0.6648686876131786  1.0000
  C   C31       1.0  0.9982034147352691  0.5538482911626685  0.13835314429776369  1.0000
  C   C32       1.0  0.9988081723919074  0.8138162471500308  0.3969938434986946  1.0000
  C   C33       1.0  0.9958944068621625  0.28716104000899434  0.4062280587946572  1.0000
  O   O2        1.0  0.06617815576740638  0.555334923004076  0.191020673089841  1.0000
  O   O3        1.0  0.06478866484429346  0.5437982963522154  0.6101045150400431  1.0000
  O   O4        1.0  0.06665223744124882  0.7591502525627478  0.3937937037041934  1.0000
  O   O5        1.0  0.06431452230052148  0.3399829769590351  0.4073313773282437  1.0000
  O   O6        1.0  0.9303860966210109  0.7609942477998637  0.3958903364065016  1.0000
  O   O7        1.0  0.928522533734166  0.5456440234622033  0.6122010782948704  1.0000
  O   O8        1.0  0.9299120298466016  0.557180584149954  0.19311550300355984  1.0000
  O   O9        1.0  0.9280483959826259  0.34182862877033965  0.4094263152743378  1.0000
