data_image0
_chemical_formula_structural       NC12NC2H8C12H15C6NO2H5Zn2C4O8
_chemical_formula_sum              "N3 C36 H28 O10 Zn2"
_cell_length_a       17.80743265337812
_cell_length_b       10.298977702784466
_cell_length_c       9.27342699604674
_cell_angle_alpha    85.13371055630637
_cell_angle_beta     91.97882923782456
_cell_angle_gamma    89.43206247709772

_space_group_name_H-M_alt    "P 1"
_space_group_IT_number       1

loop_
  _space_group_symop_operation_xyz
  'x, y, z'

loop_
  _atom_site_type_symbol
  _atom_site_label
  _atom_site_symmetry_multiplicity
  _atom_site_fract_x
  _atom_site_fract_y
  _atom_site_fract_z
  _atom_site_occupancy
  N   N1        1.0  0.7009988845481783  0.4169224776264542  0.4448189302192113  1.0000
  C   C1        1.0  0.649865148144324  0.44698029321244187  0.368446232307615  1.0000
  C   C2        1.0  0.5862498047291459  0.48437000753429316  0.27344820958923655  1.0000
  C   C3        1.0  0.5973979057574125  0.5393103902497849  0.1326846148687102  1.0000
  C   C4        1.0  0.5357008836046615  0.5751790640981016  0.04035037794722385  1.0000
  C   C5        1.0  0.462698442688023  0.5563756111184843  0.08804612653903754  1.0000
  C   C6        1.0  0.4505757043273307  0.5013130330959628  0.2293301292448113  1.0000
  C   C7        1.0  0.5131299672747363  0.4654477327062308  0.321646011360861  1.0000
  C   C8        1.0  0.3730181227910924  0.48137468816688683  0.2802056391689889  1.0000
  C   C9        1.0  0.3548097501092171  0.5076463870681319  0.42141356254791074  1.0000
  C   C10       1.0  0.2817775462375571  0.48888421860172515  0.46915438503341766  1.0000
  C   C11       1.0  0.2260145734058203  0.4435900040868626  0.37661882112062295  1.0000
  C   C12       1.0  0.1508521692428344  0.4242648406228233  0.4259170435884569  1.0000
  N   N2        1.0  0.09042691940140281  0.40872870939942685  0.46554942307414726  1.0000
  C   C13       1.0  0.24353393355369227  0.4171454557627623  0.2360144972896372  1.0000
  C   C14       1.0  0.3165121159620055  0.4359242586677443  0.18798923651481722  1.0000
  H   H1        1.0  0.6537060642085661  0.5543842471167768  0.09440085663273098  1.0000
  H   H2        1.0  0.5444517093724307  0.6179862232656266  0.9316489556965646  1.0000
  H   H3        1.0  0.41575901396410553  0.5864876037706815  0.015128064716300575  1.0000
  H   H4        1.0  0.5050770200593321  0.4212560272387235  0.4302095770452192  1.0000
  H   H5        1.0  0.39678323370109053  0.5443558854066701  0.49428921316089375  1.0000
  H   H6        1.0  0.2687797227806978  0.5100243121620953  0.5780895071243006  1.0000
  H   H7        1.0  0.2008453952279563  0.3817003826061742  0.16359743784305492  1.0000
  H   H8        1.0  0.3289829963002569  0.4132462768386778  0.07939181254151961  1.0000
  C   C15       1.0  0.8957315926653201  0.031419274483524  0.4553308812612562  1.0000
  C   C16       1.0  0.8981343189734317  0.01858947723729454  0.6074482288851288  1.0000
  C   C17       1.0  0.8995238346781725  0.8948631905451923  0.6844290797546728  1.0000
  C   C18       1.0  0.8980915637169744  0.7833298991017228  0.6071112836224652  1.0000
  C   C19       1.0  0.8957014503133168  0.7942216633923779  0.4550502604266835  1.0000
  C   C20       1.0  0.8945919481042325  0.9187110947104095  0.38005829486000725  1.0000
  C   C21       1.0  0.901953306586421  0.8807960065484196  0.8489188695387848  1.0000
  C   C22       1.0  0.828758260476402  0.9336665231199494  0.9100751474897683  1.0000
  C   C23       1.0  0.839826062762833  0.9781686477721886  0.06400043337288674  1.0000
  C   C24       1.0  0.9027346913321429  0.9007337231170366  0.15064057043357015  1.0000
  C   C25       1.0  0.9790859762379164  0.9180121685209444  0.07811343941605961  1.0000
  C   C26       1.0  0.9720829374513157  0.9452881038643062  0.9119831821175974  1.0000
  H   H9        1.0  0.8908707293150517  0.26296024432671633  0.1681746994178099  1.0000
  H   H10       1.0  0.8986390928589989  0.10494436447748168  0.6663920984964893  1.0000
  H   H11       1.0  0.898864078974672  0.6877889114545958  0.6658192528278706  1.0000
  H   H12       1.0  0.8927457451888047  0.927813713494459  0.2627719744969898  1.0000
  H   H13       1.0  0.8945431470740345  0.47093657292744373  0.3965047018776938  1.0000
  H   H14       1.0  0.9065018881103112  0.7752469666445668  0.8864783978132238  1.0000
  H   H15       1.0  0.7860331656631959  0.8555612644729708  0.9116824928045412  1.0000
  H   H16       1.0  0.8050519378421921  0.017482472100470044  0.8389317013292756  1.0000
  H   H17       1.0  0.8540491797356354  0.08340550889030121  0.05684510200641357  1.0000
  H   H18       1.0  0.7864258545349444  0.9666256075737227  0.12209066234232879  1.0000
  H   H19       1.0  0.8878780447507036  0.7957698512291486  0.16015560583430832  1.0000
  H   H20       1.0  0.013619632957046818  0.8282456752565094  0.10577260801261  1.0000
  H   H21       1.0  0.009581639475336298  0.9998699712948577  0.12351036971606522  1.0000
  H   H22       1.0  0.9688155514399605  0.052473207953805515  0.8847485156145432  1.0000
  H   H23       1.0  0.023520290535900438  0.9084647706507221  0.8633414077754278  1.0000
  C   C27       1.0  0.8939830729360801  0.415585192704809  0.031270489861922476  1.0000
  C   C28       1.0  0.9375961419693898  0.5075042659420439  0.09929093405546352  1.0000
  C   C29       1.0  0.9861483371717883  0.5907952477783194  0.020330817295384437  1.0000
  C   C30       1.0  0.9909199249365745  0.5813324475123294  0.8709459164243012  1.0000
  C   C31       1.0  0.9471470216307071  0.492254148513825  0.8014323763688869  1.0000
  C   C32       1.0  0.8974499540547419  0.4100557397156726  0.8791107408691494  1.0000
  N   N3        1.0  0.030826004803351067  0.683496878578003  0.0920896068837973  1.0000
  O   O1        1.0  0.025996129633373055  0.6928885373781468  0.23864406923965742  1.0000
  O   O2        1.0  0.0745014591833939  0.7571198858134371  0.022539756435259396  1.0000
  H   H24       1.0  0.7889145105302182  0.3018244672872965  0.31520372781113837  1.0000
  H   H25       1.0  0.9350117722264334  0.5120666206001994  0.2152633330555409  1.0000
  H   H26       1.0  0.028044864239047174  0.6438887073244244  0.8072529836854362  1.0000
  H   H27       1.0  0.9508768811951261  0.48983433850597546  0.685321867456448  1.0000
  H   H28       1.0  0.7397473846719961  0.24717798952926073  0.7811598719989057  1.0000
  Zn  Zn1       1.0  0.8133794408045901  0.41455441121624764  0.4508096262152001  1.0000
  Zn  Zn2       1.0  0.9780464092186554  0.4110861045211077  0.4595705059444297  1.0000
  C   C33       1.0  0.8967931828868617  0.40592681781757944  0.7188525503575134  1.0000
  C   C34       1.0  0.8946344658091895  0.41971529790174567  0.19152781855635664  1.0000
  C   C35       1.0  0.8956797608367013  0.6500734108259248  0.4493505370222241  1.0000
  C   C36       1.0  0.8957478320463889  0.175567145119786  0.4610299064400773  1.0000
  O   O3        1.0  0.9573433357758435  0.41977952832375776  0.24863635231876957  1.0000
  O   O4        1.0  0.9590627301516491  0.4032292457569622  0.6683929063991811  1.0000
  O   O5        1.0  0.9581627915043925  0.6003807152198851  0.45076807854341866  1.0000
  O   O6        1.0  0.9582432177904503  0.222628070041373  0.4662610689423867  1.0000
  O   O7        1.0  0.8331825760400093  0.6030124468810087  0.4441190602199911  1.0000
  O   O8        1.0  0.8340825143074415  0.40586253837672565  0.6617438105300704  1.0000
  O   O9        1.0  0.8323631128863063  0.42241278700131457  0.24198552085521108  1.0000
  O   O10       1.0  0.8332629953407769  0.22526131872341784  0.45961034571372195  1.0000
