data_image0
_chemical_formula_structural       NC12NC2H8C6ClH5C6BrH4Zn2C4O8
_chemical_formula_sum              "N2 C30 H17 Cl1 Br1 Zn2 O8"
_cell_length_a       19.240039667572717
_cell_length_b       10.30297070629231
_cell_length_c       9.27656775626242
_cell_angle_alpha    86.12016662879066
_cell_angle_beta     90.18620512450872
_cell_angle_gamma    89.99831201696266

_space_group_name_H-M_alt    "P 1"
_space_group_IT_number       1

loop_
  _space_group_symop_operation_xyz
  'x, y, z'

loop_
  _atom_site_type_symbol
  _atom_site_label
  _atom_site_symmetry_multiplicity
  _atom_site_fract_x
  _atom_site_fract_y
  _atom_site_fract_z
  _atom_site_occupancy
  N   N1        1.0  0.6519645344577548  0.4068193221774188  0.410655759533396  1.0000
  C   C1        1.0  0.5918161654967202  0.40681940533105837  0.41065566862844394  1.0000
  C   C2        1.0  0.5169981281150317  0.40681952123737425  0.41065551629474106  1.0000
  C   C3        1.0  0.4807051928475111  0.34338548040315064  0.5253877181078612  1.0000
  C   C4        1.0  0.4080345969289346  0.34327548031504307  0.5254837313691152  1.0000
  C   C5        1.0  0.3706658927804563  0.4068196115477783  0.410655263687294  1.0000
  C   C6        1.0  0.4076728673544357  0.47036393160856216  0.2958270118553515  1.0000
  C   C7        1.0  0.4803437082162283  0.47025369729333694  0.29592316101991245  1.0000
  C   C8        1.0  0.2934608021761984  0.4068195319791621  0.41065515782082845  1.0000
  C   C9        1.0  0.2563475572020815  0.2940040782027331  0.4571053077988627  1.0000
  C   C10       1.0  0.183676708384161  0.2941100517939734  0.4570039876620604  1.0000
  C   C11       1.0  0.1471285153609126  0.4068194034427648  0.41065522539452026  1.0000
  C   C12       1.0  0.0723104786400053  0.4068192921663645  0.4106555012769626  1.0000
  N   N2        1.0  0.012162162150852696  0.40681925339273134  0.4106557325150897  1.0000
  C   C13       1.0  0.1835278331011439  0.5195288303780841  0.3643064044484734  1.0000
  C   C14       1.0  0.25619836859976425  0.5196349824437831  0.36420490392221516  1.0000
  H   H1        1.0  0.50856119897721  0.2942800858045582  0.6149673812273122  1.0000
  H   H2        1.0  0.3810843569452013  0.294978817976314  0.6163010789976582  1.0000
  H   H3        1.0  0.3804365764612238  0.5186606204941537  0.20500960781202407  1.0000
  H   H4        1.0  0.5079174740306146  0.5193589943567278  0.20634380388921136  1.0000
  H   H5        1.0  0.2834964117640533  0.20518172127756132  0.49168150154671597  1.0000
  H   H6        1.0  0.1560192273298634  0.20619668320343723  0.49272629286410125  1.0000
  H   H7        1.0  0.1557554907333306  0.6074421745817882  0.32858411538892685  1.0000
  H   H8        1.0  0.2832359927759308  0.6084574180827748  0.32962866050424444  1.0000
  C   C15       1.0  0.832066683712201  0.025571906677506858  0.41066194176437865  1.0000
  C   C16       1.0  0.9038785014047966  0.022673591954700967  0.43841508353208286  1.0000
  C   C17       1.0  0.9395096084982917  0.9042786807482722  0.45218535101458723  1.0000
  C   C18       1.0  0.9038785007436734  0.7875656226871658  0.438415015766986  1.0000
  C   C19       1.0  0.8320666912589298  0.7880568492176193  0.4106620242472723  1.0000
  C   C20       1.0  0.7965108325487684  0.9076535478641108  0.39692070576421457  1.0000
  Cl  Cl1       1.0  0.02921967823790683  0.9021615111840665  0.48685553807966353  1.0000
  H   H9        1.0  0.8050164284615136  0.3539667622815392  0.4002070126420416  1.0000
  H   H10       1.0  0.9324398063395026  0.1120461251700855  0.44945305879016134  1.0000
  H   H11       1.0  0.9324397786913543  0.6968449314290043  0.4494529552677746  1.0000
  H   H12       1.0  0.741127379430808  0.9089604886081792  0.37551660418978605  1.0000
  H   H13       1.0  0.8050164254985888  0.46093879800452836  0.40020728468404676  1.0000
  C   C21       1.0  0.8314032697714684  0.40308340835862055  0.9875352048811538  1.0000
  C   C22       1.0  0.7696402477604298  0.43433770619659406  0.058146053146587835  1.0000
  C   C23       1.0  0.71096575362302  0.47628609925265875  0.9794450737041576  1.0000
  C   C24       1.0  0.7129521960968365  0.4878298288572878  0.8289492301154684  1.0000
  C   C25       1.0  0.773352636324818  0.45517308246141935  0.7566113196561299  1.0000
  C   C26       1.0  0.8327301429706505  0.41054535385342317  0.8337887277729248  1.0000
  Br  Br1       1.0  0.6326454858775691  0.5462868764274338  0.721699017932796  1.0000
  H   H14       1.0  0.9270178522170945  0.2851624918108291  0.2783693740270463  1.0000
  H   H15       1.0  0.6641080821321228  0.5010390459534948  0.03576246929063176  1.0000
  H   H16       1.0  0.773243249084389  0.46180481151043984  0.6395608567724151  1.0000
  H   H17       1.0  0.9470896921570866  0.3971393348832821  0.5543939771247319  1.0000
  Zn  Zn1       1.0  0.7559098113111541  0.406815909489485  0.4106640601044069  1.0000
  Zn  Zn2       1.0  0.9082169225059468  0.4068121796642355  0.4106591913657922  1.0000
  C   C27       1.0  0.8324777650572304  0.4039628208953927  0.6738286757715779  1.0000
  C   C28       1.0  0.8316506321705758  0.4096669075622654  0.1474947170688592  1.0000
  C   C29       1.0  0.8320541215621973  0.6438803059107332  0.4049201413505257  1.0000
  C   C30       1.0  0.8320742238142382  0.16974786341996406  0.41640332831139687  1.0000
  O   O1        1.0  0.8895334041944775  0.41186931064998333  0.20117674294608603  1.0000
  O   O2        1.0  0.8901925656331487  0.4017566038888132  0.6201425398542015  1.0000
  O   O3        1.0  0.8898496913339701  0.5954930204393403  0.40299699576166803  1.0000
  O   O4        1.0  0.8898762263521645  0.2181329024353709  0.4183221790036129  1.0000
  O   O5        1.0  0.7742504554899824  0.5954951867209688  0.40300107246066874  1.0000
  O   O6        1.0  0.7745933296655773  0.4017603293000216  0.620146539725799  1.0000
  O   O7        1.0  0.7739341655569353  0.41187297554437824  0.20117901045204878  1.0000
  O   O8        1.0  0.7742769878811601  0.21813655899647036  0.4183245545386649  1.0000
