data_image0
_chemical_formula_structural       NC8NC6H8C7F3H5C6OCH7Zn2C4O8
_chemical_formula_sum              "N2 C32 H20 F3 O9 Zn2"
_cell_length_a       17.457602349358154
_cell_length_b       9.272718291674593
_cell_length_c       9.273891588657152
_cell_angle_alpha    86.50478335773057
_cell_angle_beta     92.54290593679646
_cell_angle_gamma    91.24279848523653

_space_group_name_H-M_alt    "P 1"
_space_group_IT_number       1

loop_
  _space_group_symop_operation_xyz
  'x, y, z'

loop_
  _atom_site_type_symbol
  _atom_site_label
  _atom_site_symmetry_multiplicity
  _atom_site_fract_x
  _atom_site_fract_y
  _atom_site_fract_z
  _atom_site_occupancy
  N   N1        1.0  0.7206054791498093  0.5991459260044034  0.48746365119622803  1.0000
  C   C1        1.0  0.6597651983202991  0.5480635938029983  0.4753180495766898  1.0000
  C   C2        1.0  0.5840772489571672  0.48452360956126395  0.46021955498186284  1.0000
  C   C3        1.0  0.5251220464651752  0.5298414492135202  0.5436501958269757  1.0000
  C   C4        1.0  0.4508608022931458  0.4686588241886131  0.5292503884783641  1.0000
  C   C5        1.0  0.3882900828361553  0.5165101374242926  0.6176055824815825  1.0000
  C   C6        1.0  0.313847986969101  0.5364613261048019  0.555874291106426  1.0000
  C   C7        1.0  0.2548932317706836  0.58157606816214  0.6394232586186643  1.0000
  C   C8        1.0  0.179017698260697  0.6021779503575859  0.5752383901956681  1.0000
  N   N2        1.0  0.1180267134195078  0.6187347835528807  0.5236338727818595  1.0000
  C   C9        1.0  0.2698856436012857  0.607014519927523  0.7852697343714132  1.0000
  C   C10       1.0  0.3435400301232482  0.5874989297925407  0.8474342250464928  1.0000
  C   C11       1.0  0.4024808614577702  0.5425885580967851  0.7643946054481804  1.0000
  C   C12       1.0  0.4368511669927571  0.36139230291933877  0.42982449490301544  1.0000
  C   C13       1.0  0.4957920904533827  0.3163877415701055  0.3468399403102116  1.0000
  C   C14       1.0  0.5692662406162289  0.3777005204910793  0.3618508985446882  1.0000
  H   H1        1.0  0.5369127852630671  0.6139645643983338  0.6181863623841635  1.0000
  H   H2        1.0  0.3019090481267589  0.5188394898666229  0.4425428415798187  1.0000
  H   H3        1.0  0.2246925116414752  0.6418742594290052  0.8508033274385784  1.0000
  H   H4        1.0  0.3549596421625042  0.6068461215988779  0.960363889740537  1.0000
  H   H5        1.0  0.45887879138716964  0.5264013596669894  0.8154375625484309  1.0000
  H   H6        1.0  0.3806016876117146  0.31096415723718285  0.417643512501763  1.0000
  H   H7        1.0  0.48451423937758553  0.23349211957476992  0.27098294019241775  1.0000
  H   H8        1.0  0.6144615427629383  0.34188043346773855  0.29687755206959343  1.0000
  C   C15       1.0  0.9209993505943688  0.18561175794246768  0.5025177778313765  1.0000
  C   C16       1.0  0.8745542724582933  0.2637320621177036  0.3986745663465843  1.0000
  C   C17       1.0  0.8226490134363413  0.1928420273039185  0.3057079351625007  1.0000
  C   C18       1.0  0.8192300166673876  0.041461228183165895  0.3138240080192447  1.0000
  C   C19       1.0  0.8657417880446758  0.9623568697669104  0.4145541369386667  1.0000
  C   C20       1.0  0.9176401634738522  0.03225829098254417  0.5085928406608173  1.0000
  C   C21       1.0  0.7748366336012629  0.2784091341778465  0.19256996088653147  1.0000
  F   F1        1.0  0.754974659211021  0.40932427792116427  0.24314921960234506  1.0000
  F   F2        1.0  0.7079877114220262  0.20344072278089284  0.1563702057867429  1.0000
  F   F3        1.0  0.8165837262540633  0.30410436397043505  0.07010443853958592  1.0000
  H   H9        1.0  0.011117580782339157  0.271566903297664  0.8218035214453101  1.0000
  H   H10       1.0  0.8776353639389235  0.3807919400735291  0.3922460546707329  1.0000
  H   H11       1.0  0.7811081149045473  0.9838612257541094  0.24103821649070126  1.0000
  H   H12       1.0  0.8626061325510173  0.8454508056046833  0.41620814761552016  1.0000
  H   H13       1.0  0.08174120947868184  0.9260058283950376  0.6970193205507151  1.0000
  C   C22       1.0  0.9205911893264556  0.6051790393840216  0.08236689656726148  1.0000
  C   C23       1.0  0.9831501906175947  0.6691632413409729  0.15709312477291526  1.0000
  C   C24       1.0  0.04131665657718031  0.7436975800396414  0.08311725900811573  1.0000
  C   C25       1.0  0.037131701393425164  0.754619242158738  0.9313796128938799  1.0000
  C   C26       1.0  0.9761872575257405  0.6898415786061038  0.8554515530341043  1.0000
  C   C27       1.0  0.9180483212359586  0.6126909630242019  0.928743651801573  1.0000
  O   O1        1.0  0.10178844307870216  0.8058036494423662  0.16427305610737264  1.0000
  C   C28       1.0  0.16463628549484333  0.88478346963362  0.1034883860264848  1.0000
  H   H14       1.0  0.738539117757898  0.5076478158382511  0.17614786755192768  1.0000
  H   H15       1.0  0.08108835082605204  0.8118443667014816  0.8708729408217764  1.0000
  H   H16       1.0  0.9755390156982751  0.6972407513850828  0.7383673725292637  1.0000
  H   H17       1.0  0.7966686678590434  0.5413700541720847  0.6417616349737796  1.0000
  H   H18       1.0  0.14366443966662845  0.9813213891433065  0.03791931507833613  1.0000
  H   H19       1.0  0.19689494759741333  0.8148143984076731  0.03547245529228604  1.0000
  H   H20       1.0  0.2037543552988588  0.9211756810640587  0.19215184509172722  1.0000
  Zn  Zn1       1.0  0.8352926529607859  0.6047950551156329  0.4979098888090987  1.0000
  Zn  Zn2       1.0  0.0033395368060664707  0.6130739398180702  0.513199348810911  1.0000
  C   C29       1.0  0.9185500652870209  0.6055280980482429  0.7687189785342212  1.0000
  C   C30       1.0  0.920083951904885  0.6123428074537647  0.2423905805415272  1.0000
  C   C31       1.0  0.9182884382889492  0.8721729166318637  0.5017014671683138  1.0000
  C   C32       1.0  0.9203455282012881  0.3456962547530753  0.509408151093701  1.0000
  O   O2        1.0  0.9836866599809413  0.6178825379472419  0.3018982159798771  1.0000
  O   O3        1.0  0.9824910592705215  0.606270758285758  0.7208152668192953  1.0000
  O   O4        1.0  0.982278927969471  0.8215897924226301  0.5051966697350074  1.0000
  O   O5        1.0  0.9838987342226903  0.4025635103387062  0.5175166998684966  1.0000
  O   O6        1.0  0.8547333981980242  0.8153054817713217  0.49359253252640195  1.0000
  O   O7        1.0  0.8549455228546055  0.5999881789278434  0.7092110651993115  1.0000
  O   O8        1.0  0.8561411290208134  0.6115998929788439  0.29029228138608604  1.0000
  O   O9        1.0  0.8563532029757263  0.3962808560182964  0.5059108732452631  1.0000
