data_image0
_chemical_formula_structural       NC9NC3NH7C7OCH10C9H10Zn2C4O8
_chemical_formula_sum              "N3 C33 H27 O9 Zn2"
_cell_length_a       16.053384444249904
_cell_length_b       10.30083208314754
_cell_length_c       9.272679976505534
_cell_angle_alpha    86.00090220550724
_cell_angle_beta     90.20084585415952
_cell_angle_gamma    89.16926536021816

_space_group_name_H-M_alt    "P 1"
_space_group_IT_number       1

loop_
  _space_group_symop_operation_xyz
  'x, y, z'

loop_
  _atom_site_type_symbol
  _atom_site_label
  _atom_site_symmetry_multiplicity
  _atom_site_fract_x
  _atom_site_fract_y
  _atom_site_fract_z
  _atom_site_occupancy
  N   N1        1.0  0.7780077480446866  0.3924196122184527  0.40599084557958776  1.0000
  C   C1        1.0  0.7269263898184379  0.3710143605681746  0.32291324655914666  1.0000
  C   C2        1.0  0.6634463833216889  0.34441826204431175  0.21971061838333283  1.0000
  C   C3        1.0  0.6764921025426824  0.3313023469197771  0.07459349628716616  1.0000
  C   C4        1.0  0.5996408482055543  0.30556210697493746  0.01659838306669914  1.0000
  C   C5        1.0  0.5429906372144043  0.30440597642505796  0.12946078762620616  1.0000
  C   C6        1.0  0.4522949329222052  0.2805052893547202  0.11809522426961293  1.0000
  C   C7        1.0  0.3968072678312797  0.32396071698899487  0.22232148188914325  1.0000
  C   C8        1.0  0.3112172714191831  0.301292377488674  0.2114353352323492  1.0000
  C   C9        1.0  0.2549598041761155  0.34651136119036363  0.31829389352221704  1.0000
  N   N2        1.0  0.2097453978781615  0.3828610355365485  0.4041914396483187  1.0000
  C   C10       1.0  0.2803889776828243  0.23505674537838628  0.09633819230976659  1.0000
  C   C11       1.0  0.3348690095427757  0.19172260371343783  0.9923468546869172  1.0000
  C   C12       1.0  0.4202513150692563  0.21422207954269348  0.002792832956995064  1.0000
  N   N3        1.0  0.5826660831804155  0.3282629054347701  0.2532848227381001  1.0000
  H   H1        1.0  0.7350000256700371  0.33952629651827126  0.017293370161469698  1.0000
  H   H2        1.0  0.5869384768932437  0.2909856406814244  0.9042928468173219  1.0000
  H   H3        1.0  0.4194708654377959  0.3770490734985308  0.31088269358899434  1.0000
  H   H4        1.0  0.2143309914850863  0.21702464184491488  0.08698435248637892  1.0000
  H   H5        1.0  0.3109139429831004  0.14027400033469767  0.9035254333000067  1.0000
  H   H6        1.0  0.4610522248589478  0.1781987330166324  0.9214967567548067  1.0000
  H   H7        1.0  0.5569080314351371  0.3313678040515058  0.3562522271893045  1.0000
  C   C13       1.0  0.9939044099901612  0.006304082172789985  0.405242296534835  1.0000
  C   C14       1.0  0.9701308307590674  0.01518309776477866  0.2589522794922931  1.0000
  C   C15       1.0  0.9571895529037161  0.9025314209743669  0.1857287947747439  1.0000
  C   C16       1.0  0.9700691739819579  0.7799227638893375  0.2585716226035515  1.0000
  C   C17       1.0  0.9938567664155058  0.7689665201352092  0.4049524318190041  1.0000
  C   C18       1.0  0.00543978845073645  0.8826964881613951  0.47751231020887025  1.0000
  C   C19       1.0  0.9341366326136222  0.9131684154428359  0.028130697198533346  1.0000
  O   O1        1.0  0.007799774133689928  0.9168550207656794  0.9454076133081313  1.0000
  C   C20       1.0  0.9869963605500499  0.9268673585318591  0.7971707482011579  1.0000
  H   H8        1.0  0.003954437503516537  0.33030807901434733  0.4608377806832482  1.0000
  H   H9        1.0  0.9615985950867465  0.10963891195524966  0.20135382409387836  1.0000
  H   H10       1.0  0.9614938538612309  0.6932302203755654  0.20071184943289477  1.0000
  H   H11       1.0  0.023782062534960513  0.8750855645327528  0.5903332418447629  1.0000
  H   H12       1.0  0.039642207211607605  0.5410554538587805  0.6806452946831372  1.0000
  H   H13       1.0  0.8956855218262234  0.0031159847833439652  0.004189680838805333  1.0000
  H   H14       1.0  0.895717649005696  0.8280234079866265  0.003858972632539986  1.0000
  H   H15       1.0  0.04543117948488473  0.9296521033526898  0.7336037865597245  1.0000
  H   H16       1.0  0.9513924181789042  0.018345540695843945  0.767254792852053  1.0000
  H   H17       1.0  0.9514054698672393  0.8408606439792804  0.7668974833460354  1.0000
  C   C21       1.0  0.9921917611590991  0.38460629939643254  0.9817428841661848  1.0000
  C   C22       1.0  0.04880972551365326  0.3030267917118965  0.06180367838202083  1.0000
  C   C23       1.0  0.10952941181799614  0.23187946242064816  0.9929761429064777  1.0000
  C   C24       1.0  0.11568439063571477  0.2399705981729352  0.8420851096553732  1.0000
  C   C25       1.0  0.05806660439754996  0.3198098358780539  0.7606448762256552  1.0000
  C   C26       1.0  0.995569376173549  0.3906643255167279  0.8284518689182553  1.0000
  C   C27       1.0  0.18417304329670237  0.1602294576724064  0.77568116548753  1.0000
  C   C28       1.0  0.1643407158396819  0.10124037104790662  0.633686557966179  1.0000
  C   C29       1.0  0.2229275742646155  0.21621756039021522  0.6355796812719707  1.0000
  H   H18       1.0  0.8667541863660869  0.475182482930703  0.25518319136950396  1.0000
  H   H19       1.0  0.04749134891667462  0.29650565100724147  0.17888626649751727  1.0000
  H   H20       1.0  0.1526588106964577  0.170912752790217  0.05845161152016032  1.0000
  H   H21       1.0  0.059929700016841725  0.32538232990318816  0.6438560723706059  1.0000
  H   H22       1.0  0.8064343911703955  0.5170159216190326  0.7144909773342176  1.0000
  H   H23       1.0  0.22771607822093687  0.10084907370340068  0.8477081737313497  1.0000
  H   H24       1.0  0.10246139173244928  0.1247703728690084  0.5842544332572275  1.0000
  H   H25       1.0  0.19670381013424132  0.007038036634958938  0.6192932296799039  1.0000
  H   H26       1.0  0.19667660472280257  0.3095295374489657  0.5871806847413268  1.0000
  H   H27       1.0  0.28954185334936655  0.18920563366785892  0.6222889342921327  1.0000
  Zn  Zn1       1.0  0.9025979388673938  0.38965780974591113  0.4054798949508842  1.0000
  Zn  Zn2       1.0  0.08515523125991864  0.3856123428186674  0.4047141770870122  1.0000
  C   C30       1.0  0.994929407882828  0.3843460190970287  0.6684076724492747  1.0000
  C   C31       1.0  0.9928257562264853  0.39092572878263976  0.14178653210366177  1.0000
  C   C32       1.0  0.9938385448249013  0.6247660787693936  0.3992623032600189  1.0000
  C   C33       1.0  0.9939165573944961  0.1505041108718548  0.41093197900845957  1.0000
  O   O2        1.0  0.06231807217446496  0.3915056881420258  0.19520805858288148  1.0000
  O   O3        1.0  0.06399385117829959  0.3806946613378561  0.6144045691978666  1.0000
  O   O4        1.0  0.06311203752170846  0.5748369314709445  0.39706778273346344  1.0000
  O   O5        1.0  0.06319982310483457  0.19736342790541328  0.41254473721023066  1.0000
  O   O6        1.0  0.9245532847246033  0.5779067260410442  0.3976493350813839  1.0000
  O   O7        1.0  0.9254350979732356  0.38376601552825457  0.6149860440839632  1.0000
  O   O8        1.0  0.9237593121132958  0.39457698467776603  0.1957878001880058  1.0000
  O   O9        1.0  0.9246410634720124  0.20043471592655648  0.41312458690612774  1.0000
