data_image0
_chemical_formula_structural       NC9NC5H8C6NH7C6OCH6Zn2C4O8
_chemical_formula_sum              "N3 C31 H21 O9 Zn2"
_cell_length_a       17.807436237873137
_cell_length_b       9.274771166103582
_cell_length_c       9.27389158865715
_cell_angle_alpha    85.97469330815719
_cell_angle_beta     89.08663702953788
_cell_angle_gamma    88.98784114054227

_space_group_name_H-M_alt    "P 1"
_space_group_IT_number       1

loop_
  _space_group_symop_operation_xyz
  'x, y, z'

loop_
  _atom_site_type_symbol
  _atom_site_label
  _atom_site_symmetry_multiplicity
  _atom_site_fract_x
  _atom_site_fract_y
  _atom_site_fract_z
  _atom_site_occupancy
  N   N1        1.0  0.7203875193764746  0.5262602856014519  0.3955598679726724  1.0000
  C   C1        1.0  0.659621991597388  0.4870738829819136  0.3833995627923701  1.0000
  C   C2        1.0  0.5840363538290849  0.43833031338204886  0.36827346338341016  1.0000
  C   C3        1.0  0.5658458486881505  0.3579633029249971  0.2518817605810393  1.0000
  C   C4        1.0  0.4924556881384268  0.310512406331678  0.2371038196860673  1.0000
  C   C5        1.0  0.4362051323399129  0.3430089859904608  0.338682371249692  1.0000
  C   C6        1.0  0.3582107453302659  0.2927093411097099  0.3230680970853457  1.0000
  C   C7        1.0  0.2964468971110675  0.38375430093464286  0.3516831272682621  1.0000
  C   C8        1.0  0.22291315949503018  0.3360780927765896  0.3369208060374205  1.0000
  C   C9        1.0  0.16011435535648463  0.4301151978778129  0.36593397625448515  1.0000
  N   N2        1.0  0.1096370720679702  0.50571453564344  0.3892597712764816  1.0000
  C   C10       1.0  0.2105582443516195  0.19707020927280228  0.29351587083403907  1.0000
  C   C11       1.0  0.27146466552953696  0.10600978265421322  0.2648915584287399  1.0000
  C   C12       1.0  0.34487722590670683  0.153245836323193  0.2794299232956041  1.0000
  C   C13       1.0  0.45508933840592736  0.42392716554991927  0.45531634260754084  1.0000
  C   C14       1.0  0.5285317118116093  0.4711650665861775  0.46992193147577455  1.0000
  H   H1        1.0  0.6083321946916475  0.3322661446357906  0.17233457737832603  1.0000
  H   H2        1.0  0.4794813106807839  0.25006039328538776  0.14518379879154097  1.0000
  H   H3        1.0  0.3054426146311319  0.49227189730442866  0.3835255892020464  1.0000
  H   H4        1.0  0.15392084306774725  0.159169208367397  0.2818292942808809  1.0000
  H   H5        1.0  0.2617793749216277  0.998390596339117  0.23171498150460001  1.0000
  H   H6        1.0  0.391180596700413  0.08004957022094117  0.2584285288011787  1.0000
  H   H7        1.0  0.4133125035902741  0.4490389456951844  0.5363014680195703  1.0000
  H   H8        1.0  0.542045130412974  0.5329618001892173  0.5606832177156604  1.0000
  C   C15       1.0  0.9127077117984697  0.09251961109405582  0.39323278594577893  1.0000
  C   C16       1.0  0.8957926046753161  0.1755578213916673  0.2646105507669527  1.0000
  C   C17       1.0  0.8858924726304709  0.10986024291676254  0.1350569880843291  1.0000
  C   C18       1.0  0.8929495090262544  0.9597362811706183  0.13318545065944545  1.0000
  C   C19       1.0  0.9084807845690196  0.8754357041043146  0.2600594290247311  1.0000
  C   C20       1.0  0.9173239681356593  0.9394439216860654  0.39159930150050193  1.0000
  N   N3        1.0  0.8694428790241848  0.19596059394997933  0.005010576695681839  1.0000
  H   H9        1.0  0.996334950518745  0.17061296276062168  0.7073274562651823  1.0000
  H   H10       1.0  0.8920071009185724  0.2923453420071582  0.26411814818815205  1.0000
  H   H11       1.0  0.8856878435534786  0.9077315758978223  0.033501301262707006  1.0000
  H   H12       1.0  0.9118026368477282  0.7590590938438825  0.25587764558696713  1.0000
  H   H13       1.0  0.9705999033233357  0.6415026033502673  0.6053534813942347  1.0000
  H   H14       1.0  0.8642680987883107  0.30830721241932685  0.005047515665744351  1.0000
  H   H15       1.0  0.8622451478112583  0.14799111623154282  0.9076958011688028  1.0000
  C   C21       1.0  0.916225463876825  0.5120976383551054  0.9691281480066251  1.0000
  C   C22       1.0  0.9780667465202879  0.5697597459431492  0.036588836305878836  1.0000
  C   C23       1.0  0.035706336031657626  0.6384147990794966  0.9557142643372263  1.0000
  C   C24       1.0  0.03171132808765287  0.6497582807846064  0.8043178269349142  1.0000
  C   C25       1.0  0.9714432534473562  0.591139725039184  0.735491085317427  1.0000
  C   C26       1.0  0.9138061877401057  0.5198658049802349  0.8157038863231945  1.0000
  O   O1        1.0  0.0954867458837807  0.6944096854545221  0.02984448365321323  1.0000
  C   C27       1.0  0.15775080577044373  0.7670371539093819  0.9616206803792222  1.0000
  H   H16       1.0  0.7370898759971419  0.4329578131909386  0.0832077290424229  1.0000
  H   H17       1.0  0.07527821021511638  0.7025403385404717  0.7385892061692871  1.0000
  H   H18       1.0  0.7943122793299942  0.4608074579231305  0.5423155314510972  1.0000
  H   H19       1.0  0.1381211657409922  0.8656858794315793  0.8973632010573437  1.0000
  H   H20       1.0  0.18867805369188062  0.6938155611503369  0.8908391774744665  1.0000
  H   H21       1.0  0.19638631613415858  0.7994764298732486  0.04577546509289165  1.0000
  Zn  Zn1       1.0  0.8327164860414756  0.5203274546569732  0.39375013993412145  1.0000
  Zn  Zn2       1.0  0.9973079892710801  0.5116357205589732  0.3910813721413633  1.0000
  C   C28       1.0  0.9142305073165283  0.5126527921861928  0.6556940700016266  1.0000
  C   C29       1.0  0.9157957748432156  0.519312108918923  0.12913755089880063  1.0000
  C   C30       1.0  0.9164639369535353  0.7793046652810528  0.38616409117737877  1.0000
  C   C31       1.0  0.9135622793796274  0.2526585069529861  0.398667610824512  1.0000
  O   O2        1.0  0.9781131506874123  0.5184285921778693  0.18182539687858434  1.0000
  O   O3        1.0  0.9768342692916674  0.5069383921797552  0.600980278178362  1.0000
  O   O4        1.0  0.97863694567349  0.7222632101951332  0.3833329240694461  1.0000
  O   O5        1.0  0.97631041850674  0.3031037864524204  0.39947264380046416  1.0000
  O   O6        1.0  0.8537140006388438  0.728859391731089  0.38535886917815465  1.0000
  O   O7        1.0  0.8519113339166303  0.5135363055543491  0.6030061430887415  1.0000
  O   O8        1.0  0.8531902200408924  0.5250264393957986  0.18384952885975325  1.0000
  O   O9        1.0  0.851387487492098  0.30970162434798243  0.4014968838718045  1.0000
