data_image0
_chemical_formula_structural       NC9NC3NH7C9H10C6SCNH5Zn2C4O8
_chemical_formula_sum              "N4 C32 H22 S1 Zn2 O8"
_cell_length_a       16.053384444249904
_cell_length_b       9.272676604525723
_cell_length_c       10.302218930750287
_cell_angle_alpha    85.8010258303436
_cell_angle_beta     89.81672032337951
_cell_angle_gamma    89.72820801156413

_space_group_name_H-M_alt    "P 1"
_space_group_IT_number       1

loop_
  _space_group_symop_operation_xyz
  'x, y, z'

loop_
  _atom_site_type_symbol
  _atom_site_label
  _atom_site_symmetry_multiplicity
  _atom_site_fract_x
  _atom_site_fract_y
  _atom_site_fract_z
  _atom_site_occupancy
  N   N1        1.0  0.7928508786316423  0.5590440249672706  0.5710029142449577  1.0000
  C   C1        1.0  0.7419556701837591  0.5359496401513668  0.4960854723781389  1.0000
  C   C2        1.0  0.6787068723395243  0.5072546129527469  0.40301972240049827  1.0000
  C   C3        1.0  0.6922294909088483  0.49386761701574156  0.2722701494688715  1.0000
  C   C4        1.0  0.6154406880275858  0.465756352443625  0.2199209482975239  1.0000
  C   C5        1.0  0.5583485841242914  0.4635574526995841  0.3215560539612485  1.0000
  C   C6        1.0  0.4675472465834782  0.43711069739486214  0.3112086500675382  1.0000
  C   C7        1.0  0.4119298197171234  0.48451773482150307  0.4052751948510049  1.0000
  C   C8        1.0  0.3262400471983623  0.4594354697777907  0.3953653098820533  1.0000
  C   C9        1.0  0.2698537045732819  0.5087793854858598  0.49181068416777696  1.0000
  N   N2        1.0  0.2245357069831244  0.5484449356733574  0.5693376643714434  1.0000
  C   C10       1.0  0.2954409810769254  0.38682183060599606  0.29140210023701413  1.0000
  C   C11       1.0  0.3500506281367172  0.3395475621790176  0.19754768533154984  1.0000
  C   C12       1.0  0.43553334940404  0.3644458930276083  0.20706037705203048  1.0000
  N   N3        1.0  0.597696279628794  0.4890437429428227  0.43318000240658416  1.0000
  H   H1        1.0  0.7510095020751226  0.503463971660534  0.2207058719300552  1.0000
  H   H2        1.0  0.6030797190992753  0.4504815306088428  0.11871367299931612  1.0000
  H   H3        1.0  0.4345842024791328  0.5427480325925818  0.4852793726062867  1.0000
  H   H4        1.0  0.2293062989394866  0.36687513779248704  0.28289387455279336  1.0000
  H   H5        1.0  0.3261160288076374  0.283140128137257  0.11731684870720893  1.0000
  H   H6        1.0  0.476422168795693  0.32510538034520065  0.13367887162680936  1.0000
  H   H7        1.0  0.5715610795587627  0.4916564512863284  0.5259239182263618  1.0000
  C   C13       1.0  0.0063367808209686665  0.13031402078019627  0.5685207886437222  1.0000
  C   C14       1.0  0.9730112304498688  0.19522678830534754  0.6761766414406687  1.0000
  C   C15       1.0  0.9473073949714036  0.11171627504454706  0.7869762334904339  1.0000
  C   C16       1.0  0.9540996736685105  0.9607999342751677  0.7938481738194563  1.0000
  C   C17       1.0  0.9860603005742116  0.8944710551183117  0.6851972731808367  1.0000
  C   C18       1.0  0.011057725873209193  0.9771636726810474  0.5718309396725136  1.0000
  C   C19       1.0  0.9254198867735439  0.8778830085882643  0.9186791606319581  1.0000
  C   C20       1.0  0.8833186778538731  0.7328227886647708  0.9059144929878574  1.0000
  C   C21       1.0  0.9712839306986102  0.7381042526820971  0.9605111616513401  1.0000
  H   H8        1.0  0.02479924323455296  0.4286948275100536  0.3556940047797408  1.0000
  H   H9        1.0  0.9686159986892935  0.3118572351216775  0.6760687848160527  1.0000
  H   H10       1.0  0.9226443915586909  0.16576516668253524  0.8686489595023847  1.0000
  H   H11       1.0  0.9900343159781226  0.7779730963659215  0.6863875835654738  1.0000
  H   H12       1.0  0.032619589699124374  0.8998309257890577  0.2538415912788643  1.0000
  H   H13       1.0  0.9018535295584497  0.9385814306025918  0.000516712301078748  1.0000
  H   H14       1.0  0.8794367094553337  0.6936716286978093  0.80695109615921  1.0000
  H   H15       1.0  0.8350557469411889  0.7052226555907848  0.9810031388599858  1.0000
  H   H16       1.0  0.02081079217490811  0.702033441286993  0.8947890842926075  1.0000
  H   H17       1.0  0.9744303178245325  0.7135848773643034  0.06752609354633486  1.0000
  C   C22       1.0  0.008619951912209661  0.5538082984745094  0.1889012526074001  1.0000
  C   C23       1.0  0.08669728816089894  0.48469702859933617  0.19211469670596878  1.0000
  C   C24       1.0  0.12550892467132058  0.4498548976652461  0.07673482910634588  1.0000
  C   C25       1.0  0.08689939468953689  0.4845134595429878  0.9569589683424858  1.0000
  C   C26       1.0  0.00877451152101405  0.5536693973577578  0.9514504562846064  1.0000
  C   C27       1.0  0.970049350637129  0.5878847080484284  0.06798700863523921  1.0000
  S   S1        1.0  0.22532133770593366  0.36219099920038456  0.0822769578860758  1.0000
  C   C28       1.0  0.18077824776538054  0.18805812800983138  0.09402300288629005  1.0000
  N   N4        1.0  0.15155133204134708  0.07390661292338474  0.10172364417095835  1.0000
  H   H18       1.0  0.978917571084481  0.5801774915185607  0.5150086270479113  1.0000
  H   H19       1.0  0.11763588769371676  0.45739938720212336  0.28396290255543  1.0000
  H   H20       1.0  0.11797652321871821  0.4570899251680136  0.868538937913387  1.0000
  H   H21       1.0  0.9098309773636122  0.6411662847677602  0.06466186983002387  1.0000
  H   H22       1.0  0.86155790323456  0.6841591075920713  0.7338404948216065  1.0000
  Zn  Zn1       1.0  0.9174257729996159  0.5559815098633465  0.570529835056741  1.0000
  Zn  Zn2       1.0  0.0999607258188211  0.5514957015234074  0.5698213092653637  1.0000
  C   C29       1.0  0.00871142644811607  0.5479514214211947  0.8072898859636306  1.0000
  C   C30       1.0  0.008677075814425006  0.5595275603016145  0.33306138516771155  1.0000
  C   C31       1.0  0.010160007475979786  0.8170921222264951  0.5660313630391318  1.0000
  C   C32       1.0  0.007228422856653265  0.29038512862488974  0.5743199707839854  1.0000
  O   O1        1.0  0.07796727535562825  0.5597383653096284  0.38117393614015843  1.0000
  O   O2        1.0  0.07796102638561297  0.5443349039689572  0.7586392023042512  1.0000
  O   O3        1.0  0.07912984035201798  0.7616694463204352  0.5638212475837119  1.0000
  O   O4        1.0  0.07679839914017683  0.3424038348214315  0.5759917937922006  1.0000
  O   O5        1.0  0.9405880373880472  0.7650733780976802  0.5643593507648661  1.0000
  O   O6        1.0  0.9394192330613363  0.5477405681499834  0.7591772430285918  1.0000
  O   O7        1.0  0.9394254814902093  0.5631439795263312  0.38171041565332064  1.0000
  O   O8        1.0  0.9382566052335908  0.34580943870721037  0.576528370608822  1.0000
