data_image0
_chemical_formula_structural       NC8NH4C6ClH3C6H4Zn2C4O8
_chemical_formula_sum              "N2 C24 H11 Cl1 Zn2 O8"
_cell_length_a       14.927258825633057
_cell_length_b       9.276545438789551
_cell_length_c       10.681121600428286
_cell_angle_alpha    85.59384611870172
_cell_angle_beta     89.9998652976436
_cell_angle_gamma    89.40960858786079

_space_group_name_H-M_alt    "P 1"
_space_group_IT_number       1

loop_
  _space_group_symop_operation_xyz
  'x, y, z'

loop_
  _atom_site_type_symbol
  _atom_site_label
  _atom_site_symmetry_multiplicity
  _atom_site_fract_x
  _atom_site_fract_y
  _atom_site_fract_z
  _atom_site_occupancy
  N   N1        1.0  0.8334658141479216  0.5780585798890427  0.6194687844583237  1.0000
  C   C1        1.0  0.7559393899697179  0.5780585534408302  0.6194687928305345  1.0000
  C   C2        1.0  0.659506748225724  0.5780585531511235  0.6194688406844993  1.0000
  C   C3        1.0  0.6130200158900009  0.4897551951007207  0.5414598907897441  1.0000
  C   C4        1.0  0.5193087049092694  0.48975510528063987  0.5414598660144214  1.0000
  C   C5        1.0  0.47169075047747555  0.5780586061873902  0.6194687644164052  1.0000
  C   C6        1.0  0.5181774827510149  0.666361974551182  0.6974776204267661  1.0000
  C   C7        1.0  0.6118888607233015  0.6663620643682973  0.6974776452072348  1.0000
  C   C8        1.0  0.3752581093590228  0.5780585085799996  0.6194687166372667  1.0000
  N   N2        1.0  0.2977316844930941  0.5780585897628601  0.6194687267581863  1.0000
  H   H1        1.0  0.6491562034524291  0.42105000298108797  0.4807645659952344  1.0000
  H   H2        1.0  0.48405254772102874  0.4210499793100362  0.480764650456031  1.0000
  H   H3        1.0  0.4820412951885866  0.7350671666708146  0.7581729452212757  1.0000
  H   H4        1.0  0.6471449509821712  0.7350671800284776  0.7581729546448737  1.0000
  C   C9        1.0  0.06830674069435139  0.15462341911506816  0.6192623344872736  1.0000
  C   C10       1.0  0.06863742935203332  0.23827489669510207  0.5036759860372209  1.0000
  C   C11       1.0  0.06081806389527711  0.1731955146886086  0.3906053954679938  1.0000
  C   C12       1.0  0.05248291692591933  0.023604372697446203  0.39138159006147755  1.0000
  C   C13       1.0  0.053534194665464614  0.9384144798623066  0.5048463495560057  1.0000
  C   C14       1.0  0.06289944122262825  0.0014826471502851222  0.6196860415873875  1.0000
  Cl  Cl1       1.0  0.060113565263989255  0.2798169343812489  0.24763810193210384  1.0000
  H   H5        1.0  0.11413795690356829  0.41758242050340605  0.8161472913079396  1.0000
  H   H6        1.0  0.0728349032344362  0.35499546218897104  0.5011966141407318  1.0000
  H   H7        1.0  0.046041607807221656  0.972882781034541  0.3039034296002272  1.0000
  C   C15       1.0  0.06560310005809189  0.578052993574475  0.2517289544563308  1.0000
  C   C16       1.0  0.001994868004822296  0.4978580450872781  0.19026634346637428  1.0000
  C   C17       1.0  0.001994811482935568  0.49785813754521696  0.05938420355974094  1.0000
  C   C18       1.0  0.06560302918220917  0.5780530642578174  0.9872193901680419  1.0000
  C   C19       1.0  0.12915876254408065  0.6581815551491197  0.04868138756140516  1.0000
  C   C20       1.0  0.1291587512253327  0.6581815327899547  0.1795736862132644  1.0000
  H   H8        1.0  0.9521357328928044  0.4349974542800828  0.2432717279728429  1.0000
  H   H9        1.0  0.952135713749938  0.4349975221542657  0.014767698781269935  1.0000
  H   H10       1.0  0.17902440815264398  0.721050429363806  0.9957203425669844  1.0000
  H   H11       1.0  0.1790243633396491  0.7210503788160201  0.22414471002610226  1.0000
  Zn  Zn1       1.0  0.9674429489720827  0.5780547112965797  0.6194760049617996  1.0000
  Zn  Zn2       1.0  0.16375463834658555  0.578050620850154  0.6194717835892074  1.0000
  C   C21       1.0  0.06563774650168974  0.5723086727039317  0.8481930910595229  1.0000
  C   C22       1.0  0.06556197291760424  0.583798478762747  0.39075482126859246  1.0000
  C   C23       1.0  0.06391690761780164  0.8414081932157104  0.6146156442280282  1.0000
  C   C24       1.0  0.06728275587571764  0.31469722584338355  0.6243323339999893  1.0000
  O   O1        1.0  0.14004747347120297  0.5857188730835234  0.43741156705154366  1.0000
  O   O2        1.0  0.14014828278576164  0.5703840860398933  0.8015327803171252  1.0000
  O   O3        1.0  0.13875767933827343  0.7876853521020735  0.6129173401732232  1.0000
  O   O4        1.0  0.14143800986495192  0.3684176173376976  0.6260269133059055  1.0000
  O   O5        1.0  0.9897595104621616  0.787687714812002  0.6129208752399558  1.0000
  O   O6        1.0  0.9911501028438693  0.5703881811603725  0.8015362494788099  1.0000
  O   O7        1.0  0.991049293909813  0.5857229179560781  0.4374135305655026  1.0000
  O   O8        1.0  0.992439830365746  0.3684216518968637  0.626028970704259  1.0000
