data_image0
_chemical_formula_structural       NC10NC3NH7C7OC3OC4H12C6SCOC6H10Zn2C4O8
_chemical_formula_sum              "N3 C44 H29 O11 S1 Zn2"
_cell_length_a       19.210446455230148
_cell_length_b       10.299371110280156
_cell_length_c       10.302041481415108
_cell_angle_alpha    85.5593769261431
_cell_angle_beta     89.98692140310254
_cell_angle_gamma    89.9600477448761

_space_group_name_H-M_alt    "P 1"
_space_group_IT_number       1

loop_
  _space_group_symop_operation_xyz
  'x, y, z'

loop_
  _atom_site_type_symbol
  _atom_site_label
  _atom_site_symmetry_multiplicity
  _atom_site_fract_x
  _atom_site_fract_y
  _atom_site_fract_z
  _atom_site_occupancy
  N   N1        1.0  0.6556887353511919  0.4206922597701796  0.5681485171483005  1.0000
  C   C1        1.0  0.595460270523484  0.42289966907440685  0.5683804162219224  1.0000
  C   C2        1.0  0.5206559357425662  0.42563645247123477  0.5686677109930454  1.0000
  C   C3        1.0  0.4850493940655256  0.5418602976016056  0.5838183837620345  1.0000
  C   C4        1.0  0.41238392099222554  0.5420118524109268  0.583765852963023  1.0000
  C   C5        1.0  0.3754892075196914  0.426345380748846  0.5687544326024314  1.0000
  C   C6        1.0  0.2981670292783924  0.42498897331233637  0.5686033811072981  1.0000
  C   C7        1.0  0.2604175953099945  0.5285815781635115  0.5052931290636371  1.0000
  C   C8        1.0  0.1876391886643443  0.527179400921282  0.505183569582933  1.0000
  C   C9        1.0  0.1516088153386782  0.42244214460472085  0.5683333700404838  1.0000
  C   C10       1.0  0.0766792482120984  0.42114012564866926  0.5681960985617502  1.0000
  N   N2        1.0  0.016441358046227896  0.4200932581869743  0.5680857671450252  1.0000
  C   C11       1.0  0.1886345968786498  0.31897524012423073  0.6316186647560835  1.0000
  C   C12       1.0  0.2614148414708238  0.3201031337765521  0.6317783594601605  1.0000
  C   C13       1.0  0.4137056757031702  0.31194166832075565  0.5538925220304485  1.0000
  N   N3        1.0  0.4844757121589733  0.31438655821744477  0.5540589361697781  1.0000
  H   H1        1.0  0.5131535351392081  0.6312886087979044  0.5958966341581351  1.0000
  H   H2        1.0  0.3851182492912334  0.63202151290068  0.5972387313094196  1.0000
  H   H3        1.0  0.2871483412507155  0.6098527613006346  0.4543432145092223  1.0000
  H   H4        1.0  0.1594961978499784  0.6076224008241834  0.45556345538858095  1.0000
  H   H5        1.0  0.1612642216510572  0.23756888943245857  0.681138966391124  1.0000
  H   H6        1.0  0.28891294910082643  0.23977879263409307  0.6828359270219908  1.0000
  H   H7        1.0  0.3874371223461072  0.22106911261385487  0.5403730935257922  1.0000
  C   C14       1.0  0.8360214455944965  0.039021488646606484  0.5680023738691464  1.0000
  C   C15       1.0  0.828005860883263  0.048371003254209066  0.4320498348783348  1.0000
  C   C16       1.0  0.823176723909231  0.9359009660028693  0.3636474234689666  1.0000
  C   C17       1.0  0.8280404016845467  0.8131029534814498  0.4323608435325968  1.0000
  C   C18       1.0  0.8361153024739141  0.8017540673791472  0.5682431545872337  1.0000
  C   C19       1.0  0.8398768495447902  0.9153111160196178  0.6353153537344461  1.0000
  C   C20       1.0  0.8154387703025283  0.9456442205691501  0.21993470010552207  1.0000
  O   O1        1.0  0.8439754859085883  0.8605810898176555  0.15592147080679175  1.0000
  C   C21       1.0  0.7753196058195931  0.05180550472949452  0.14884714285193756  1.0000
  C   C22       1.0  0.7947810392124229  0.09697894116788827  0.021730348670555125  1.0000
  C   C23       1.0  0.7571322318443362  0.19607967813192295  0.9523720038941046  1.0000
  O   O2        1.0  0.7793608586712705  0.2378955015855191  0.8262991994590255  1.0000
  C   C24       1.0  0.7461828939753589  0.3374649725847516  0.7448886509294961  1.0000
  C   C25       1.0  0.6987375918055022  0.2500143996456099  0.010856842289882925  1.0000
  C   C26       1.0  0.6785615571169584  0.20455285700511847  0.13645704959671234  1.0000
  C   C27       1.0  0.7163339206799486  0.10573348612878929  0.20506336771046937  1.0000
  H   H8        1.0  0.8522099436731898  0.22871574555323135  0.8243337444428702  1.0000
  H   H9        1.0  0.826284106964753  0.14332738232690345  0.3790325745575045  1.0000
  H   H10       1.0  0.8248417701009678  0.7262668910421289  0.37965103796621835  1.0000
  H   H11       1.0  0.8460567260672752  0.9072995233459851  0.7401247996647651  1.0000
  H   H12       1.0  0.8397963265673968  0.46994612187216334  0.6203174392320021  1.0000
  H   H13       1.0  0.8397896120117627  0.056024510302284954  0.9763600793067799  1.0000
  H   H14       1.0  0.7745819383538243  0.35054277579647475  0.6510343451741685  1.0000
  H   H15       1.0  0.7472067792686975  0.43090304358075193  0.7918967532991492  1.0000
  H   H16       1.0  0.6916316917680904  0.30932933089818637  0.7251384513573993  1.0000
  H   H17       1.0  0.6685034785393812  0.32658214710382416  0.9599852985129114  1.0000
  H   H18       1.0  0.633289943467764  0.24566956908608148  0.1806059126021673  1.0000
  H   H19       1.0  0.6989658145327681  0.07057937599409625  0.3014229711768739  1.0000
  C   C28       1.0  0.8360814374930554  0.4205170209932562  0.18683576367197152  1.0000
  C   C29       1.0  0.8680087317527562  0.5435630245200476  0.1759560971387526  1.0000
  C   C30       1.0  0.884204330707216  0.6042625355807567  0.05358713904483636  1.0000
  C   C31       1.0  0.8680747468850517  0.5431590504082358  0.9408505462332881  1.0000
  C   C32       1.0  0.836055324487384  0.4202585042542686  0.9494097775004212  1.0000
  C   C33       1.0  0.8202757726444574  0.3595197467831414  0.07297207759103563  1.0000
  S   S1        1.0  0.9256120343278299  0.7607274465524321  0.041106818078311624  1.0000
  C   C34       1.0  0.01135219363982576  0.6907840455688568  0.04363828213180777  1.0000
  O   O3        1.0  0.03859128133913092  0.6675659510259204  0.9365659635759433  1.0000
  C   C35       1.0  0.0497164103697001  0.6593775111260178  0.16714622360010467  1.0000
  C   C36       1.0  0.11145857367563682  0.5855512697337644  0.16730448399324094  1.0000
  C   C37       1.0  0.1477355560152558  0.5545941391061373  0.28324049484642555  1.0000
  C   C38       1.0  0.1230092156814775  0.5969829234708279  0.40019573570527056  1.0000
  C   C39       1.0  0.062015184222445896  0.6706491111254271  0.401417561847597  1.0000
  C   C40       1.0  0.025530475968885243  0.7019807231420443  0.2857811112172115  1.0000
  H   H20       1.0  0.7757997681760057  0.18871010854030085  0.41465044938843976  1.0000
  H   H21       1.0  0.8805195180559566  0.5924702685434757  0.26228370073187324  1.0000
  H   H22       1.0  0.8808805377345806  0.5917342727240686  0.8468922937102056  1.0000
  H   H23       1.0  0.7956637203887944  0.2646598262568871  0.08043896993804522  1.0000
  H   H24       1.0  0.8240715936090689  0.37336153596341326  0.6253377860978575  1.0000
  H   H25       1.0  0.13156166254543433  0.5510598223154741  0.07797145741337697  1.0000
  H   H26       1.0  0.19504607649068656  0.49753083128875475  0.28236726036600723  1.0000
  H   H27       1.0  0.15115462859658857  0.5728848991950233  0.48984531667758735  1.0000
  H   H28       1.0  0.04299281756520834  0.7037517195340377  0.49210400064600407  1.0000
  H   H29       1.0  0.9787483249831027  0.7599852152020017  0.2898818097000804  1.0000
  Zn  Zn1       1.0  0.7597941480526613  0.4205159342360107  0.5681379052156803  1.0000
  Zn  Zn2       1.0  0.9123359277382191  0.42025899750357953  0.5681070092296734  1.0000
  C   C41       1.0  0.8360580527310335  0.41513367743868534  0.8052653021501011  1.0000
  C   C42       1.0  0.8360736890085939  0.4256428900816902  0.3309797399141854  1.0000
  C   C43       1.0  0.8360941500114815  0.6575831250948823  0.5630235679083686  1.0000
  C   C44       1.0  0.836037539481939  0.18319188217746563  0.5732215428976919  1.0000
  O   O4        1.0  0.8939598982617886  0.42726000664575486  0.3793440484584347  1.0000
  O   O5        1.0  0.8939475245749169  0.4133205722379494  0.7568771701923707  1.0000
  O   O6        1.0  0.8939758931702685  0.6091015682688592  0.5612652564760243  1.0000
  O   O7        1.0  0.89393147761874  0.23147902002580126  0.5749558648345054  1.0000
  O   O8        1.0  0.7781985461171178  0.6092959118028853  0.5612890496145619  1.0000
  O   O9        1.0  0.7781701777129506  0.41351647610910036  0.7569008945928484  1.0000
  O   O10       1.0  0.7781825514940498  0.42745586578975076  0.3793662117793417  1.0000
  O   O11       1.0  0.7781541308436757  0.23167486984793761  0.5749781254994022  1.0000
