data_image0
_chemical_formula_structural       NC5N2C2NH4C7NH5C6BrH3Zn2C4O8
_chemical_formula_sum              "N5 C24 H12 Br1 Zn2 O8"
_cell_length_a       13.87973921873968
_cell_length_b       9.275154477615127
_cell_length_c       9.275428193871798
_cell_angle_alpha    86.39200360318996
_cell_angle_beta     89.94092707489388
_cell_angle_gamma    89.4337086285363

_space_group_name_H-M_alt    "P 1"
_space_group_IT_number       1

loop_
  _space_group_symop_operation_xyz
  'x, y, z'

loop_
  _atom_site_type_symbol
  _atom_site_label
  _atom_site_symmetry_multiplicity
  _atom_site_fract_x
  _atom_site_fract_y
  _atom_site_fract_z
  _atom_site_occupancy
  N   N1        1.0  0.8980140080447304  0.5611038573370049  0.41672582665388264  1.0000
  C   C1        1.0  0.8247857508574228  0.585034494844368  0.36020260188763714  1.0000
  C   C2        1.0  0.7338389172983332  0.6147586801527363  0.2899946476428952  1.0000
  C   C3        1.0  0.6475464537609086  0.5848442774526954  0.363048016886786  1.0000
  C   C4        1.0  0.5609595165421414  0.6147586159604366  0.28999468727707756  1.0000
  C   C5        1.0  0.4703086301549131  0.5850343490796197  0.360202498120215  1.0000
  N   N2        1.0  0.3973185770685305  0.5611038326023579  0.41672581556640526  1.0000
  N   N3        1.0  0.5623156855975658  0.6719172471816364  0.15151489435509702  1.0000
  C   C6        1.0  0.6469672841171619  0.7018003056795905  0.08250323435440143  1.0000
  C   C7        1.0  0.6466842796820321  0.7606751670916383  0.9290425215194418  1.0000
  N   N4        1.0  0.7319185845591625  0.6719172006415124  0.1515149049176987  1.0000
  H   H1        1.0  0.6477724325816644  0.5391066518981457  0.47355691182667337  1.0000
  H   H2        1.0  0.7112548253738766  0.8282957474579814  0.9069226317304446  1.0000
  H   H3        1.0  0.6473341100286097  0.6699856079923736  0.856488361285547  1.0000
  H   H4        1.0  0.5812500192643769  0.8282936760399529  0.9069218577788053  1.0000
  C   C8        1.0  0.15046015331314155  0.13769686191281605  0.41505829133008443  1.0000
  C   C9        1.0  0.12411094857257976  0.21952906156978513  0.28800286449764934  1.0000
  C   C10       1.0  0.08992004014786946  0.15221509880357265  0.16767775294836929  1.0000
  C   C11       1.0  0.08151494029951989  0.0021508990604883755  0.17299097913406225  1.0000
  C   C12       1.0  0.1087592899556773  0.9190803230744842  0.29715027870975197  1.0000
  C   C13       1.0  0.14488171116279913  0.9844998669545106  0.41840582636902934  1.0000
  C   C14       1.0  0.062290214555038796  0.2376128773759314  0.03909097689236596  1.0000
  N   N5        1.0  0.04008350088034484  0.3062571344674654  0.9357401461498331  1.0000
  H   H5        1.0  0.16887311591132345  0.21811763161536435  0.768778648606008  1.0000
  H   H6        1.0  0.12804883541334156  0.3364431356358695  0.283727150750594  1.0000
  H   H7        1.0  0.05472371507665641  0.9490439924580902  0.08051357388551694  1.0000
  H   H8        1.0  0.10370024117710573  0.8026113830635068  0.29702346022290227  1.0000
  H   H9        1.0  0.161369002801526  0.6882420350448424  0.6554085272485651  1.0000
  C   C15       1.0  0.14799149139335732  0.5566124116476889  0.9935606120371769  1.0000
  C   C16       1.0  0.23672448693107606  0.5592966799951737  0.06661654547849127  1.0000
  C   C17       1.0  0.3230687060363888  0.5751388067208878  0.9901424325911838  1.0000
  C   C18       1.0  0.32203949161640666  0.5887168144662203  0.8396388646585629  1.0000
  C   C19       1.0  0.23500389630101567  0.5839524284076697  0.7650675616228595  1.0000
  C   C20       1.0  0.14735039356275711  0.5655843057417915  0.8399034678617925  1.0000
  Br  Br1       1.0  0.4424886236914488  0.5806509454446087  0.09172815150242952  1.0000
  H   H10       1.0  0.9157407355788184  0.6280573935010463  0.09240839817025037  1.0000
  H   H11       1.0  0.3888473957970724  0.6016016723769395  0.7801099297587228  1.0000
  H   H12       1.0  0.9907007911870856  0.6075874512987132  0.5563334086798437  1.0000
  Zn  Zn1       1.0  0.042102541297307276  0.5611000747073043  0.4167341325423237  1.0000
  Zn  Zn2       1.0  0.2532300983030118  0.5610959295515494  0.41672927603476045  1.0000
  C   C21       1.0  0.14750724254005187  0.5581444445459618  0.6799038340552757  1.0000
  C   C22       1.0  0.14782769047492783  0.5640533804108345  0.15355972309868648  1.0000
  C   C23       1.0  0.1459355422377493  0.8243751798315866  0.41203060414956494  1.0000
  C   C24       1.0  0.14939933008771167  0.2978209136470562  0.42143302298613117  1.0000
  O   O1        1.0  0.2278945664116785  0.5665427741633833  0.20725501849551017  1.0000
  O   O2        1.0  0.2276813046912429  0.5556508126018009  0.6262044335577881  1.0000
  O   O3        1.0  0.22641105560490993  0.7706355141975008  0.40989491111272414  1.0000
  O   O4        1.0  0.2291647434683799  0.3515580817379844  0.42356443293493035  1.0000
  O   O5        1.0  0.06616782408446098  0.770637922523773  0.40989897563623745  1.0000
  O   O6        1.0  0.0674380618128354  0.5556549524091303  0.6262084280936511  1.0000
  O   O7        1.0  0.06765132524078554  0.566546845359863  0.2072572802842192  1.0000
  O   O8        1.0  0.06892150227964078  0.35156214376706685  0.4235668027233672  1.0000
