data_image0
_chemical_formula_structural       NC9NC5H8C8H6C6NCOCH9Zn2C4O8
_chemical_formula_sum              "N3 C34 H23 O9 Zn2"
_cell_length_a       17.807436237873137
_cell_length_b       9.275140704573507
_cell_length_c       10.300272075376753
_cell_angle_alpha    85.67809769676893
_cell_angle_beta     89.39000598542044
_cell_angle_gamma    88.98377242316299

_space_group_name_H-M_alt    "P 1"
_space_group_IT_number       1

loop_
  _space_group_symop_operation_xyz
  'x, y, z'

loop_
  _atom_site_type_symbol
  _atom_site_label
  _atom_site_symmetry_multiplicity
  _atom_site_fract_x
  _atom_site_fract_y
  _atom_site_fract_z
  _atom_site_occupancy
  N   N1        1.0  0.7157403052400174  0.5409721234345157  0.5603927651915523  1.0000
  C   C1        1.0  0.654942472016371  0.501915808214253  0.5492880851212365  1.0000
  C   C2        1.0  0.5793166497789193  0.4533340531933244  0.5354750689727419  1.0000
  C   C3        1.0  0.5608000000520206  0.3741042591205812  0.4303117642778633  1.0000
  C   C4        1.0  0.4873705701506625  0.3268113900910352  0.4168173348225505  1.0000
  C   C5        1.0  0.4314068136334828  0.3583292696690994  0.5084528883866939  1.0000
  C   C6        1.0  0.3533709442740976  0.30819665547160074  0.4941941405928675  1.0000
  C   C7        1.0  0.2916831826674601  0.3989359271884963  0.5203206744914228  1.0000
  C   C8        1.0  0.2181102330351112  0.35141768042954213  0.5068394569532639  1.0000
  C   C9        1.0  0.15538847500641897  0.44514421241926216  0.5333360905213408  1.0000
  N   N2        1.0  0.10497313490751961  0.520493859336856  0.5546386439679417  1.0000
  C   C10       1.0  0.2056399573507684  0.21287381395227367  0.46720576137529446  1.0000
  C   C11       1.0  0.2664702664266189  0.12211916945106417  0.44107080615552413  1.0000
  C   C12       1.0  0.3399214276722291  0.16919955445207102  0.454348583095066  1.0000
  C   C13       1.0  0.4506178210937332  0.4381077251730021  0.6138365546449008  1.0000
  C   C14       1.0  0.5240989862993483  0.4851893170423407  0.627174900362562  1.0000
  H   H1        1.0  0.6030617649546197  0.3491736217728598  0.3585500933704679  1.0000
  H   H2        1.0  0.47413844751774803  0.26725638557318865  0.3337764245353929  1.0000
  H   H3        1.0  0.3007631544954296  0.5071107197508462  0.5494214563687598  1.0000
  H   H4        1.0  0.1489715230037356  0.17509792094609145  0.45653276566853024  1.0000
  H   H5        1.0  0.25669687858723006  0.01485515578150111  0.4107715556879076  1.0000
  H   H6        1.0  0.3861693226848933  0.0962299761860854  0.4351492388742357  1.0000
  H   H7        1.0  0.4090696873714979  0.46243951271598993  0.686891425984146  1.0000
  H   H8        1.0  0.5378667799028282  0.54609957830525  0.7091770442747382  1.0000
  C   C15       1.0  0.9080788089130865  0.10741241526905677  0.5566412278319198  1.0000
  C   C16       1.0  0.9188056412584608  0.1903295573464825  0.43802331721080545  1.0000
  C   C17       1.0  0.9360821439851136  0.124144068456014  0.323962927175162  1.0000
  C   C18       1.0  0.9430450978950373  0.973846993420081  0.3263287393837999  1.0000
  C   C19       1.0  0.9313564089357392  0.8894003291933912  0.4428325632282917  1.0000
  C   C20       1.0  0.9126417259053843  0.9540421298223345  0.5584013582101212  1.0000
  C   C21       1.0  0.961346343381517  0.9058579086809435  0.20862336009824384  1.0000
  C   C22       1.0  0.9766696887322667  0.8489187164866704  0.1100786960429516  1.0000
  H   H9        1.0  0.920357166839243  0.18316502049716132  0.8755453765914716  1.0000
  H   H10       1.0  0.9155761921346229  0.30732566835282515  0.43409346311848734  1.0000
  H   H11       1.0  0.9447454508226313  0.19045922915567415  0.23406024340644532  1.0000
  H   H12       1.0  0.9351424794554797  0.7725939593825712  0.4426161737258951  1.0000
  H   H13       1.0  0.9180260347182542  0.6551606872177343  0.7733087718982636  1.0000
  H   H14       1.0  0.9901202971815607  0.7989363725568857  0.023577176715378286  1.0000
  C   C23       1.0  0.9103672268566542  0.5308733405705841  0.17616875856528913  1.0000
  C   C24       1.0  0.8336853882661229  0.5690184270298755  0.17393690322419553  1.0000
  C   C25       1.0  0.7952824339578719  0.5901753412614317  0.0553983763058139  1.0000
  C   C26       1.0  0.8336912083344659  0.5686893672600634  0.9388021487992317  1.0000
  C   C27       1.0  0.9103533490957214  0.5305811517635721  0.9388738256714477  1.0000
  C   C28       1.0  0.9483533509028393  0.5124082324330823  0.05806740847835189  1.0000
  N   N3        1.0  0.7164976874411576  0.6270208913279298  0.05165197192943305  1.0000
  C   C29       1.0  0.6796980357028002  0.718719522389059  0.13984162666607047  1.0000
  O   O1        1.0  0.7173931426073297  0.7938591048971926  0.21171359118527938  1.0000
  C   C30       1.0  0.596033111674848  0.733726964850039  0.13998891261251664  1.0000
  H   H15       1.0  0.9392637555554456  0.5143083083116853  0.5045863223124634  1.0000
  H   H16       1.0  0.8034987073029783  0.5794612688159957  0.2645454044013327  1.0000
  H   H17       1.0  0.8034707447161031  0.5830894952747915  0.8479072941453726  1.0000
  H   H18       1.0  0.007500499194015075  0.4830268740721238  0.058977185066246156  1.0000
  H   H19       1.0  0.9391419836396414  0.5140435888087473  0.6116399326928388  1.0000
  H   H20       1.0  0.6849243236169487  0.5927221156016109  0.9750843362696603  1.0000
  H   H21       1.0  0.5705133334142628  0.6273095217783113  0.1277578576764968  1.0000
  H   H22       1.0  0.5756621648117882  0.7733149027029618  0.2334182671881555  1.0000
  H   H23       1.0  0.5784032457255835  0.8117190864832702  0.058553389713556614  1.0000
  Zn  Zn1       1.0  0.8280644699296548  0.5350586894183038  0.5587397525750892  1.0000
  Zn  Zn2       1.0  0.9926488884955008  0.5263955385855928  0.5563023083082939  1.0000
  C   C31       1.0  0.9103233263603174  0.5248937152661246  0.7946942967754884  1.0000
  C   C32       1.0  0.91039183912211  0.5365622369592222  0.3203478687333851  1.0000
  C   C33       1.0  0.9117754809499522  0.7940132756681078  0.5528937373132612  1.0000
  C   C34       1.0  0.9089396190357161  0.2674409475472974  0.5621484946623863  1.0000
  O   O2        1.0  0.9728589944353896  0.5351775729769754  0.36781068472737094  1.0000
  O   O3        1.0  0.97277193066003  0.519702160866905  0.7453811408908229  1.0000
  O   O4        1.0  0.9739437218553119  0.7370196531743558  0.5501254939317154  1.0000
  O   O5        1.0  0.9716871471359468  0.3178600939751355  0.5630662351691703  1.0000
  O   O6        1.0  0.8490261551246328  0.7435941369866418  0.551975826539165  1.0000
  O   O7        1.0  0.8478543732615339  0.5262783766470123  0.7472314078564511  1.0000
  O   O8        1.0  0.8479414368445618  0.5417537391182616  0.3696593902542715  1.0000
  O   O9        1.0  0.846769589484704  0.324436249768691  0.5649150380383317  1.0000
