data_image0
_chemical_formula_structural       NC9NC3NH7C7ONH7C8NH7Zn2C4O8
_chemical_formula_sum              "N5 C31 H21 O9 Zn2"
_cell_length_a       16.053384444249904
_cell_length_b       10.297852080636378
_cell_length_c       9.274266800404106
_cell_angle_alpha    85.98589005779941
_cell_angle_beta     89.35588104550887
_cell_angle_gamma    89.15396345524235

_space_group_name_H-M_alt    "P 1"
_space_group_IT_number       1

loop_
  _space_group_symop_operation_xyz
  'x, y, z'

loop_
  _atom_site_type_symbol
  _atom_site_label
  _atom_site_symmetry_multiplicity
  _atom_site_fract_x
  _atom_site_fract_y
  _atom_site_fract_z
  _atom_site_occupancy
  N   N1        1.0  0.7913397196349079  0.39334995748473417  0.40665166013709503  1.0000
  C   C1        1.0  0.7409695196868222  0.3719678531045781  0.3235732769868642  1.0000
  C   C2        1.0  0.6783729460815446  0.3454005076335078  0.22036967264726592  1.0000
  C   C3        1.0  0.6926566784815001  0.33233157096370824  0.0752602794405226  1.0000
  C   C4        1.0  0.6163037465326525  0.30660457813945063  0.017260571600862692  1.0000
  C   C5        1.0  0.5586926630882032  0.305408848476862  0.13011270830085908  1.0000
  C   C6        1.0  0.468097890660591  0.2815056728420786  0.1187391766732162  1.0000
  C   C7        1.0  0.411715149298577  0.3249365372817026  0.2229726406000112  1.0000
  C   C8        1.0  0.326221788374981  0.302265874639452  0.21207894581487416  1.0000
  C   C9        1.0  0.2690465235121553  0.3474598543933842  0.3189451420700431  1.0000
  N   N2        1.0  0.2230943515406299  0.3837894296682301  0.4048488281838605  1.0000
  C   C10       1.0  0.2963850958604407  0.23605244710459172  0.09696700519678945  1.0000
  C   C11       1.0  0.3517581824892548  0.1927428195639671  0.9929684862577254  1.0000
  C   C12       1.0  0.4370476300693587  0.21524472622285026  0.0034219877164294262  1.0000
  N   N3        1.0  0.5973095512981522  0.3292291075026912  0.25393489596961505  1.0000
  H   H1        1.0  0.7516511098052266  0.340577684332805  0.01796822884760685  1.0000
  H   H2        1.0  0.6045602368208204  0.2920632747575749  0.9049593576776274  1.0000
  H   H3        1.0  0.4336153931648152  0.3780083811492101  0.3115460343011667  1.0000
  H   H4        1.0  0.2304098920475465  0.21801873721271403  0.08760722151277545  1.0000
  H   H5        1.0  0.3285684008144243  0.14131126157190058  0.9041355201679603  1.0000
  H   H6        1.0  0.47854706533728014  0.17923996499385325  0.922119492884109  1.0000
  H   H7        1.0  0.5706741476892859  0.33229900045523153  0.35689449193434475  1.0000
  C   C13       1.0  0.007309784176617432  0.007130570466332475  0.4057584496121964  1.0000
  C   C14       1.0  0.9965899362056028  0.01589549785850241  0.25521458455893464  1.0000
  C   C15       1.0  0.9904179547550656  0.9032640527389767  0.1790025617693365  1.0000
  C   C16       1.0  0.9963795456328208  0.780647613898453  0.2551657339605604  1.0000
  C   C17       1.0  0.0071321555380035005  0.7699987685021736  0.40575439847278316  1.0000
  C   C18       1.0  0.012329605603629274  0.8837591191763917  0.4801017850995999  1.0000
  C   C19       1.0  0.9793023706491117  0.9151175172389542  0.019977881244658043  1.0000
  O   O1        1.0  0.001884981614691751  0.017240915208739827  0.9481010181165028  1.0000
  N   N4        1.0  0.9424190526681556  0.8136257298643843  0.9457078232514653  1.0000
  H   H8        1.0  0.027872357556044006  0.19783111018679225  0.6902086975837478  1.0000
  H   H9        1.0  0.9922890526146547  0.11072800824910534  0.19712639419301634  1.0000
  H   H10       1.0  0.9942847642176484  0.6931064052422062  0.19735995271108164  1.0000
  H   H11       1.0  0.02058944748479809  0.8762503775886303  0.5961278211161882  1.0000
  H   H12       1.0  0.028790653333393253  0.5425850014566851  0.6900687164243575  1.0000
  H   H13       1.0  0.9387316825184259  0.8220234943289162  0.8330956910245448  1.0000
  H   H14       1.0  0.913717279003924  0.7344966559194933  0.00121664708936375  1.0000
  C   C20       1.0  0.009137747623905401  0.38568221831754723  0.9824377378442518  1.0000
  C   C21       1.0  0.9607465496290805  0.29376876765818016  0.06378986176845534  1.0000
  C   C22       1.0  0.9073117581053318  0.212068986770259  0.9961164797042951  1.0000
  C   C23       1.0  0.9004867288821204  0.22104863533884794  0.8454470610559985  1.0000
  C   C24       1.0  0.9500223446545584  0.3098313669219865  0.7627839266116219  1.0000
  C   C25       1.0  0.005304198660088354  0.3914471170496013  0.8290751249535454  1.0000
  C   C26       1.0  0.8437636745977013  0.1315820519934943  0.7726026817908478  1.0000
  C   C27       1.0  0.8889047463691412  0.011832071388865774  0.7411998390427224  1.0000
  N   N5        1.0  0.9245375892537526  0.9173215563843202  0.7164129083406037  1.0000
  H   H15       1.0  0.10084468567706395  0.6695261309574583  0.061488308680650354  1.0000
  H   H16       1.0  0.962875104646916  0.2869944710456762  0.18079503855213971  1.0000
  H   H17       1.0  0.8705627402910671  0.14246524321309773  0.06151434281218715  1.0000
  H   H18       1.0  0.9467772625507493  0.31286694957077055  0.645906462617988  1.0000
  H   H19       1.0  0.07007515550825838  0.5799603394637685  0.5324634978318059  1.0000
  H   H20       1.0  0.8199896603684754  0.17966954511544556  0.6699326210175984  1.0000
  H   H21       1.0  0.7891302324542974  0.10610346255731984  0.842992544218053  1.0000
  Zn  Zn1       1.0  0.9159347408672951  0.39058758814320904  0.40613971883175204  1.0000
  Zn  Zn2       1.0  0.09849925596475151  0.38654129688628047  0.4053725513382378  1.0000
  C   C28       1.0  0.006028186000052619  0.3851828400958585  0.6690425945438412  1.0000
  C   C29       1.0  0.008407803408629452  0.3919476406327753  0.14246980872760995  1.0000
  C   C30       1.0  0.007187478347343566  0.6257614193596786  0.4000107939614508  1.0000
  C   C31       1.0  0.007248448780145857  0.15136750268329724  0.41150168643469986  1.0000
  O   O2        1.0  0.07744511081762084  0.39250916036855293  0.19588689759113403  1.0000
  O   O3        1.0  0.07555312340177699  0.38154929619250655  0.6150428283405938  1.0000
  O   O4        1.0  0.07648832588814436  0.5758195723857407  0.39779774984331934  1.0000
  O   O5        1.0  0.07650984652159343  0.19823889411200124  0.41313186826446113  1.0000
  O   O6        1.0  0.9379240880101779  0.5788899922996513  0.39838040215974324  1.0000
  O   O7        1.0  0.9369888855047279  0.3846212761742378  0.6156254037865322  1.0000
  O   O8        1.0  0.9388808808341271  0.3955810832834338  0.19646773988552346  1.0000
  O   O9        1.0  0.9379456160474846  0.2013108084723625  0.41371281863701215  1.0000
