data_image0
_chemical_formula_structural       NC6NCNCH5C6BrH3C9H9Zn2C4O8
_chemical_formula_sum              "N3 C27 H17 Br1 Zn2 O8"
_cell_length_a       14.933214217465613
_cell_length_b       9.276564384272257
_cell_length_c       10.297187173949776
_cell_angle_alpha    85.51933545767109
_cell_angle_beta     89.94016841995526
_cell_angle_gamma    90.62004099175812

_space_group_name_H-M_alt    "P 1"
_space_group_IT_number       1

loop_
  _space_group_symop_operation_xyz
  'x, y, z'

loop_
  _atom_site_type_symbol
  _atom_site_label
  _atom_site_symmetry_multiplicity
  _atom_site_fract_x
  _atom_site_fract_y
  _atom_site_fract_z
  _atom_site_occupancy
  N   N1        1.0  0.8537102520218353  0.5789206031040004  0.5651775767001406  1.0000
  C   C1        1.0  0.7762265993040609  0.5799171957943001  0.5642842186180743  1.0000
  C   C2        1.0  0.6798363962179077  0.5811596922882926  0.5631703116001676  1.0000
  C   C3        1.0  0.6313771582009474  0.48540529182713327  0.6490231264156596  1.0000
  C   C4        1.0  0.5378509121263312  0.48648806774468656  0.648052342704067  1.0000
  C   C5        1.0  0.4918811863707465  0.5832703816421841  0.5612779399587859  1.0000
  C   C6        1.0  0.39529167950831473  0.5811618487774723  0.5631684438122371  1.0000
  N   N2        1.0  0.3177943760226721  0.5794028664874749  0.5647452053881941  1.0000
  C   C7        1.0  0.5404472066407526  0.6802338990895218  0.47434115356836415  1.0000
  N   N3        1.0  0.4958024601522906  0.7808279028543248  0.3841494244075818  1.0000
  C   C8        1.0  0.6344474058895303  0.6781850772859528  0.4761782195769279  1.0000
  H   H1        1.0  0.6658742123338598  0.4099093867667609  0.7167122584124941  1.0000
  H   H2        1.0  0.5012711710180523  0.41162724598602507  0.7151719477318421  1.0000
  H   H3        1.0  0.5326290878646767  0.8518770550014922  0.32044714870753377  1.0000
  H   H4        1.0  0.4260964706980335  0.7861803617834833  0.3793505065364702  1.0000
  H   H5        1.0  0.672146589640735  0.7522926759873603  0.40973380174149127  1.0000
  C   C9        1.0  0.08305850999402359  0.15567799736426124  0.5652960882239833  1.0000
  C   C10       1.0  0.07161950830988628  0.23914917861441887  0.4465834681452748  1.0000
  C   C11       1.0  0.068514071660432  0.17414101312940833  0.3289720191669001  1.0000
  C   C12       1.0  0.07682843171773768  0.02474233837373085  0.3278399544224804  1.0000
  C   C13       1.0  0.08669042148478084  0.9395759441075298  0.4447587472378063  1.0000
  C   C14       1.0  0.08845460704819352  0.0026343177106629154  0.5646379155579238  1.0000
  Br  Br1       1.0  0.07323865061780843  0.9363587836860675  0.16645587178225996  1.0000
  H   H6        1.0  0.06049502560368848  0.24034055090604745  0.238497809752048  1.0000
  H   H7        1.0  0.0908345994381603  0.8233398852532925  0.44195430384811324  1.0000
  H   H8        1.0  0.13779134765737688  0.7047805634665082  0.7669046077025339  1.0000
  C   C15       1.0  0.08587461020785114  0.5791041665967707  0.18351380058112832  1.0000
  C   C16       1.0  0.995376982461516  0.6186199607312783  0.18008565441613755  1.0000
  C   C17       1.0  0.9490123788853074  0.6388648249188931  0.06171291051004357  1.0000
  C   C18       1.0  0.9950261656605338  0.6187725901756762  0.9448631381779924  1.0000
  C   C19       1.0  0.08563851177451842  0.5792082047671936  0.9464202498062964  1.0000
  C   C20       1.0  0.13047099288170028  0.5596309422126329  0.06613490835356672  1.0000
  C   C21       1.0  0.8511326698586774  0.6816036854191878  0.06743729568978285  1.0000
  C   C22       1.0  0.7880704644869703  0.6235346391495964  0.9672689275579507  1.0000
  C   C23       1.0  0.8157125496267426  0.7826589852947441  0.956020993797142  1.0000
  H   H9        1.0  0.9604400041534144  0.6338755866893211  0.2701845597755397  1.0000
  H   H10       1.0  0.9610586213757241  0.6336011913939066  0.8522762203571714  1.0000
  H   H11       1.0  0.20029163326630772  0.529142959400935  0.06805244861105941  1.0000
  H   H12       1.0  0.2567762048485387  0.5044637645090222  0.7421460641451101  1.0000
  H   H13       1.0  0.8196726753616463  0.6953418974395058  0.1635332671398484  1.0000
  H   H14       1.0  0.8179822418213313  0.5584762348998207  0.8927662714248029  1.0000
  H   H15       1.0  0.7183477913404746  0.603949468432605  0.0024675067781232394  1.0000
  H   H16       1.0  0.862415820242237  0.814259740425306  0.8746867610735918  1.0000
  H   H17       1.0  0.7621446621856559  0.8560754222833571  0.9846432342945439  1.0000
  Zn  Zn1       1.0  0.9876348790686144  0.5790559054129943  0.565060315810874  1.0000
  Zn  Zn2       1.0  0.1838696556373398  0.579255734987163  0.5648731427197999  1.0000
  C   C24       1.0  0.08564453074609318  0.5734435030763236  0.8022190582918276  1.0000
  C   C25       1.0  0.08586215839085165  0.5848699590966919  0.3277145242756485  1.0000
  C   C26       1.0  0.08743161930222779  0.8425408565921793  0.5595860479549186  1.0000
  C   C27       1.0  0.08407499181335212  0.3157708729143447  0.5703476052766896  1.0000
  O   O1        1.0  0.16032801438542893  0.5868745546001088  0.376038578113562  1.0000
  O   O2        1.0  0.16011632278798305  0.5715894856311245  0.7537525713253654  1.0000
  O   O3        1.0  0.16155841508763552  0.7888890009575581  0.557824698601886  1.0000
  O   O4        1.0  0.1588858552200083  0.3695750495083554  0.5719663534967006  1.0000
  O   O5        1.0  0.012618612520659767  0.7887365908251793  0.5579671050910129  1.0000
  O   O6        1.0  0.01117653127708574  0.5714388080986134  0.7538949072073995  1.0000
  O   O7        1.0  0.011388223097251071  0.5867238266011311  0.376179352288728  1.0000
  O   O8        1.0  0.00994606383231212  0.36942431120807395  0.5721072250692469  1.0000
