data_image0
_chemical_formula_structural       NC8NH4C9H8C7F3H5Zn2C4O8
_chemical_formula_sum              "N2 C28 H17 F3 Zn2 O8"
_cell_length_a       13.859017124695912
_cell_length_b       9.275152443626249
_cell_length_c       10.299327507215196
_cell_angle_alpha    85.35552067985554
_cell_angle_beta     89.98117985165102
_cell_angle_gamma    90.57357307376715

_space_group_name_H-M_alt    "P 1"
_space_group_IT_number       1

loop_
  _space_group_symop_operation_xyz
  'x, y, z'

loop_
  _atom_site_type_symbol
  _atom_site_label
  _atom_site_symmetry_multiplicity
  _atom_site_fract_x
  _atom_site_fract_y
  _atom_site_fract_z
  _atom_site_occupancy
  N   N1        1.0  0.9195190357570973  0.5790149584672539  0.562537027837898  1.0000
  C   C1        1.0  0.8470237189301063  0.5561562400582034  0.512002744810951  1.0000
  C   C2        1.0  0.7568438615400158  0.5277233395570704  0.4491445901612172  1.0000
  C   C3        1.0  0.6693994185649623  0.5554425416457991  0.5104233802608064  1.0000
  C   C4        1.0  0.5816135500240454  0.5277245658570671  0.449144064379524  1.0000
  C   C5        1.0  0.581454487749446  0.47227988866011134  0.3265671452881309  1.0000
  C   C6        1.0  0.6687170266483454  0.44466722380032925  0.2655242341548696  1.0000
  C   C7        1.0  0.7563198306170967  0.4722775382797366  0.3265682143308417  1.0000
  C   C8        1.0  0.4917838865319566  0.5561571669800782  0.5120022931982083  1.0000
  N   N2        1.0  0.41957016355532434  0.579015281211455  0.5625368322021375  1.0000
  H   H1        1.0  0.669663745239201  0.5983588882257259  0.6053008497253969  1.0000
  H   H2        1.0  0.5140246815270406  0.450463856811969  0.2783340230804088  1.0000
  H   H3        1.0  0.6684533063425203  0.40183854121817497  0.17083890525664236  1.0000
  H   H4        1.0  0.8234808678399584  0.4504594048862549  0.27833599899662254  1.0000
  C   C9        1.0  0.16670251424489746  0.15538263509117645  0.5638628685746814  1.0000
  C   C10       1.0  0.13192171638174321  0.23813895960028628  0.4535272818928393  1.0000
  C   C11       1.0  0.10611050181130643  0.17271486194215346  0.3411259343525397  1.0000
  C   C12       1.0  0.11467491269373342  0.023373587992389297  0.3368346599486567  1.0000
  C   C13       1.0  0.14756911043159507  0.9389292585687167  0.44623776854481184  1.0000
  C   C14       1.0  0.17239584661828755  0.0026365633952387703  0.5612222425007383  1.0000
  C   C15       1.0  0.0885615691033994  0.9562419410448869  0.2204359952539776  1.0000
  C   C16       1.0  0.06669774810273156  0.9000015433913103  0.1229703635879802  1.0000
  C   C17       1.0  0.04017032355443062  0.8317517688351879  0.0047129131057619435  1.0000
  H   H5        1.0  0.30528575606975816  0.23699433663455305  0.8232393096860775  1.0000
  H   H6        1.0  0.12683907551536366  0.3546565047574253  0.4531187570892188  1.0000
  H   H7        1.0  0.08033324694293986  0.23896752934920215  0.2570119954361132  1.0000
  H   H8        1.0  0.15163250073268109  0.8226197880433919  0.4426147216242469  1.0000
  H   H9        1.0  0.2626059848648581  0.7073099755055168  0.7386270215039981  1.0000
  H   H10       1.0  0.057806581417016334  0.7150280883032633  0.016846072029289116  1.0000
  H   H11       1.0  0.961641158764099  0.8443370100478421  0.9869330849387944  1.0000
  H   H12       1.0  0.08093877743521216  0.8841132447335609  0.9206463744725234  1.0000
  C   C18       1.0  0.16964197065343203  0.5790681774549016  0.18116080770541454  1.0000
  C   C19       1.0  0.2637965003601692  0.6369115741443189  0.17571002494146093  1.0000
  C   C20       1.0  0.3106056322150563  0.6685398642490452  0.05565644058387554  1.0000
  C   C21       1.0  0.26355284519559286  0.6367585967659796  0.9404730441465451  1.0000
  C   C22       1.0  0.16945641350216833  0.5789510105101998  0.9439243492359668  1.0000
  C   C23       1.0  0.12290696590105954  0.5509758546948331  0.06473911466990234  1.0000
  C   C24       1.0  0.4129722693467417  0.7257460558904351  0.0512157780817446  1.0000
  F   F1        1.0  0.4303926746585067  0.8099890865654563  0.15384437912323912  1.0000
  F   F2        1.0  0.4759338893632315  0.6107270737599125  0.059443187081667855  1.0000
  F   F3        1.0  0.43012747043536503  0.8099695135788839  0.9362010365523812  1.0000
  H   H13       1.0  0.9925996844397792  0.46749901698626245  0.39886068436525934  1.0000
  H   H14       1.0  0.3009357504171187  0.6572017050319781  0.2650433050128784  1.0000
  H   H15       1.0  0.30052494274098396  0.6569399155409272  0.8480301004955898  1.0000
  H   H16       1.0  0.0503368227465051  0.5063962922051298  0.06813534686279456  1.0000
  H   H17       1.0  0.13389472951597559  0.5543589259045585  0.6179694774157931  1.0000
  Zn  Zn1       1.0  0.0638229648422517  0.5790111988674069  0.5625444872948513  1.0000
  Zn  Zn2       1.0  0.2752661451652372  0.5790072712186041  0.5625400614581992  1.0000
  C   C25       1.0  0.1694506900888204  0.5732261085593084  0.7997636076010793  1.0000
  C   C26       1.0  0.16964074107196114  0.5847941816768083  0.32532106290142226  1.0000
  C   C27       1.0  0.17131597204463048  0.8424883029371334  0.5565460574187613  1.0000
  C   C28       1.0  0.1677753753017637  0.3155302540732552  0.5685386877280416  1.0000
  O   O1        1.0  0.2498818711088635  0.5867080968561801  0.37370090149847024  1.0000
  O   O2        1.0  0.24969003423280475  0.5713081241467622  0.7513800394296266  1.0000
  O   O3        1.0  0.2511951909783121  0.7887407512046862  0.5549801422005438  1.0000
  O   O4        1.0  0.24837664230516052  0.36927548013432854  0.5701007013189514  1.0000
  O   O5        1.0  0.0907123955471605  0.7887429899545942  0.5549838474287736  1.0000
  O   O6        1.0  0.08920725046087163  0.5713120961253098  0.7513836700082296  1.0000
  O   O7        1.0  0.08939908744321223  0.5867120188033642  0.37370297078045556  1.0000
  O   O8        1.0  0.08789385854253662  0.3692793917483518  0.570102868004213  1.0000
