data_image0
_chemical_formula_structural       NC9NC3NH7C8H6C7F3H5Zn2C4O8
_chemical_formula_sum              "N3 C31 H18 F3 Zn2 O8"
_cell_length_a       16.053384444249904
_cell_length_b       9.27514070457351
_cell_length_c       9.272721663655245
_cell_angle_alpha    86.0082858104151
_cell_angle_beta     90.31938989593549
_cell_angle_gamma    89.76770978158073

_space_group_name_H-M_alt    "P 1"
_space_group_IT_number       1

loop_
  _space_group_symop_operation_xyz
  'x, y, z'

loop_
  _atom_site_type_symbol
  _atom_site_label
  _atom_site_symmetry_multiplicity
  _atom_site_fract_x
  _atom_site_fract_y
  _atom_site_fract_z
  _atom_site_occupancy
  N   N1        1.0  0.7854385099028731  0.5500142979072672  0.40990037335190727  1.0000
  C   C1        1.0  0.7341136479023487  0.5264605074448432  0.32674340149051284  1.0000
  C   C2        1.0  0.6703311130546322  0.497194787116096  0.22344215615259544  1.0000
  C   C3        1.0  0.6831144197920361  0.4830024211049755  0.07825952124265623  1.0000
  C   C4        1.0  0.6060207042022742  0.45457174113117965  0.020176468132422576  1.0000
  C   C5        1.0  0.54949835121842  0.45300055932047134  0.13305560832615648  1.0000
  C   C6        1.0  0.4586285642492012  0.42649345631992563  0.12161600078221668  1.0000
  C   C7        1.0  0.4035578202595504  0.47447486750446927  0.22599185280292944  1.0000
  C   C8        1.0  0.3178025889789894  0.4493347735772373  0.21503546066641444  1.0000
  C   C9        1.0  0.2619770431657526  0.4992674897570442  0.32204939817255607  1.0000
  N   N2        1.0  0.217109838707469  0.5394063432311913  0.40807184694313126  1.0000
  C   C10       1.0  0.2863914067542347  0.3760890299715911  0.09971814356965236  1.0000
  C   C11       1.0  0.3404556138907811  0.3282416796076748  0.9955776190414544  1.0000
  C   C12       1.0  0.42600149192673586  0.3531954118955865  0.006093255183718286  1.0000
  N   N3        1.0  0.5894827189299906  0.4791725363861011  0.25697370225742455  1.0000
  H   H1        1.0  0.7416086902940544  0.4922791729010032  0.020973907189331557  1.0000
  H   H2        1.0  0.5930855441179755  0.43867417479279824  0.9078068967732035  1.0000
  H   H3        1.0  0.4266841733593763  0.5331912831292624  0.3147288747063226  1.0000
  H   H4        1.0  0.2202011461620826  0.35609247567403185  0.09030830084482933  1.0000
  H   H5        1.0  0.3160484854702393  0.2713464851715304  0.9065852810908916  1.0000
  H   H6        1.0  0.4664629194814641  0.31340714381949364  0.9246740838330915  1.0000
  H   H7        1.0  0.5638692358887226  0.4823574324136282  0.359968907342048  1.0000
  C   C13       1.0  0.9987425981585658  0.12132619548457879  0.4079883996580842  1.0000
  C   C14       1.0  0.009947662750989574  0.20376035672693546  0.2764052100695813  1.0000
  C   C15       1.0  0.02844367836637507  0.13728764035772212  0.14995926140456417  1.0000
  C   C16       1.0  0.036180218575993184  0.9871828690520894  0.15266775400843335  1.0000
  C   C17       1.0  0.023896004301390498  0.9031812298534084  0.28189227114015547  1.0000
  C   C18       1.0  0.0038136809015696413  0.9680832662860313  0.4099962451393928  1.0000
  C   C19       1.0  0.0557915221345513  0.9189094080092314  0.02218655286177995  1.0000
  C   C20       1.0  0.07221180639006297  0.8617321642717715  0.9129457989385465  1.0000
  H   H8        1.0  0.014221857181859532  0.19942384016738313  0.762231454506898  1.0000
  H   H9        1.0  0.006342889964198408  0.32064922306629673  0.2720038088320013  1.0000
  H   H10       1.0  0.037527632418425945  0.20325031350960354  0.05023620351511536  1.0000
  H   H11       1.0  0.028093938167968787  0.786469846251102  0.2816963610078447  1.0000
  H   H12       1.0  0.011039707094633531  0.6707085724567784  0.648684454284566  1.0000
  H   H13       1.0  0.0866252891156214  0.811540859282664  0.8170553582026394  1.0000
  C   C21       1.0  0.9990602922475608  0.5424204404191348  0.9855528697015495  1.0000
  C   C22       1.0  0.03380439113849776  0.42362145331983414  0.06784541343512185  1.0000
  C   C23       1.0  0.07590038834766233  0.3132189723402388  0.0015000240154159359  1.0000
  C   C24       1.0  0.08068865164742856  0.3197414446481941  0.8503458332982352  1.0000
  C   C25       1.0  0.04543292603524951  0.4355507891403006  0.767079960940709  1.0000
  C   C26       1.0  0.0034960267808887857  0.5469890407514804  0.8324317165189781  1.0000
  C   C27       1.0  0.1107844492519637  0.18488006075612207  0.09139414046608185  1.0000
  F   F1        1.0  0.13908648834268456  0.22609377037985692  0.22360762615519023  1.0000
  F   F2        1.0  0.17682264482632526  0.12361310274361427  0.021851570104931335  1.0000
  F   F3        1.0  0.049011044554047256  0.08260459712434232  0.11444280940302765  1.0000
  H   H14       1.0  0.9483179239188717  0.8870422079967268  0.06280999724080738  1.0000
  H   H15       1.0  0.029614653205126684  0.4186015149163001  0.18469651910358253  1.0000
  H   H16       1.0  0.11096829196076663  0.23429078733845504  0.7961067363857337  1.0000
  H   H17       1.0  0.049004950319345264  0.4359241952077167  0.6504113175931273  1.0000
  H   H18       1.0  0.8554768283613137  0.7938377594333069  0.7123506543041288  1.0000
  Zn  Zn1       1.0  0.9100095490592832  0.5469492711103545  0.40938101041801706  1.0000
  Zn  Zn2       1.0  0.09253876747330203  0.5424596875677761  0.4086029671786131  1.0000
  C   C28       1.0  0.0026213047017853417  0.540381846325056  0.6723398869459076  1.0000
  C   C29       1.0  0.9999290166800653  0.5490288832356671  0.14564422799587473  1.0000
  C   C30       1.0  0.002820771173501545  0.8079972613321035  0.40387064008782203  1.0000
  C   C31       1.0  0.9997294779526518  0.28141173797523833  0.41411354788875737  1.0000
  O   O1        1.0  0.06948941799513553  0.5495366735246208  0.1990770720229913  1.0000
  O   O2        1.0  0.07159634803640391  0.5364654761120661  0.6183161084370796  1.0000
  O   O3        1.0  0.07175649381034344  0.7525683392451785  0.4015252996697454  1.0000
  O   O4        1.0  0.06932920943182097  0.3334338216539723  0.4158677729637692  1.0000
  O   O5        1.0  0.9332190448124698  0.7559751385577613  0.4021162048907885  1.0000
  O   O6        1.0  0.9330589090059319  0.5398740072116333  0.6189069408812524  1.0000
  O   O7        1.0  0.9309519696388188  0.552945145028702  0.19966617070198023  1.0000
  O   O8        1.0  0.9307917615765844  0.33684228342919226  0.4164569797272417  1.0000
