data_image0
_chemical_formula_structural       NC8NH4C7NH5C10H3Zn2C4O8
_chemical_formula_sum              "N3 C29 H12 Zn2 O8"
_cell_length_a       13.859017124695912
_cell_length_b       9.275154477615127
_cell_length_c       9.27515367178086
_cell_angle_alpha    85.92749838792564
_cell_angle_beta     89.40939075953553
_cell_angle_gamma    89.43373790894346

_space_group_name_H-M_alt    "P 1"
_space_group_IT_number       1

loop_
  _space_group_symop_operation_xyz
  'x, y, z'

loop_
  _atom_site_type_symbol
  _atom_site_label
  _atom_site_symmetry_multiplicity
  _atom_site_fract_x
  _atom_site_fract_y
  _atom_site_fract_z
  _atom_site_occupancy
  N   N1        1.0  0.909108866314323  0.5738343311259535  0.4157433934405985  1.0000
  C   C1        1.0  0.8372946890312534  0.5508369537713237  0.35946754241570344  1.0000
  C   C2        1.0  0.7479620762595605  0.5222315791326935  0.28946761796752707  1.0000
  C   C3        1.0  0.6596916670225161  0.5501189214100859  0.3577087400377783  1.0000
  C   C4        1.0  0.5727317522678473  0.5222328031779482  0.28946704330265227  1.0000
  C   C5        1.0  0.5742248501158022  0.46645179116786806  0.15296328138469306  1.0000
  C   C6        1.0  0.6623101780642381  0.43867163342703336  0.08498483701876958  1.0000
  C   C7        1.0  0.7490902164391995  0.466449445292628  0.1529644508789334  1.0000
  C   C8        1.0  0.4820548476059839  0.5508378788266219  0.35946704787841166  1.0000
  N   N2        1.0  0.40915999125482455  0.5738346531052677  0.4157431786260499  1.0000
  H   H1        1.0  0.6586771710009826  0.5932955987206254  0.46336592543500227  1.0000
  H   H2        1.0  0.5074451428885006  0.44450341344894967  0.09925005600067505  1.0000
  H   H3        1.0  0.6633226806033253  0.39558314690435625  0.9795416282448158  1.0000
  H   H4        1.0  0.8169013739938832  0.44449896990983406  0.09925221678336382  1.0000
  C   C9        1.0  0.16194274124169183  0.15044094307777356  0.414074723997677  1.0000
  C   C10       1.0  0.13633673429777238  0.2332946665340221  0.28694049723918713  1.0000
  C   C11       1.0  0.10283584348648733  0.16694810860572717  0.16654076356430414  1.0000
  C   C12       1.0  0.09438544959322814  0.01684118306351245  0.17185728877663586  1.0000
  C   C13       1.0  0.12090577851215212  0.9327723692854526  0.2960935915056566  1.0000
  C   C14       1.0  0.1563353391099751  0.997217029013001  0.41742433766097853  1.0000
  C   C15       1.0  0.07595673321416574  0.2533797222395249  0.037874238218273286  1.0000
  N   N3        1.0  0.05435340324351556  0.3228549179064546  0.9344593094739216  1.0000
  H   H5        1.0  0.17820450185871373  0.22801776265011653  0.7680144807729274  1.0000
  H   H6        1.0  0.1403068452521674  0.3502431211019583  0.2826621297825662  1.0000
  H   H7        1.0  0.06812377865780526  0.9644777874299485  0.07932253194081751  1.0000
  H   H8        1.0  0.11583994655893994  0.8163044449032658  0.29596669635494055  1.0000
  H   H9        1.0  0.1713874694518287  0.6990536729107321  0.654574040805588  1.0000
  C   C16       1.0  0.16206659427946657  0.5727453954188189  0.9923155977730622  1.0000
  C   C17       1.0  0.1865922879831392  0.7001660497759001  0.0565633273267685  1.0000
  C   C18       1.0  0.20209377596293376  0.8289437958327961  0.9720803307898155  1.0000
  C   C19       1.0  0.19315936332985162  0.8319048454254323  0.8221515274531894  1.0000
  C   C20       1.0  0.17048754139461786  0.7060923477023726  0.7562917556779909  1.0000
  C   C21       1.0  0.15621150794423677  0.5749125314295747  0.8391834494591222  1.0000
  C   C22       1.0  0.22609344341953386  0.9587362231925577  0.03970280380407765  1.0000
  C   C23       1.0  0.24618832150394399  0.06740058626268787  0.09634432463559928  1.0000
  C   C24       1.0  0.26971842129528567  0.19464176963412472  0.1626771085276837  1.0000
  C   C25       1.0  0.2898094147387573  0.30328535664385076  0.21931589606859814  1.0000
  H   H10       1.0  0.19145893726836152  0.7002390514428115  0.17317900651787888  1.0000
  H   H11       1.0  0.20466586021713784  0.9313082351303587  0.7558380564880802  1.0000
  H   H12       1.0  0.30745094846956555  0.39868333376582266  0.26904970445225573  1.0000
  Zn  Zn1       1.0  0.05341279017188726  0.5738305959505272  0.4157516475324896  1.0000
  Zn  Zn2       1.0  0.26485605587890837  0.5738266572259083  0.4157467045679264  1.0000
  C   C26       1.0  0.15735410470138003  0.5687591254812481  0.6790845471169433  1.0000
  C   C27       1.0  0.16091703727804374  0.5788999472003682  0.15241395365160404  1.0000
  C   C28       1.0  0.15743001392494782  0.8371436004684504  0.41104516058209817  1.0000
  C   C29       1.0  0.16084106684316235  0.3105137401723004  0.4204534102116162  1.0000
  O   O1        1.0  0.24077289449028896  0.5809576862018293  0.20614252369021568  1.0000
  O   O2        1.0  0.23797880376914193  0.5666973083344544  0.6253518060988272  1.0000
  O   O3        1.0  0.23803900936567232  0.7834211699285305  0.4089081110042736  1.0000
  O   O4        1.0  0.24071261742168626  0.36423383464637893  0.4225861107121591  1.0000
  O   O5        1.0  0.07755615647394243  0.7834234185329507  0.40891224138236537  1.0000
  O   O6        1.0  0.07749593993355819  0.5667012889826346  0.6253558664458607  1.0000
  O   O7        1.0  0.08029004303759321  0.5809616121707075  0.2061448502153005  1.0000
  O   O8        1.0  0.08022976528589544  0.364237750579526  0.4225885453039631  1.0000
