data_image0
_chemical_formula_structural       NC5NC4H6C9H10C7ONH5Zn2C4O8
_chemical_formula_sum              "N3 C29 H21 O9 Zn2"
_cell_length_a       13.854160002989762
_cell_length_b       10.297183801781406
_cell_length_c       9.273042158839656
_cell_angle_alpha    86.13565984305119
_cell_angle_beta     90.09323775389821
_cell_angle_gamma    89.99762469776624

_space_group_name_H-M_alt    "P 1"
_space_group_IT_number       1

loop_
  _space_group_symop_operation_xyz
  'x, y, z'

loop_
  _atom_site_type_symbol
  _atom_site_label
  _atom_site_symmetry_multiplicity
  _atom_site_fract_x
  _atom_site_fract_y
  _atom_site_fract_z
  _atom_site_occupancy
  N   N1        1.0  0.9071329781666547  0.4065963012146161  0.40940688958743876  1.0000
  C   C1        1.0  0.8347352966171641  0.4287455949853163  0.35035773774293766  1.0000
  C   C2        1.0  0.7446715600572689  0.45629991094187017  0.2768983320029667  1.0000
  C   C3        1.0  0.6571792687581064  0.43042348889691734  0.3486243935317166  1.0000
  C   C4        1.0  0.5695291476603841  0.4562999236291274  0.2768983088272903  1.0000
  C   C5        1.0  0.47962715535669637  0.4287454631588381  0.3503578294180223  1.0000
  N   N2        1.0  0.4073594075705284  0.40659624402009253  0.4094068895294798  1.0000
  C   C6        1.0  0.5694039557769938  0.5085991549103002  0.1334648806169234  1.0000
  C   C7        1.0  0.6568633409799548  0.5364112815178288  0.061634423368473794  1.0000
  C   C8        1.0  0.6566929859699061  0.5888187784713289  0.9067135665124395  1.0000
  C   C9        1.0  0.744481044714409  0.5085991528605549  0.13346479035248682  1.0000
  H   H1        1.0  0.6573014728067362  0.38984465527556555  0.45963928351505556  1.0000
  H   H2        1.0  0.501469783307536  0.5276952699494308  0.0778135906980395  1.0000
  H   H3        1.0  0.7215194311990901  0.6499876816803314  0.882899611309249  1.0000
  H   H4        1.0  0.5918109536112243  0.6499876839879841  0.8828996763837246  1.0000
  H   H5        1.0  0.6566176802132977  0.5066021684179859  0.8352107554666555  1.0000
  H   H6        1.0  0.8122927422933477  0.5276953704569749  0.0778135052333557  1.0000
  C   C10       1.0  0.15725441649216254  0.025122645882749373  0.40961113655985465  1.0000
  C   C11       1.0  0.15427520425009789  0.03354396170616612  0.2579379755967801  1.0000
  C   C12       1.0  0.15274864343495156  0.9212419606755262  0.18023137984282123  1.0000
  C   C13       1.0  0.15426325557880616  0.7983672928130162  0.25735011288372545  1.0000
  C   C14       1.0  0.15724724280939184  0.7880600161055725  0.4092151182314565  1.0000
  C   C15       1.0  0.1587224281243651  0.9019044178219112  0.4843542900231434  1.0000
  C   C16       1.0  0.14952614797010355  0.9397824031892518  0.016186146390197557  1.0000
  C   C17       1.0  0.09292007867203478  0.8403044322190321  0.9359501547219145  1.0000
  C   C18       1.0  0.20287991155481433  0.8405691994880713  0.9313713717972814  1.0000
  H   H7        1.0  0.1584115676988458  0.3494160967683302  0.46805567042170537  1.0000
  H   H8        1.0  0.1531252666477027  0.12821741957331256  0.19938376741798702  1.0000
  H   H9        1.0  0.15314290983375775  0.7102276059793576  0.20042194373652286  1.0000
  H   H10       1.0  0.16102046914207202  0.8946797529571135  0.6013733187338053  1.0000
  H   H11       1.0  0.162870332588533  0.5613760227669031  0.6960453516089441  1.0000
  H   H12       1.0  0.14849126743388583  0.0399978352611412  0.963459124534936  1.0000
  H   H13       1.0  0.060782654998483565  0.75728910603921  0.0015440275193214774  1.0000
  H   H14       1.0  0.05875618870695075  0.8802101163415368  0.8339724177439081  1.0000
  H   H15       1.0  0.23753718231309426  0.7577155120569636  0.9941846322851915  1.0000
  H   H16       1.0  0.23298270334033422  0.8806272484853711  0.8267162078192012  1.0000
  C   C19       1.0  0.15678930302292166  0.40257655078836097  0.9861503208924409  1.0000
  C   C20       1.0  0.06813530131802437  0.4108487096145097  0.05882682971461927  1.0000
  C   C21       1.0  0.9812242118343495  0.43168607957858796  0.9825598477990005  1.0000
  C   C22       1.0  0.9835022639184322  0.44268223306383625  0.8310554401602993  1.0000
  C   C23       1.0  0.07057613643307746  0.4325028173571799  0.7573704905287704  1.0000
  C   C24       1.0  0.15771236869641433  0.41060607373097757  0.8326759920438875  1.0000
  C   C25       1.0  0.8889885174217005  0.44065393190437185  0.06241520828445779  1.0000
  O   O1        1.0  0.8825405600899774  0.39038366172834804  0.18981192175055916  1.0000
  N   N3        1.0  0.8068847120199892  0.5065576607317455  0.9988445350424704  1.0000
  H   H17       1.0  0.3909722783650233  0.452196019338501  0.08608463603694361  1.0000
  H   H18       1.0  0.9178639584394465  0.4555262597656195  0.7684256370717351  1.0000
  H   H19       1.0  0.3155593245540884  0.43799999096634473  0.5497399990090943  1.0000
  H   H20       1.0  0.8115325928789058  0.5626536910107998  0.9011495912480942  1.0000
  H   H21       1.0  0.7416454606552927  0.5064114540918656  0.05508706858318013  1.0000
  Zn  Zn1       1.0  0.051487534878581244  0.4065928858188017  0.40941522383205387  1.0000
  Zn  Zn2       1.0  0.2630048650410124  0.4065891414446132  0.40941039821924874  1.0000
  C   C26       1.0  0.15753575983355517  0.4039132495201387  0.672667176484746  1.0000
  C   C27       1.0  0.1569589499875137  0.4092704181139717  0.1461585861319501  1.0000
  C   C28       1.0  0.1572373541013241  0.6437941294320175  0.4035463266113475  1.0000
  C   C29       1.0  0.15725728364216374  0.16938797820107387  0.4152795136616543  1.0000
  O   O2        1.0  0.2372856095767999  0.4115098528694045  0.19985699328648043  1.0000
  O   O3        1.0  0.23774585921650793  0.4016699889441231  0.6189646923968581  1.0000
  O   O4        1.0  0.23750381237377471  0.595376847415741  0.40164770137304373  1.0000
  O   O5        1.0  0.2375275841250697  0.21780300266674743  0.417173876235707  1.0000
  O   O6        1.0  0.0769647436140315  0.5953790245992876  0.4016517458096598  1.0000
  O   O7        1.0  0.077206790353854  0.40167372613130836  0.6189686591712333  1.0000
  O   O8        1.0  0.07674653888922056  0.4115135283508855  0.1998592271616233  1.0000
  O   O9        1.0  0.07698851355146186  0.21780666988188702  0.4171762181795027  1.0000
