data_image0
_chemical_formula_structural       NC5N2C2NH4C6ClH5C6OCH6Zn2C4O8
_chemical_formula_sum              "N4 C24 H15 Cl1 O9 Zn2"
_cell_length_a       13.87973921873968
_cell_length_b       9.276545438789551
_cell_length_c       9.273891588657152
_cell_angle_alpha    86.10611493905307
_cell_angle_beta     89.68012952506892
_cell_angle_gamma    89.40960813042831

_space_group_name_H-M_alt    "P 1"
_space_group_IT_number       1

loop_
  _space_group_symop_operation_xyz
  'x, y, z'

loop_
  _atom_site_type_symbol
  _atom_site_label
  _atom_site_symmetry_multiplicity
  _atom_site_fract_x
  _atom_site_fract_y
  _atom_site_fract_z
  _atom_site_occupancy
  N   N1        1.0  0.9023919681116618  0.5637223645432774  0.410998221642038  1.0000
  C   C1        1.0  0.8293285926306495  0.5877440090132369  0.3543779545510395  1.0000
  C   C2        1.0  0.7385865600396537  0.617581234785592  0.28404946410497933  1.0000
  C   C3        1.0  0.652080721337011  0.5875492892043943  0.3572248275283707  1.0000
  C   C4        1.0  0.5657071591806497  0.6175811705257892  0.2840495039673814  1.0000
  C   C5        1.0  0.474851472282062  0.5877438634008028  0.354377851246323  1.0000
  N   N2        1.0  0.40169653717575177  0.5637223398241922  0.410998210634945  1.0000
  N   N3        1.0  0.5674676793736432  0.674962650995681  0.14533692892169747  1.0000
  C   C6        1.0  0.6523204095242159  0.7049568755955865  0.07620453879653755  1.0000
  C   C7        1.0  0.6524867057904723  0.7640783467933592  0.9225009530294717  1.0000
  N   N4        1.0  0.7370705783157884  0.674962604435277  0.14533693964455363  1.0000
  H   H1        1.0  0.6519840555913481  0.5416338170346344  0.4679199056000647  1.0000
  H   H2        1.0  0.7171060451756361  0.8317390745731255  0.9001462805619364  1.0000
  H   H3        1.0  0.6533809660163592  0.6734961595975648  0.8502323807937195  1.0000
  H   H4        1.0  0.5871012419716535  0.8317370042145595  0.9001455133864376  1.0000
  C   C8        1.0  0.15495750556859783  0.14028505564926408  0.410760614035818  1.0000
  C   C9        1.0  0.1558174791379183  0.22273622059816264  0.27771985518274694  1.0000
  C   C10       1.0  0.14790132801927558  0.15648265112974236  0.14757475200557013  1.0000
  C   C11       1.0  0.13893373138868356  0.0068995697230092076  0.14846815720296158  1.0000
  C   C12       1.0  0.13956927971967636  0.9228879577399963  0.2790669512712445  1.0000
  C   C13       1.0  0.14914026237193467  0.9871486837909318  0.41124830369245946  1.0000
  Cl  Cl1       1.0  0.14776745634743027  0.26161941931938437  0.9830183187586425  1.0000
  H   H5        1.0  0.20338860512686874  0.4052886185896061  0.6373766878319351  1.0000
  H   H6        1.0  0.16034255913715056  0.3394310388462087  0.27486607974853894  1.0000
  H   H7        1.0  0.13238797494063137  0.9552695565343022  0.04778013421630156  1.0000
  H   H8        1.0  0.13486894762088553  0.8066035796396958  0.2764164537691949  1.0000
  H   H9        1.0  0.11597542885291624  0.6905159630647333  0.6443259880605967  1.0000
  C   C14       1.0  0.1536534432893062  0.5598979600908542  0.9877269212870262  1.0000
  C   C15       1.0  0.23213529050554382  0.6208023339552066  0.056335696064770964  1.0000
  C   C16       1.0  0.30507822337060064  0.692474006855941  0.9765672252221522  1.0000
  C   C17       1.0  0.2997994233054799  0.703602621616239  0.8251330208254566  1.0000
  C   C18       1.0  0.22334768960088724  0.6418251516355682  0.755181545427446  1.0000
  C   C19       1.0  0.15044428031556945  0.5675356858018943  0.8342819601628588  1.0000
  O   O1        1.0  0.3809411229534323  0.7516030189664339  0.051807885308226886  1.0000
  C   C20       1.0  0.4597576068000799  0.827489684748854  0.9847752164714524  1.0000
  H   H10       1.0  0.925097309242886  0.47133469077915335  0.09869315423154301  1.0000
  H   H11       1.0  0.354921016838339  0.7586644719155796  0.7602425944271693  1.0000
  H   H12       1.0  0.2225192500676587  0.6492567279241599  0.6381046488097812  1.0000
  H   H13       1.0  0.4332253937979642  0.9250672363834621  0.9204358287144992  1.0000
  H   H14       1.0  0.5004210817124894  0.7559262359830996  0.9143213392183084  1.0000
  H   H15       1.0  0.5088390344610956  0.8619558634388717  0.06963861049474662  1.0000
  Zn  Zn1       1.0  0.046480477207313076  0.5637185685197201  0.411006542689501  1.0000
  Zn  Zn2       1.0  0.25760805005434984  0.5637144307008402  0.41100169879396536  1.0000
  C   C21       1.0  0.15108820649362742  0.5603476529871607  0.6742616413619733  1.0000
  C   C22       1.0  0.15300261324063924  0.5670871668386759  0.14774674259004097  1.0000
  C   C23       1.0  0.1502566413122386  0.8270215760251332  0.40541223816568184  1.0000
  C   C24       1.0  0.153834117987937  0.3004115120774611  0.416596221637612  1.0000
  O   O2        1.0  0.23290604553792926  0.5694920692931122  0.20144901456275258  1.0000
  O   O3        1.0  0.23142572587292665  0.5579385184856748  0.6205552774302487  1.0000
  O   O4        1.0  0.23075314071041747  0.7732810974342842  0.40345748308328905  1.0000
  O   O5        1.0  0.23357855899573773  0.3541494996858581  0.41854670084213885  1.0000
  O   O6        1.0  0.07050989621846404  0.7732834995376161  0.4034615406353994  1.0000
  O   O7        1.0  0.07118246976760352  0.5579426523151629  0.6205592591251519  1.0000
  O   O8        1.0  0.07266279641128225  0.5694961372391965  0.20145126324576748  1.0000
  O   O9        1.0  0.07333530952633072  0.3541535582935007  0.4185490575868003  1.0000
