data_image0
_chemical_formula_structural       NC6NC3H6C6BrH5C7OH6Zn2C4O8
_chemical_formula_sum              "N2 C26 H17 Br1 O9 Zn2"
_cell_length_a       14.934028789175542
_cell_length_b       9.276564384272257
_cell_length_c       9.274074313596557
_cell_angle_alpha    86.07032153844699
_cell_angle_beta     90.20908406498742
_cell_angle_gamma    90.54840447220178

_space_group_name_H-M_alt    "P 1"
_space_group_IT_number       1

loop_
  _space_group_symop_operation_xyz
  'x, y, z'

loop_
  _atom_site_type_symbol
  _atom_site_label
  _atom_site_symmetry_multiplicity
  _atom_site_fract_x
  _atom_site_fract_y
  _atom_site_fract_z
  _atom_site_occupancy
  N   N1        1.0  0.849077124752524  0.5617559676638095  0.40836269749402776  1.0000
  C   C1        1.0  0.7715823186864171  0.5606512024481072  0.4076849005786056  1.0000
  C   C2        1.0  0.6751748348620268  0.5592717968789245  0.40683879747222784  1.0000
  C   C3        1.0  0.6282645339325544  0.6666997747415335  0.4726268845241202  1.0000
  C   C4        1.0  0.5347440218184427  0.6655922180770482  0.47194849618086443  1.0000
  C   C5        1.0  0.4872216970413683  0.5571115089850567  0.4055157947657919  1.0000
  C   C6        1.0  0.39059439826946135  0.5594390848349566  0.40694246978684046  1.0000
  N   N2        1.0  0.313128937089341  0.5612863129439876  0.4080750445797481  1.0000
  C   C7        1.0  0.5341146349485459  0.4481972831049393  0.33881698909621805  1.0000
  C   C8        1.0  0.48486272600412283  0.3302562148731083  0.26659206414535985  1.0000
  C   C9        1.0  0.6282751808829121  0.4504349940596197  0.3401873985537476  1.0000
  H   H1        1.0  0.663980314652343  0.7513430620860972  0.5244623839355904  1.0000
  H   H2        1.0  0.4993746854193405  0.749583627967654  0.5233846474140762  1.0000
  H   H3        1.0  0.4421947884305604  0.37845524467723024  0.1779576186180043  1.0000
  H   H4        1.0  0.4419268053407006  0.26819886583808605  0.3467464065703736  1.0000
  H   H5        1.0  0.5317155029114725  0.25386401455975727  0.21980363637716496  1.0000
  H   H6        1.0  0.6651464421661197  0.36756092309160054  0.28943578672939974  1.0000
  C   C10       1.0  0.07841049603832405  0.1380465073336079  0.4085890895872437  1.0000
  C   C11       1.0  0.06659362667891067  0.22026506124186107  0.27686814814695926  1.0000
  C   C12       1.0  0.0631132798391223  0.15399909444339133  0.14637244654279136  1.0000
  C   C13       1.0  0.07142347584573772  0.004571281108839202  0.14511981754951675  1.0000
  C   C14       1.0  0.08165771691058005  0.9206414522133901  0.27484978626172146  1.0000
  C   C15       1.0  0.0838041347311851  0.9849847392417226  0.4078610545334094  1.0000
  Br  Br1       1.0  0.06731920577756467  0.9144604260790365  0.9660564984645292  1.0000
  H   H7        1.0  0.052761262122631214  0.4029242982300843  0.6429217184663334  1.0000
  H   H8        1.0  0.062168350804473686  0.33690171910423117  0.2744034731691447  1.0000
  H   H9        1.0  0.05480620373509226  0.2192425432554643  0.04598452064142777  1.0000
  H   H10       1.0  0.0857926743841359  0.804366791176454  0.2717398634495416  1.0000
  H   H11       1.0  0.1337827129409377  0.6892043344662423  0.6323041269995942  1.0000
  C   C16       1.0  0.0800087299213969  0.5573633635868487  0.9849881536294607  1.0000
  C   C17       1.0  0.002206668511975926  0.6000164733730413  0.05488880960854914  1.0000
  C   C18       1.0  0.9288877769919288  0.6542544618425851  0.975705685908418  1.0000
  C   C19       1.0  0.9316569884744124  0.6672817582249053  0.8244128190462314  1.0000
  C   C20       1.0  0.008238958493211873  0.6228888620676392  0.7533745230883189  1.0000
  C   C21       1.0  0.08220586625978221  0.5656678672964699  0.8314620903461925  1.0000
  C   C22       1.0  0.8550036731410331  0.7254888201636387  0.7390198938215096  1.0000
  O   O1        1.0  0.7850914325387671  0.7657394457777511  0.7997351319291908  1.0000
  H   H12       1.0  0.2985606054186995  0.5204014901785725  0.09167267793051947  1.0000
  H   H13       1.0  0.9988484500314172  0.5946279745822165  0.1718150884152101  1.0000
  H   H14       1.0  0.8703463536376987  0.6873261225638907  0.033115383390738266  1.0000
  H   H15       1.0  0.0093210443167544  0.629876279400891  0.6362112099503658  1.0000
  H   H16       1.0  0.22908005737841408  0.53554666667605  0.5539308622504313  1.0000
  H   H17       1.0  0.8582390428146418  0.7342387964378809  0.6221408815702585  1.0000
  Zn  Zn1       1.0  0.9829924642129795  0.5616166527305348  0.40828800695254075  1.0000
  Zn  Zn2       1.0  0.1792135830524224  0.5614139308270469  0.4081615286397704  1.0000
  C   C23       1.0  0.08175200073951494  0.5583532875761599  0.6714652881725118  1.0000
  C   C24       1.0  0.08045620120909591  0.5646791146900194  0.14498438593484586  1.0000
  C   C25       1.0  0.08276510234806482  0.8248390664603782  0.4022553902451871  1.0000
  C   C26       1.0  0.07944302180975456  0.29819160405809075  0.4141943622344535  1.0000
  O   O2        1.0  0.15507122858023492  0.5670511244062395  0.19863259062729188  1.0000
  O   O3        1.0  0.1560642543148555  0.5558263246648698  0.6177206754141056  1.0000
  O   O4        1.0  0.15688134674376616  0.7710169770263007  0.4003317774912931  1.0000
  O   O5        1.0  0.15425406897954347  0.351860481369714  0.41602138051959203  1.0000
  O   O6        1.0  0.007951911325211336  0.7711701022585423  0.4004281551082974  1.0000
  O   O7        1.0  0.007134829726444857  0.5559811817154972  0.6178169746944051  1.0000
  O   O8        1.0  0.006141799233528866  0.5672059142040284  0.19872715713397393  1.0000
  O   O9        1.0  0.005324639843971023  0.35201526191327237  0.41611605509236504  1.0000
