data_image0
_chemical_formula_structural       NC8NC6H8C7NC2NH8C7NC2NH8Zn2C4O8
_chemical_formula_sum              "N6 C36 H24 Zn2 O8"
_cell_length_a       17.457602349358154
_cell_length_b       9.273995741505848
_cell_length_c       9.27399911348925
_cell_angle_alpha    85.20991922917831
_cell_angle_beta     92.55204972901187
_cell_angle_gamma    92.2639659462817

_space_group_name_H-M_alt    "P 1"
_space_group_IT_number       1

loop_
  _space_group_symop_operation_xyz
  'x, y, z'

loop_
  _atom_site_type_symbol
  _atom_site_label
  _atom_site_symmetry_multiplicity
  _atom_site_fract_x
  _atom_site_fract_y
  _atom_site_fract_z
  _atom_site_occupancy
  N   N1        1.0  0.7359966719959519  0.6271876212508363  0.47881139100890535  1.0000
  C   C1        1.0  0.6746802833116151  0.5762830269342147  0.46686398735028484  1.0000
  C   C2        1.0  0.5984001134327621  0.5129639645948805  0.4520120378153664  1.0000
  C   C3        1.0  0.5398486161566376  0.5568341260209364  0.5353608014378386  1.0000
  C   C4        1.0  0.4650170874838193  0.4958617670660703  0.5211985713635227  1.0000
  C   C5        1.0  0.4028725752696768  0.5421798468726675  0.6094676475715256  1.0000
  C   C6        1.0  0.3286335190879192  0.5632418770682557  0.547572983994923  1.0000
  C   C7        1.0  0.27008053332752163  0.6069066893018429  0.6310410777571176  1.0000
  C   C8        1.0  0.19441477465701174  0.6286634590238382  0.5666869395499845  1.0000
  N   N2        1.0  0.1335923823347615  0.6461488144627994  0.5149463590281986  1.0000
  C   C9        1.0  0.28527410833537253  0.6297745205675002  0.7769696330452183  1.0000
  C   C10       1.0  0.35872943039827215  0.6091407207284161  0.839296232072156  1.0000
  C   C11       1.0  0.4172702786769379  0.5656713870643817  0.7563372890993943  1.0000
  C   C12       1.0  0.4500266857842807  0.39028094868576657  0.4220932769478076  1.0000
  C   C13       1.0  0.5085667283934816  0.3467163777961192  0.33918986460114664  1.0000
  C   C14       1.0  0.5826122270090722  0.4078081362739137  0.35396349086018597  1.0000
  H   H1        1.0  0.552409398714546  0.6396962802495625  0.6096410942279686  1.0000
  H   H2        1.0  0.3165583911801885  0.5476191589813078  0.4341687701715608  1.0000
  H   H3        1.0  0.24039116897367657  0.6634965824692185  0.8424419979488417  1.0000
  H   H4        1.0  0.3703015212283308  0.6264972083919068  0.952290916676776  1.0000
  H   H5        1.0  0.4735032281642876  0.5485659111644413  0.8075140353032628  1.0000
  H   H6        1.0  0.3933072449041427  0.3400316545255666  0.41010770738990177  1.0000
  H   H7        1.0  0.49653068880940343  0.26510607898500793  0.26358189016324407  1.0000
  H   H8        1.0  0.6274881830370694  0.37311506705095543  0.28905611842665824  1.0000
  C   C15       1.0  0.9325070963986393  0.21307929604683484  0.49561663320923177  1.0000
  C   C16       1.0  0.9463928387830658  0.2981124975389801  0.3663533802677079  1.0000
  C   C17       1.0  0.9671262203530839  0.23507453792508315  0.2431260214680193  1.0000
  C   C18       1.0  0.974833495485353  0.08498002555816606  0.2456663058408064  1.0000
  C   C19       1.0  0.959340562209029  0.9986029758152558  0.37358785737552136  1.0000
  C   C20       1.0  0.9370891908707136  0.06024619432338185  0.4981541993261518  1.0000
  C   C21       1.0  0.9977472886932442  0.020241453062702867  0.11362670477561164  1.0000
  N   N3        1.0  0.000959497423784536  0.09581937852018575  0.9827692809623554  1.0000
  C   C22       1.0  0.024260539035940942  0.9998322785696429  0.8941132635253592  1.0000
  C   C23       1.0  0.03496351956209723  0.8687621261234577  0.9717067725140245  1.0000
  N   N4        1.0  0.018322385037288665  0.8817541395531471  0.10974432398434607  1.0000
  H   H9        1.0  0.8696297896603501  0.4728765183764902  0.6976242036533633  1.0000
  H   H10       1.0  0.943069465445142  0.41483835591554413  0.3613962724805255  1.0000
  H   H11       1.0  0.9782661640266435  0.3046581297291677  0.1460923588103684  1.0000
  H   H12       1.0  0.9619320377186411  0.8821470708460886  0.37582353696176385  1.0000
  H   H13       1.0  0.937328947783592  0.7601402133966388  0.7381922371871696  1.0000
  H   H14       1.0  0.033114893932972185  0.024276582444135976  0.7798458767430447  1.0000
  H   H15       1.0  0.053942078657009285  0.7709276876130562  0.9306455623746065  1.0000
  H   H16       1.0  0.02222335920091713  0.8006659713133848  0.19446517196295665  1.0000
  C   C24       1.0  0.9361431071495272  0.640417686358042  0.07316552200220405  1.0000
  C   C25       1.0  0.9959929621684035  0.5742188765830591  0.1569164846572632  1.0000
  C   C26       1.0  0.05070888607572566  0.4975086769088521  0.09303845060867988  1.0000
  C   C27       1.0  0.04704226594792464  0.48432862185544484  0.9433762488918632  1.0000
  C   C28       1.0  0.9883602177006242  0.5530184536919887  0.8581788760457769  1.0000
  C   C29       1.0  0.9334531782832471  0.6329078601428324  0.9206052956991408  1.0000
  C   C30       1.0  0.10545333232929033  0.40086674318332416  0.8777733074227232  1.0000
  N   N5        1.0  0.16942564047342856  0.35353058253828407  0.9514999732599801  1.0000
  C   C31       1.0  0.20617441564379657  0.2831269617499766  0.8553361268144203  1.0000
  C   C32       1.0  0.16430684213062374  0.28831729982509957  0.7260069687553563  1.0000
  N   N6        1.0  0.10096013393264006  0.36229937774600746  0.7402756992345432  1.0000
  H   H17       1.0  0.8554622996993405  0.8185916396972681  0.3328659996494663  1.0000
  H   H18       1.0  0.9994914719008687  0.578677133123634  0.27339634184925776  1.0000
  H   H19       1.0  0.09541258110675502  0.44651548021452614  0.16169596350292625  1.0000
  H   H20       1.0  0.986441379366208  0.5490249930609397  0.7418897164901981  1.0000
  H   H21       1.0  0.8141921110155294  0.7086114287380657  0.6242081067532469  1.0000
  H   H22       1.0  0.2601485582353189  0.23081477631106173  0.878472479567506  1.0000
  H   H23       1.0  0.17877227774737925  0.24085414057142526  0.6285083668901286  1.0000
  H   H24       1.0  0.0576762713947323  0.38209351089664395  0.6606912420848177  1.0000
  Zn  Zn1       1.0  0.850734158124937  0.6326554699373417  0.48924748180703176  1.0000
  Zn  Zn2       1.0  0.018854780491528444  0.6406690344844417  0.5045220460737458  1.0000
  C   C33       1.0  0.9339288393017069  0.6285808535856705  0.7604036988869578  1.0000
  C   C34       1.0  0.935661944581214  0.6447455571147626  0.23336614286486454  1.0000
  C   C35       1.0  0.9362373786541806  0.900164425561421  0.4919243352738458  1.0000
  C   C36       1.0  0.9333533382432114  0.37316024868425524  0.5018455730022859  1.0000
  O   O1        1.0  0.9993013280109646  0.6492328430817806  0.2929275333623602  1.0000
  O   O2        1.0  0.9978891136345402  0.630174593185111  0.7124349306173898  1.0000
  O   O3        1.0  0.9997524235281243  0.8494817079073141  0.49563587131408404  1.0000
  O   O4        1.0  0.9974379611484205  0.42992573690254265  0.5097264792962823  1.0000
  O   O5        1.0  0.8721509200967605  0.843398764786242  0.48404304336445153  1.0000
  O   O6        1.0  0.8702876198174206  0.6240933837857965  0.7008420309234032  1.0000
  O   O7        1.0  0.871699839479547  0.6431515987921672  0.281332898728311  1.0000
  O   O8        1.0  0.8698364722146782  0.42384448133696456  0.4981319528115731  1.0000
