data_image0
_chemical_formula_structural       NC11NC3H8C12NCOCH13C16H10Zn2C4O8
_chemical_formula_sum              "N3 C48 H31 O9 Zn2"
_cell_length_a       17.807433833752565
_cell_length_b       10.299155265289649
_cell_length_c       10.299151387937775
_cell_angle_alpha    85.56903598390942
_cell_angle_beta     88.51281441211556
_cell_angle_gamma    90.66237101144993

_space_group_name_H-M_alt    "P 1"
_space_group_IT_number       1

loop_
  _space_group_symop_operation_xyz
  'x, y, z'

loop_
  _atom_site_type_symbol
  _atom_site_label
  _atom_site_symmetry_multiplicity
  _atom_site_fract_x
  _atom_site_fract_y
  _atom_site_fract_z
  _atom_site_occupancy
  N   N1        1.0  0.7072621244932195  0.4379317834006944  0.5342566656833561  1.0000
  C   C1        1.0  0.6564427708161107  0.4032318496997191  0.6008287410113262  1.0000
  C   C2        1.0  0.5932183695464905  0.3600679911237403  0.6836359076185198  1.0000
  C   C3        1.0  0.6049456094626156  0.29656720425072924  0.8063721285749982  1.0000
  C   C4        1.0  0.5436284898985002  0.25508223402730823  0.8868948993364656  1.0000
  C   C5        1.0  0.47042977933693  0.2767850414512625  0.8453223326864516  1.0000
  C   C6        1.0  0.4577257640693435  0.3404401888090156  0.7221258707506173  1.0000
  C   C7        1.0  0.3799588558984321  0.36347198824422944  0.6777722801263812  1.0000
  C   C8        1.0  0.36119361689401  0.34654194388908843  0.5481960212952481  1.0000
  C   C9        1.0  0.28796497729743664  0.3682060014631848  0.5065793935101804  1.0000
  C   C10       1.0  0.2325585255378315  0.40711829327900406  0.5937186604913142  1.0000
  C   C11       1.0  0.1571931735630627  0.42944026425035214  0.5507405537393191  1.0000
  N   N2        1.0  0.0966048040291551  0.447385470543449  0.516189283858014  1.0000
  C   C12       1.0  0.2506322147590251  0.4242586962615047  0.722763725835334  1.0000
  C   C13       1.0  0.32380807146730284  0.40255981812313313  0.764635793431947  1.0000
  C   C14       1.0  0.5199001946680104  0.38192060097958724  0.6416195171241326  1.0000
  H   H1        1.0  0.6614114582100088  0.279166170389898  0.8397425424498153  1.0000
  H   H2        1.0  0.5528267530318588  0.20566812779900878  0.9816448801808184  1.0000
  H   H3        1.0  0.423790944249545  0.24225447995386284  0.9087710656777107  1.0000
  H   H4        1.0  0.40288668074281686  0.3148679711722625  0.47948787129872894  1.0000
  H   H5        1.0  0.2745378410633352  0.3542805977383672  0.4065482733422176  1.0000
  H   H6        1.0  0.20822269430435783  0.45470933710004047  0.79095743873543  1.0000
  H   H7        1.0  0.3367064563185346  0.4180306520820807  0.8644837373308044  1.0000
  H   H8        1.0  0.5114000831779062  0.4326972513117222  0.5471034818829839  1.0000
  C   C15       1.0  0.9020209491883936  0.06126331417875285  0.525337597028644  1.0000
  C   C16       1.0  0.8892032327418352  0.07060517421131739  0.39100717874509505  1.0000
  C   C17       1.0  0.88263163467554  0.9582022034791577  0.32278447874068544  1.0000
  C   C18       1.0  0.889023637957427  0.8353409366533342  0.39070772793361724  1.0000
  C   C19       1.0  0.9018531843515165  0.8240441584757577  0.5251191878373499  1.0000
  C   C20       1.0  0.9082761987963806  0.9375204583725718  0.5916064741280043  1.0000
  C   C21       1.0  0.8690729657942471  0.9690584552172161  0.18067907347270395  1.0000
  C   C22       1.0  0.9071820808310725  0.0640663307851208  0.09749300225890156  1.0000
  C   C23       1.0  0.894428661721094  0.07415205170590024  0.9637620593774328  1.0000
  C   C24       1.0  0.843778269587163  0.9885604542033501  0.9103619121945221  1.0000
  C   C25       1.0  0.804751500240344  0.8953465587652356  0.9935224076456364  1.0000
  C   C26       1.0  0.8175322857546384  0.8850054699031521  0.1272147451143817  1.0000
  N   N3        1.0  0.8286075871448159  0.9983851595541228  0.773504813266633  1.0000
  C   C27       1.0  0.8834736590128156  0.03661966000327245  0.6727410005308418  1.0000
  O   O1        1.0  0.9523903465450286  0.040837056804762906  0.6974013481667152  1.0000
  C   C28       1.0  0.8595227619751697  0.06243657335150267  0.5353125141401159  1.0000
  H   H9        1.0  0.9069745109286941  0.3851467863482938  0.577000045366455  1.0000
  H   H10       1.0  0.8832653218102647  0.16548803354801267  0.33947307537396076  1.0000
  H   H11       1.0  0.8849883878437468  0.7484255308457928  0.3382665203628259  1.0000
  H   H12       1.0  0.9181653004713887  0.9296000826585586  0.6952177701146558  1.0000
  H   H13       1.0  0.9265181493203578  0.5954496411615006  0.7786620929905151  1.0000
  H   H14       1.0  0.9472936133474901  0.13010262377112292  0.13572395868665987  1.0000
  H   H15       1.0  0.9232562311600686  0.1502868859668727  0.9028438669627277  1.0000
  H   H16       1.0  0.7645679698392988  0.8300122656810776  0.9544277561098838  1.0000
  H   H17       1.0  0.7862906111074891  0.8124286569098333  0.1890779116294696  1.0000
  H   H18       1.0  0.7756974488061954  0.9682210323391232  0.7448866544230274  1.0000
  H   H19       1.0  0.8052932879505901  0.11456393667272491  0.5333753895596365  1.0000
  H   H20       1.0  0.8525761204209806  0.9686425045756497  0.49041079211798744  1.0000
  H   H21       1.0  0.9022968046838962  0.12354713875412006  0.4779322825329104  1.0000
  C   C29       1.0  0.9019806308620935  0.44248601581983277  0.14385545048134005  1.0000
  C   C30       1.0  0.8294829722538544  0.494682708430435  0.1422952353545952  1.0000
  C   C31       1.0  0.7926803148791948  0.5213203752233952  0.02435024840790034  1.0000
  C   C32       1.0  0.8293521995682027  0.49505715512637255  0.9069888576664366  1.0000
  C   C33       1.0  0.9018934664634193  0.44282137406784744  0.9066013718986903  1.0000
  C   C34       1.0  0.937761837494629  0.4168593427812593  0.02548185312512086  1.0000
  C   C35       1.0  0.7159865721379353  0.5765384655336909  0.02374513724347138  1.0000
  C   C36       1.0  0.6968826102488764  0.675894269556593  0.9292972782216486  1.0000
  C   C37       1.0  0.624686086499792  0.7278260205827  0.9288566052590352  1.0000
  C   C38       1.0  0.5706464103865092  0.6811874817991885  0.022605760722331333  1.0000
  C   C39       1.0  0.5890693641308541  0.5823735220765247  0.11692296348737785  1.0000
  C   C40       1.0  0.6612443539040962  0.5303536488982867  0.11761422665949017  1.0000
  C   C41       1.0  0.496330430862983  0.7346976146542696  0.022023592118890264  1.0000
  C   C42       1.0  0.4340918466706657  0.7795115402295142  0.021535949028257825  1.0000
  C   C43       1.0  0.36121111175567533  0.8319882479219682  0.020964922565581683  1.0000
  C   C44       1.0  0.2989825853884771  0.8767951692253395  0.020477464727745465  1.0000
  H   H22       1.0  0.9298503745417012  0.4223459749927112  0.4719367793138957  1.0000
  H   H23       1.0  0.8018743120071649  0.5164083645006277  0.23287362812502052  1.0000
  H   H24       1.0  0.8008414124939196  0.5137453125004583  0.8159332590527922  1.0000
  H   H25       1.0  0.9936802364310029  0.3765951161764687  0.025969856096517797  1.0000
  H   H26       1.0  0.038622725378641316  0.3434661037288918  0.6986448676544555  1.0000
  H   H27       1.0  0.7380598054302449  0.7145988774214437  0.8568288608166478  1.0000
  H   H28       1.0  0.6110827981727526  0.804550595571816  0.8556125837072526  1.0000
  H   H29       1.0  0.5476004017932603  0.545303147468376  0.18973584196077237  1.0000
  H   H30       1.0  0.6739599942066333  0.4528458281147605  0.19050664806919188  1.0000
  H   H31       1.0  0.24434080140906309  0.9161392831814231  0.02004944389604946  1.0000
  Zn  Zn1       1.0  0.8196180112504582  0.4406564417103598  0.5290502951584362  1.0000
  Zn  Zn2       1.0  0.9842489036379053  0.4446501965595786  0.5214062435492246  1.0000
  C   C45       1.0  0.9019094120213758  0.4375839444365901  0.7624276026429493  1.0000
  C   C46       1.0  0.9019593002561733  0.44772437623444605  0.28802897959051865  1.0000
  C   C47       1.0  0.901881599081577  0.679859944143921  0.5199854385464745  1.0000
  C   C48       1.0  0.9019870573542905  0.2054468147838473  0.5304712159814988  1.0000
  O   O2        1.0  0.9644287084362895  0.45099236085941596  0.33351405687490066  1.0000
  O   O3        1.0  0.9643910421220285  0.4373461473780528  0.7111404934890235  1.0000
  O   O4        1.0  0.9643677404531088  0.6329870613026076  0.5153667693817243  1.0000
  O   O5        1.0  0.9644519539369204  0.25535145482011057  0.5292876862122383  1.0000
  O   O6        1.0  0.8394149047709998  0.6299551820883664  0.5211688550971305  1.0000
  O   O7        1.0  0.8394382061011576  0.4343158285456165  0.7169425095116322  1.0000
  O   O8        1.0  0.8394758726537532  0.44796199608247433  0.3393145114909386  1.0000
  O   O9        1.0  0.8394991181422294  0.25232108079645754  0.5350882381999462  1.0000
