data_image0
_chemical_formula_structural       NC8NC6H8C8H10C7NH5Zn2C4O8
_chemical_formula_sum              "N3 C33 H23 Zn2 O8"
_cell_length_a       17.457602349358154
_cell_length_b       9.275653711864159
_cell_length_c       10.302823150593486
_cell_angle_alpha    85.74330494099307
_cell_angle_beta     92.87590926728866
_cell_angle_gamma    91.13236207428555

_space_group_name_H-M_alt    "P 1"
_space_group_IT_number       1

loop_
  _space_group_symop_operation_xyz
  'x, y, z'

loop_
  _atom_site_type_symbol
  _atom_site_label
  _atom_site_symmetry_multiplicity
  _atom_site_fract_x
  _atom_site_fract_y
  _atom_site_fract_z
  _atom_site_occupancy
  N   N1        1.0  0.7142241047748732  0.6125054419426261  0.6309056665854629  1.0000
  C   C1        1.0  0.6534054077326567  0.5615329627101788  0.6201679260049839  1.0000
  C   C2        1.0  0.5777443333229088  0.49812954092570605  0.6068197312685997  1.0000
  C   C3        1.0  0.5189890019849833  0.5427050951366483  0.6818033910941514  1.0000
  C   C4        1.0  0.44475405328202333  0.4816527365999259  0.6690752229034476  1.0000
  C   C5        1.0  0.3823951636597622  0.5287179561673656  0.7484854133165977  1.0000
  C   C6        1.0  0.3077442500127038  0.5492162146146786  0.6927899312624242  1.0000
  C   C7        1.0  0.24898995404501434  0.593587629251241  0.7678810085857055  1.0000
  C   C8        1.0  0.1728974651705492  0.6147583308293666  0.7099724191599364  1.0000
  N   N2        1.0  0.11173205663453231  0.6317724940571201  0.6634140468460705  1.0000
  C   C9        1.0  0.26439303655503216  0.6177306474934615  0.8991765886987221  1.0000
  C   C10       1.0  0.3382570504656213  0.5976641253283201  0.95526060833099  1.0000
  C   C11       1.0  0.3969987251579239  0.5534925522806152  0.880627599279129  1.0000
  C   C12       1.0  0.4305669055959852  0.37527295794237947  0.579929078494545  1.0000
  C   C13       1.0  0.4893089457143321  0.3310067103280756  0.5053460564097592  1.0000
  C   C14       1.0  0.5627584944325946  0.39218379346385845  0.5186243074783619  1.0000
  H   H1        1.0  0.5309085900393996  0.6261633004325258  0.748618328110271  1.0000
  H   H2        1.0  0.29548375130113164  0.5326009213596068  0.5907568067360116  1.0000
  H   H3        1.0  0.21935773996748942  0.652007361936052  0.9580781481634457  1.0000
  H   H4        1.0  0.349995045556058  0.6160082705030523  0.05692484240067552  1.0000
  H   H5        1.0  0.4535689648539838  0.5368529928464665  0.9266785645821232  1.0000
  H   H6        1.0  0.374338158053059  0.3249549528696052  0.5691568421395241  1.0000
  H   H7        1.0  0.4778968653050978  0.24878767132881774  0.43733622440934  1.0000
  H   H8        1.0  0.6077987441556909  0.3569417979412923  0.4602313373929736  1.0000
  C   C15       1.0  0.9151344832709725  0.19885433515841955  0.6461246798950477  1.0000
  C   C16       1.0  0.8971333651586637  0.28138779716962325  0.528865142172108  1.0000
  C   C17       1.0  0.8722164577104741  0.21495309330188792  0.4160645193876967  1.0000
  C   C18       1.0  0.8664416134513164  0.06407947020236149  0.41974055420613815  1.0000
  C   C19       1.0  0.8852704600745047  0.9803986626643714  0.5345657911951831  1.0000
  C   C20       1.0  0.9108290569875958  0.04541279660527309  0.6482068064867568  1.0000
  C   C21       1.0  0.8542513431561555  0.30487048173605347  0.2908942783448405  1.0000
  C   C22       1.0  0.926000503972733  0.3301870846155428  0.21321595429489706  1.0000
  H   H9        1.0  0.98476069072981  0.46677294931145275  0.8317659294678564  1.0000
  H   H10       1.0  0.9008059289590411  0.3983844914536707  0.5256677876984193  1.0000
  H   H11       1.0  0.8480745232590065  0.010948397323742086  0.33308065316383884  1.0000
  H   H12       1.0  0.8817234892921414  0.8637556246772764  0.5334832366586735  1.0000
  H   H13       1.0  0.9180466342752535  0.7466553950466838  0.8628877639709928  1.0000
  H   H14       1.0  0.8095360041842757  0.24982276703887263  0.2307831013109496  1.0000
  H   H15       1.0  0.8309735042131184  0.41090560952601063  0.3120019393870741  1.0000
  H   H16       1.0  0.9706991219853948  0.38855005887188643  0.27047110272732455  1.0000
  H   H17       1.0  0.9490232469958682  0.22539648968225243  0.18838420539095302  1.0000
  H   H18       1.0  0.9115346681742823  0.39654498406818234  0.12142006433049235  1.0000
  C   C23       1.0  0.9129817837912706  0.6221336032610869  0.2659176792025777  1.0000
  C   C24       1.0  0.8325515880022172  0.6286852102302354  0.2575406462006269  1.0000
  C   C25       1.0  0.7925368080493296  0.6319445781296674  0.13627048527874686  1.0000
  C   C26       1.0  0.8325515735661788  0.628685115385744  0.022239650900851556  1.0000
  C   C27       1.0  0.9129817833713718  0.6221335957504626  0.028413845761631865  1.0000
  C   C28       1.0  0.9527766418598065  0.6188919904604631  0.1507655293536394  1.0000
  C   C29       1.0  0.710084094150918  0.6386607034465781  0.12881189556895145  1.0000
  N   N3        1.0  0.6438190518579728  0.6440584500950026  0.12281759221157085  1.0000
  H   H19       1.0  0.9434470679085877  0.6196523505904693  0.5964129524418635  1.0000
  H   H20       1.0  0.800830942671349  0.6312690792543479  0.34509548945440893  1.0000
  H   H21       1.0  0.800830973631533  0.6312689745989368  0.9289459551834347  1.0000
  H   H22       1.0  0.014801511598719005  0.6138396517236351  0.15637625253430554  1.0000
  H   H23       1.0  0.943447043386677  0.6196521179572496  0.7034302494635014  1.0000
  Zn  Zn1       1.0  0.8289363327283235  0.6180616315084377  0.6402943694942795  1.0000
  Zn  Zn2       1.0  0.9970198745353132  0.6262044863796898  0.6540359440285377  1.0000
  C   C30       1.0  0.9130092596807742  0.6163911758332832  0.8842714695285009  1.0000
  C   C31       1.0  0.9129487738002885  0.6278768496931718  0.410059125951175  1.0000
  C   C32       1.0  0.9116389324241168  0.8853950647298305  0.6426394067893206  1.0000
  C   C33       1.0  0.9143190525093189  0.35887122622416845  0.6516912489585747  1.0000
  O   O1        1.0  0.9767245554685506  0.6328882181904248  0.4636491526825399  1.0000
  O   O2        1.0  0.9768050025859126  0.617558958367677  0.8411106035081449  1.0000
  O   O3        1.0  0.9756975861190198  0.8347829590130845  0.6459909366458583  1.0000
  O   O4        1.0  0.9778319145274778  0.41566422507771894  0.6587687175373051  1.0000
  O   O5        1.0  0.8481242353774874  0.8286018900332206  0.6355615912893626  1.0000
  O   O6        1.0  0.849231643033335  0.6113796211830821  0.8306811931872804  1.0000
  O   O7        1.0  0.8491511962224862  0.6267088307783788  0.45321818133635006  1.0000
  O   O8        1.0  0.8502585553307076  0.40948482735578373  0.6483378435024871  1.0000
