data_image0
_chemical_formula_structural       NC6NCNCH5C6NCOH7C6ClH3Zn2C4O8
_chemical_formula_sum              "N4 C25 H15 O9 Cl1 Zn2"
_cell_length_a       14.933214217465613
_cell_length_b       9.273730183620394
_cell_length_c       10.302974078461048
_cell_angle_alpha    85.70652844495697
_cell_angle_beta     89.96595870270414
_cell_angle_gamma    90.62849436272045

_space_group_name_H-M_alt    "P 1"
_space_group_IT_number       1

loop_
  _space_group_symop_operation_xyz
  'x, y, z'

loop_
  _atom_site_type_symbol
  _atom_site_label
  _atom_site_symmetry_multiplicity
  _atom_site_fract_x
  _atom_site_fract_y
  _atom_site_fract_z
  _atom_site_occupancy
  N   N1        1.0  0.8534061769445862  0.579189720656516  0.5708098530954648  1.0000
  C   C1        1.0  0.7759223360994854  0.5801864815349145  0.5699200432376924  1.0000
  C   C2        1.0  0.6795318984301908  0.5814291877325541  0.568810560014122  1.0000
  C   C3        1.0  0.6310907413998412  0.4856586250889825  0.654322445512318  1.0000
  C   C4        1.0  0.5375642908764661  0.48674158376235965  0.6533555169618859  1.0000
  C   C5        1.0  0.4915762900469966  0.5835402333370967  0.5669257033560731  1.0000
  C   C6        1.0  0.3949871813337278  0.5814313445767612  0.5688086998679494  1.0000
  N   N2        1.0  0.3174902098883769  0.5796720654370531  0.5703791988482352  1.0000
  C   C7        1.0  0.5401240010525371  0.6805201170354045  0.48033415122682954  1.0000
  N   N3        1.0  0.49546025980688563  0.781131099815644  0.3905005824420932  1.0000
  C   C8        1.0  0.6341245872059882  0.6784709494012491  0.48216392243783246  1.0000
  H   H1        1.0  0.6656020511627373  0.4101499772399979  0.7217427776921315  1.0000
  H   H2        1.0  0.5009986854418644  0.41186812642515425  0.7202085834223622  1.0000
  H   H3        1.0  0.5322734715315949  0.8521922442037032  0.3270512741332348  1.0000
  H   H4        1.0  0.4257532596854318  0.7864844621662297  0.3857207217292242  1.0000
  H   H5        1.0  0.6718097774663241  0.7525910565664671  0.41598336143408043  1.0000
  C   C9        1.0  0.0827169617086927  0.15592741833193788  0.5696311590307159  1.0000
  C   C10       1.0  0.0958491554275247  0.23942834273418548  0.45127335135492164  1.0000
  C   C11       1.0  0.11586707747858732  0.17464170780686694  0.3363760599448462  1.0000
  C   C12       1.0  0.12559188010703193  0.024196450761625465  0.34072735296082746  1.0000
  C   C13       1.0  0.11145551189998759  0.9395246411070257  0.4567510508259541  1.0000
  C   C14       1.0  0.08818793615942139  0.0029232826717189315  0.571569157962131  1.0000
  N   N4        1.0  0.13100389013256875  0.2644345103010362  0.2182768769338395  1.0000
  C   C15       1.0  0.10863556718779743  0.22345647652490144  0.09075833103990229  1.0000
  O   O1        1.0  0.06260239116603739  0.1115071615351928  0.07503536890917584  1.0000
  H   H6        1.0  0.09675394790796998  0.2325714793943603  0.8886555643515386  1.0000
  H   H7        1.0  0.09186510774232337  0.3562508082350848  0.44841372688335907  1.0000
  H   H8        1.0  0.14502422393166292  0.9717226384357319  0.2549124624543935  1.0000
  H   H9        1.0  0.11721786417932045  0.8232391221041065  0.45603371529595993  1.0000
  H   H10       1.0  0.09380162212288617  0.7041111812298364  0.7862364831638781  1.0000
  H   H11       1.0  0.15425528295968485  0.37023210820754954  0.22538624562335707  1.0000
  H   H12       1.0  0.12943394229024752  0.2920921128475029  0.00634141565086055  1.0000
  C   C16       1.0  0.08545244524073704  0.5794253487804748  0.1893576452192516  1.0000
  C   C17       1.0  0.06890816011860079  0.42962121425331223  0.19826304723220134  1.0000
  C   C18       1.0  0.06069938297386537  0.35529248296747085  0.08572487356852211  1.0000
  C   C19       1.0  0.06890820069511606  0.42962129574228264  0.9631551484102874  1.0000
  C   C20       1.0  0.08545244247573261  0.5794252743348316  0.9518426641244618  1.0000
  C   C21       1.0  0.09364395529331548  0.6535971405915721  0.06559497656662305  1.0000
  Cl  Cl1       1.0  0.040031643414546014  0.16815153066396582  0.09835337905259924  1.0000
  H   H13       1.0  0.06232812376298982  0.37004061173299174  0.2923301632762787  1.0000
  H   H14       1.0  0.06232818620584249  0.3700405912194489  0.877129197097224  1.0000
  H   H15       1.0  0.10640336437898457  0.7691305854188143  0.05779853824900072  1.0000
  Zn  Zn1       1.0  0.9873307796960596  0.5793250452504644  0.5706930717048375  1.0000
  Zn  Zn2       1.0  0.18356551605382165  0.579524909645553  0.5705066145249332  1.0000
  C   C22       1.0  0.08541332293523564  0.5736800352562379  0.8077034985005429  1.0000
  C   C23       1.0  0.08548512744547382  0.5851717414804309  0.333496317280765  1.0000
  C   C24       1.0  0.08714917727044852  0.8428229949048576  0.5660293503827675  1.0000
  C   C25       1.0  0.08374919495720562  0.3160270490751138  0.5751705307133859  1.0000
  O   O2        1.0  0.1599661150141356  0.5871698391549052  0.3817997984239321  1.0000
  O   O3        1.0  0.15986995267197845  0.5718325420685497  0.7592581244607423  1.0000
  O   O4        1.0  0.1612706731084823  0.7891688847395669  0.56410454435585  1.0000
  O   O5        1.0  0.15856532768264864  0.36983350673232107  0.576953281273666  1.0000
  O   O6        1.0  0.012330901101957448  0.7890164480970626  0.5642464050129083  1.0000
  O   O7        1.0  0.010930191853234303  0.5716818381161082  0.7593999198597592  1.0000
  O   O8        1.0  0.011026353930367222  0.5870190849466557  0.3819400328248144  1.0000
  O   O9        1.0  0.009625566528588703  0.3696827422090048  0.5770936129865105  1.0000
