data_image0
_chemical_formula_structural       NC6NC3H6C6BrH5C6NH7Zn2C4O8
_chemical_formula_sum              "N3 C25 H18 Br1 Zn2 O8"
_cell_length_a       14.934028789175542
_cell_length_b       9.276564384272257
_cell_length_c       9.274774538082514
_cell_angle_alpha    85.01137938942293
_cell_angle_beta     90.32448570792074
_cell_angle_gamma    90.54840447220178

_space_group_name_H-M_alt    "P 1"
_space_group_IT_number       1

loop_
  _space_group_symop_operation_xyz
  'x, y, z'

loop_
  _atom_site_type_symbol
  _atom_site_label
  _atom_site_symmetry_multiplicity
  _atom_site_fract_x
  _atom_site_fract_y
  _atom_site_fract_z
  _atom_site_occupancy
  N   N1        1.0  0.8472535756970189  0.5912478065331552  0.4061757067979863  1.0000
  C   C1        1.0  0.7697579930746431  0.5901556003831301  0.4054969785550906  1.0000
  C   C2        1.0  0.6733495398645024  0.5887918724664127  0.4046497128599629  1.0000
  C   C3        1.0  0.6265146127678864  0.6950008466905657  0.4705281960932379  1.0000
  C   C4        1.0  0.532993323419903  0.6939058600504693  0.46984887560985694  1.0000
  C   C5        1.0  0.48539488627116617  0.5866560988149419  0.40332489228044444  1.0000
  C   C6        1.0  0.3887692220499722  0.5889572394526406  0.4047535276256147  1.0000
  N   N2        1.0  0.3113050584680487  0.5907834818048991  0.40588765863395615  1.0000
  C   C7        1.0  0.5322114069293321  0.4789777515024403  0.3365344390557352  1.0000
  C   C8        1.0  0.48287674942562947  0.3623749566609402  0.264210273380473  1.0000
  C   C9        1.0  0.6263735229505943  0.481190069803378  0.33790673152563766  1.0000
  H   H1        1.0  0.6622897817514738  0.7786836613231947  0.5224349201202405  1.0000
  H   H2        1.0  0.4976829177488334  0.776944196849711  0.5213557027338698  1.0000
  H   H3        1.0  0.44010726279992257  0.41221631589630303  0.17545403961190686  1.0000
  H   H4        1.0  0.4400326621058927  0.2988324081098248  0.34447475195324784  1.0000
  H   H5        1.0  0.5296759205314996  0.2868497106282639  0.21735755593016856  1.0000
  H   H6        1.0  0.6631866377869566  0.39925638792772755  0.287085384402491  1.0000
  C   C10       1.0  0.07658720636169053  0.1675341513282016  0.40640240996546595  1.0000
  C   C11       1.0  0.06461942347569916  0.2521933949429347  0.2745004772447244  1.0000
  C   C12       1.0  0.06098956687446397  0.18834541508080527  0.14382546790202055  1.0000
  C   C13       1.0  0.06929832773601574  0.03894081201681888  0.14257111773272826  1.0000
  C   C14       1.0  0.07968120125722501  0.9526071846380334  0.272479342027486  1.0000
  C   C15       1.0  0.08198001094012541  0.014485873176810497  0.4056733745543979  1.0000
  Br  Br1       1.0  0.06498890367586309  0.9521478652476167  0.9632617565298377  1.0000
  H   H7        1.0  0.051206448840333194  0.42806993533538784  0.6410570238082974  1.0000
  H   H8        1.0  0.06019132380734837  0.36887572137388913  0.27203241567799474  1.0000
  H   H9        1.0  0.052567475680517645  0.25544897645146825  0.04329960387895327  1.0000
  H   H10       1.0  0.08381259567228883  0.8363901481254332  0.2693651460230124  1.0000
  H   H11       1.0  0.13221573501606687  0.7145467075340823  0.6304248432302602  1.0000
  C   C16       1.0  0.07770011793831785  0.594700013462683  0.982219424752921  1.0000
  C   C17       1.0  0.14169016199646467  0.6797374533904339  0.04884329754236005  1.0000
  C   C18       1.0  0.20962172064015863  0.752891716632003  0.9679734749002095  1.0000
  C   C19       1.0  0.2141117587644975  0.741340080344506  0.8190031655070404  1.0000
  C   C20       1.0  0.15042922197049877  0.6594791499442316  0.7506738174792993  1.0000
  C   C21       1.0  0.08086708730394893  0.5873200000986367  0.8298564053186559  1.0000
  N   N3        1.0  0.2746384428711104  0.8377275007114449  0.037602127374736  1.0000
  H   H12       1.0  0.9420608226464579  0.31292914270888605  0.10846547006945896  1.0000
  H   H13       1.0  0.14012190013141934  0.6865785423969439  0.1648585406051577  1.0000
  H   H14       1.0  0.2665548307103074  0.7970048433010277  0.7553921019658185  1.0000
  H   H15       1.0  0.15439656048105127  0.6554637898964837  0.6345017418659555  1.0000
  H   H16       1.0  0.9867871849098819  0.4019303253221489  0.5639919436854717  1.0000
  H   H17       1.0  0.2720958035757115  0.8467734470507005  0.1489658806493297  1.0000
  H   H18       1.0  0.32578186876755777  0.8922595174751916  0.9782815268969483  1.0000
  Zn  Zn1       1.0  0.9811688295840422  0.5911098755592858  0.40610091362789236  1.0000
  Zn  Zn2       1.0  0.1773898035164716  0.5909094972035489  0.4059742615274804  1.0000
  C   C22       1.0  0.08022989000791543  0.5829700338611712  0.6696398138326227  1.0000
  C   C23       1.0  0.07833089793450544  0.5990511550436821  0.14243550002812255  1.0000
  C   C24       1.0  0.08093455611151379  0.8544440691271694  0.4000600077980163  1.0000
  C   C25       1.0  0.07762615412990743  0.3275753865777935  0.4120153845426999  1.0000
  O   O1        1.0  0.153007390397498  0.6004291039861767  0.19615742008545545  1.0000
  O   O2        1.0  0.1544805680360627  0.5814389180923618  0.6158213532397381  1.0000
  O   O3        1.0  0.15504859661175763  0.8006576227867139  0.39813375190225253  1.0000
  O   O4        1.0  0.15243929452625155  0.3812104106184533  0.41384491324398986  1.0000
  O   O5        1.0  0.006119271613655997  0.8008089622143968  0.39823026194700994  1.0000
  O   O6        1.0  0.00555125377835464  0.5815919907899498  0.6159177848401522  1.0000
  O   O7        1.0  0.004078069396244998  0.6005821415379147  0.19625211653133334  1.0000
  O   O8        1.0  0.0035099738599437802  0.3813634369135783  0.41393971790444617  1.0000
