data_image0
_chemical_formula_structural       NC8NH4C7NH5C6IH3Zn2C4O8
_chemical_formula_sum              "N3 C25 H12 I1 Zn2 O8"
_cell_length_a       13.859017981522156
_cell_length_b       9.275154477615127
_cell_length_c       9.275433903346869
_cell_angle_alpha    86.39417635758981
_cell_angle_beta     89.965620414742
_cell_angle_gamma    89.43373755438122

_space_group_name_H-M_alt    "P 1"
_space_group_IT_number       1

loop_
  _space_group_symop_operation_xyz
  'x, y, z'

loop_
  _atom_site_type_symbol
  _atom_site_label
  _atom_site_symmetry_multiplicity
  _atom_site_fract_x
  _atom_site_fract_y
  _atom_site_fract_z
  _atom_site_occupancy
  N   N1        1.0  0.8989002207957244  0.561051118234748  0.4167305323993537  1.0000
  C   C1        1.0  0.8266210701415168  0.5533699984205405  0.3554071422883054  1.0000
  C   C2        1.0  0.7367100692033969  0.5438160623029398  0.27912882595651634  1.0000
  C   C3        1.0  0.7367105714919725  0.525184981283177  0.13038236529772695  1.0000
  C   C4        1.0  0.6493690423091669  0.5159077297578873  0.056306320380510304  1.0000
  C   C5        1.0  0.5618452842638029  0.5251867006988784  0.13038212389969137  1.0000
  C   C6        1.0  0.5614798259619871  0.5438170334487573  0.27912864607918886  1.0000
  C   C7        1.0  0.6490035436865259  0.553130510782899  0.35349072512368124  1.0000
  C   C8        1.0  0.47138124750917565  0.5533708994641027  0.35540690551720844  1.0000
  N   N2        1.0  0.3989513031004783  0.561051430668883  0.4167304400659503  1.0000
  H   H1        1.0  0.8040780470998163  0.5178535258719905  0.07185220083589261  1.0000
  H   H2        1.0  0.6495103363595157  0.5015162801865742  0.9414060808891285  1.0000
  H   H3        1.0  0.4946217570783308  0.5178566186106839  0.07185179328557845  1.0000
  H   H4        1.0  0.6488619559414408  0.5675509938360304  0.4686245635241393  1.0000
  C   C9        1.0  0.15172332758142387  0.13764426055829837  0.4150629498714526  1.0000
  C   C10       1.0  0.1252980981673224  0.21947215234289683  0.28800792107879597  1.0000
  C   C11       1.0  0.09102138091570433  0.15215410279917174  0.1676831884003502  1.0000
  C   C12       1.0  0.0826052460240343  0.0020900758967521416  0.1729963999124588  1.0000
  C   C13       1.0  0.10992612379310596  0.9190237107381787  0.29715531021115615  1.0000
  C   C14       1.0  0.1461375099448925  0.9844473742787674  0.4184104757241548  1.0000
  C   C15       1.0  0.06331317446811768  0.2375475208379043  0.0390968153812743  1.0000
  N   N3        1.0  0.04104346354359234  0.306188273177797  0.9357463085770708  1.0000
  H   H5        1.0  0.17026579451399831  0.21807698108441567  0.7687822104056945  1.0000
  H   H6        1.0  0.1292406400493724  0.3363860851469538  0.2837322197261095  1.0000
  H   H7        1.0  0.055747303776469075  0.9489800279546128  0.08051928595641542  1.0000
  H   H8        1.0  0.10485947446926258  0.8025547625593833  0.2970284931653786  1.0000
  H   H9        1.0  0.16271777812513588  0.6881975529504252  0.6554124408948541  1.0000
  C   C16       1.0  0.14912946069453795  0.5565455845055072  0.993566573431372  1.0000
  C   C17       1.0  0.23802969434325782  0.5538463669222782  0.06701074750271196  1.0000
  C   C18       1.0  0.3248843787261677  0.5644336023276525  0.9909338378695893  1.0000
  C   C19       1.0  0.3242289781339684  0.578056676022267  0.8404420474971901  1.0000
  C   C20       1.0  0.23697796498145118  0.5785764913934308  0.7654687362391135  1.0000
  C   C21       1.0  0.14873136185900093  0.5655459811415713  0.8399067762545358  1.0000
  I   I1        1.0  0.45706364661560617  0.5625196426357331  0.10371063379880228  1.0000
  H   H10       1.0  0.9185565219211428  0.6419649944399597  0.09139390855367366  1.0000
  H   H11       1.0  0.3914663124332937  0.5868705845119957  0.7812659418673338  1.0000
  H   H12       1.0  0.9930543979525174  0.6169923416702174  0.5556346585489214  1.0000
  Zn  Zn1       1.0  0.04320418892848266  0.5610474466263038  0.41673880837867605  1.0000
  Zn  Zn2       1.0  0.25464740972530064  0.5610434635712693  0.41673390809900623  1.0000
  C   C22       1.0  0.1488423543712869  0.5581007784182703  0.6799076748910031  1.0000
  C   C23       1.0  0.1490115411689661  0.5639919524840222  0.1535651901626227  1.0000
  C   C24       1.0  0.14719107872554904  0.8243224728270804  0.41203527298425047  1.0000
  C   C25       1.0  0.15066275605462032  0.29776852659937325  0.42143766205090594  1.0000
  O   O1        1.0  0.22921360813871092  0.5664832197781431  0.2072603030464779  1.0000
  O   O2        1.0  0.22912080689332973  0.5556053959490956  0.6262084236857615  1.0000
  O   O3        1.0  0.22778629852621993  0.770582796972165  0.409899569855922  1.0000
  O   O4        1.0  0.2305480443373578  0.35150582792167384  0.4235690488710217  1.0000
  O   O5        1.0  0.06730348216122461  0.7705850822787474  0.40990366760075925  1.0000
  O   O6        1.0  0.06863797913321748  0.5556094127343643  0.6262124514431666  1.0000
  O   O7        1.0  0.06873078158913137  0.5664871678940897  0.20726259806208275  1.0000
  O   O8        1.0  0.07006521780104058  0.35150976687386826  0.42357145188602097  1.0000
