data_image0
_chemical_formula_structural       NC8NC6H8C8H6C8H6Zn2C4O8
_chemical_formula_sum              "N2 C34 H20 Zn2 O8"
_cell_length_a       17.457602349358154
_cell_length_b       9.27514070457351
_cell_length_c       9.275144076552241
_cell_angle_alpha    86.09146216302537
_cell_angle_beta     93.32514331016303
_cell_angle_gamma    92.27341969939751

_space_group_name_H-M_alt    "P 1"
_space_group_IT_number       1

loop_
  _space_group_symop_operation_xyz
  'x, y, z'

loop_
  _atom_site_type_symbol
  _atom_site_label
  _atom_site_symmetry_multiplicity
  _atom_site_fract_x
  _atom_site_fract_y
  _atom_site_fract_z
  _atom_site_occupancy
  N   N1        1.0  0.7247544853121235  0.6026138616919845  0.4795922501951233  1.0000
  C   C1        1.0  0.6633443984937126  0.5515232974114914  0.46765724618471877  1.0000
  C   C2        1.0  0.5869477481207288  0.4879730580609489  0.45282071462713885  1.0000
  C   C3        1.0  0.52902351533765  0.5331749725949024  0.536113603198592  1.0000
  C   C4        1.0  0.45408086511447615  0.47198223798000427  0.5219661335292847  1.0000
  C   C5        1.0  0.39260063455201777  0.5197107037009439  0.6101760501840547  1.0000
  C   C6        1.0  0.3179003227713411  0.5397778530721644  0.5483176009700346  1.0000
  C   C7        1.0  0.2599754768097203  0.5847763546904867  0.6317297660728016  1.0000
  C   C8        1.0  0.18383012181562142  0.6054987262501028  0.5674132952508095  1.0000
  N   N2        1.0  0.1226221345447198  0.6221524286999716  0.5157029999134211  1.0000
  C   C9        1.0  0.27626270250789303  0.6099818001463383  0.7775658022645027  1.0000
  C   C10       1.0  0.35018254786115904  0.5903497604483481  0.8398558776018261  1.0000
  C   C11       1.0  0.40809908194736216  0.5455548806576778  0.7569525291010362  1.0000
  C   C12       1.0  0.4383400875693698  0.3648238058329458  0.42293253342696935  1.0000
  C   C13       1.0  0.496256223339531  0.3199345898330721  0.34008469057370494  1.0000
  C   C14       1.0  0.5704174275697157  0.38125651525724513  0.35484316647954217  1.0000
  H   H1        1.0  0.5421470274782608  0.617219150568161  0.6103397935801742  1.0000
  H   H2        1.0  0.304975477664937  0.522338287576495  0.43498507431629757  1.0000
  H   H3        1.0  0.2318724311053659  0.6447500662464539  0.8429943487503273  1.0000
  H   H4        1.0  0.36260143921568994  0.6095163367828085  0.9527789577551522  1.0000
  H   H5        1.0  0.4647134404874865  0.5292719740407617  0.8080993015169082  1.0000
  H   H6        1.0  0.3815267186173173  0.3143878573135461  0.410959322642126  1.0000
  H   H7        1.0  0.48364762779951914  0.23712083807867024  0.26453151663760277  1.0000
  H   H8        1.0  0.6148048600558587  0.34552640938767754  0.28997935852010825  1.0000
  C   C15       1.0  0.9213555049181117  0.18882075525341893  0.4964278467253754  1.0000
  C   C16       1.0  0.9317513151438888  0.271850695840425  0.3658841918558555  1.0000
  C   C17       1.0  0.948864450956129  0.2064902711836183  0.2411164242678336  1.0000
  C   C18       1.0  0.955993730488414  0.056929685204702096  0.24450373552467794  1.0000
  C   C19       1.0  0.9446045028563488  0.9722535473934567  0.37259485550478266  1.0000
  C   C20       1.0  0.9260284249519969  0.035934854199281885  0.49888054184567315  1.0000
  C   C21       1.0  0.9741369071818754  0.9898406815427341  0.11580041436851851  1.0000
  C   C22       1.0  0.9893279434066105  0.9336551816343865  0.008048251850055975  1.0000
  H   H9        1.0  0.9354388930815132  0.26850243780224026  0.8518839427229752  1.0000
  H   H10       1.0  0.9284311178969371  0.3884815467424245  0.3611678072836795  1.0000
  H   H11       1.0  0.9572887375467725  0.2729458123184376  0.14223322554937923  1.0000
  H   H12       1.0  0.9484737938330848  0.855835080236606  0.3727679730282425  1.0000
  H   H13       1.0  0.9325648143059783  0.7394037154244453  0.7381045156261967  1.0000
  H   H14       1.0  0.002662410657444434  0.8843344139729538  0.9134644748558927  1.0000
  C   C23       1.0  0.9218673520773972  0.6093374481900737  0.07419600465083898  1.0000
  C   C24       1.0  0.8723305129351913  0.7009457350510708  0.1358989882100572  1.0000
  C   C25       1.0  0.8289933511204696  0.8000030171687074  0.04927288168717592  1.0000
  C   C26       1.0  0.8344104876447017  0.8094837084936952  0.8993561375595474  1.0000
  C   C27       1.0  0.8823529254105555  0.7176913776711806  0.8357523589806197  1.0000
  C   C28       1.0  0.9255165974458505  0.6154181992119618  0.9211123941471886  1.0000
  C   C29       1.0  0.7899801485270711  0.9124512079257682  0.8102703937480542  1.0000
  C   C30       1.0  0.7527831960736817  0.9986592871688745  0.735668739044887  1.0000
  H   H15       1.0  0.08042234919099278  0.4278323228500278  0.20673719369140509  1.0000
  H   H16       1.0  0.8684769687596423  0.6983324800402796  0.25221355518331845  1.0000
  H   H17       1.0  0.7917775668061566  0.8702748102532534  0.0995062401633855  1.0000
  H   H18       1.0  0.8845869792825716  0.7237929591739913  0.7188848646157746  1.0000
  H   H19       1.0  0.030582181035707867  0.488549654303344  0.6605178151645674  1.0000
  H   H20       1.0  0.7201319904923859  0.07433157904067  0.670182495396674  1.0000
  Zn  Zn1       1.0  0.83957050903719  0.6082484618338884  0.4900213473562942  1.0000
  Zn  Zn2       1.0  0.007806082204938172  0.6165060874555293  0.5052856744844414  1.0000
  C   C31       1.0  0.9247934002662226  0.6085226103609145  0.7610102329607924  1.0000
  C   C32       1.0  0.9225850387521736  0.6162338500299569  0.23429710236924794  1.0000
  C   C33       1.0  0.9251164471087119  0.8757708052062215  0.49267022112144065  1.0000
  C   C34       1.0  0.9222619252745361  0.34898391998843237  0.502637180862632  1.0000
  O   O1        1.0  0.9866703894946706  0.6216757787907594  0.29382120768055486  1.0000
  O   O2        1.0  0.9883949490608527  0.6093469372816191  0.7130709804917832  1.0000
  O   O3        1.0  0.9886549592777009  0.8251532029553272  0.4963844486337278  1.0000
  O   O4        1.0  0.9864103214614554  0.4058695198410591  0.510507626238514  1.0000
  O   O5        1.0  0.8609662123701041  0.8188850266319518  0.48479939038567554  1.0000
  O   O6        1.0  0.8607062113778352  0.6030804933380542  0.7014858503731527  1.0000
  O   O7        1.0  0.8589816441150789  0.6154092721389044  0.2822343436984973  1.0000
  O   O8        1.0  0.8587215764876626  0.3996030036487892  0.4989208703400072  1.0000
