data_image0
_chemical_formula_structural       NC8NH4C7NH5C6SCH7Zn2C4O8
_chemical_formula_sum              "N3 C26 H16 S1 Zn2 O8"
_cell_length_a       11.048855714531884
_cell_length_b       9.275154477615127
_cell_length_c       9.275274088470228
_cell_angle_alpha    86.32665131531041
_cell_angle_beta     89.72578532380932
_cell_angle_gamma    89.43371274831733

_space_group_name_H-M_alt    "P 1"
_space_group_IT_number       1

loop_
  _space_group_symop_operation_xyz
  'x, y, z'

loop_
  _atom_site_type_symbol
  _atom_site_label
  _atom_site_symmetry_multiplicity
  _atom_site_fract_x
  _atom_site_fract_y
  _atom_site_fract_z
  _atom_site_occupancy
  N   N1        1.0  0.1330755950343035  0.5628559001749945  0.4165710689837414  1.0000
  C   C1        1.0  0.07939399022388761  0.5041112109108068  0.33136694085536544  1.0000
  C   C2        1.0  0.012415910686180084  0.43081458397457717  0.2250562389150379  1.0000
  C   C3        1.0  0.884699156466759  0.4308143943984232  0.22505633986633433  1.0000
  C   C4        1.0  0.8229521650481748  0.3583574102615319  0.11996375974147445  1.0000
  C   C5        1.0  0.8873931080022555  0.28647356056709405  0.015702381554331343  1.0000
  C   C6        1.0  0.013799321244286405  0.2864734506767148  0.015702403778154794  1.0000
  C   C7        1.0  0.0762097031601554  0.35835750841740915  0.11996373241996049  1.0000
  C   C8        1.0  0.8156505685766626  0.504111285706458  0.3313669280220386  1.0000
  N   N2        1.0  0.7603094807008017  0.562855943112333  0.416571097939761  1.0000
  H   H1        1.0  0.7249027421551794  0.35745007446497956  0.11864710624326635  1.0000
  H   H2        1.0  0.8392827491981114  0.23071877405034732  0.934835444971044  1.0000
  H   H3        1.0  0.06348478951820402  0.23071888344850075  0.9348354447962484  1.0000
  H   H4        1.0  0.17428475319832382  0.3574500280382895  0.11864738112481098  1.0000
  C   C9        1.0  0.4502074922857121  0.13945077644198856  0.41490338093227574  1.0000
  C   C10       1.0  0.41750660896082226  0.22142356463065063  0.2878355310069285  1.0000
  C   C11       1.0  0.37493370316050156  0.15424274224226275  0.16749865405741016  1.0000
  C   C12       1.0  0.3643583883931401  0.004172662345081292  0.1728123993661166  1.0000
  C   C13       1.0  0.3981928699288065  0.9209647025880292  0.29698383892126623  1.0000
  C   C14       1.0  0.4431892464947552  0.9862500767327458  0.41825124302696026  1.0000
  C   C15       1.0  0.3406288982365176  0.23978280370363025  0.038899305138517366  1.0000
  N   N3        1.0  0.31305736181594934  0.30854141979255556  0.935538369034755  1.0000
  H   H5        1.0  0.47222625160805515  0.2194801440626113  0.7686583216653593  1.0000
  H   H6        1.0  0.42246688205636423  0.3383423703378108  0.2835593993905354  1.0000
  H   H7        1.0  0.3309935399663022  0.9511680824310286  0.08032595164760647  1.0000
  H   H8        1.0  0.3918380151838162  0.8044959023750102  0.2968570078290569  1.0000
  H   H9        1.0  0.46315583835433577  0.6897299947305572  0.6552771159759172  1.0000
  C   C16       1.0  0.4484312547234844  0.5588327279232403  0.9933644923465543  1.0000
  C   C17       1.0  0.5510786253746787  0.6095840952319758  0.06291348537485875  1.0000
  C   C18       1.0  0.6469086090343139  0.6718225262284003  0.9830954831843419  1.0000
  C   C19       1.0  0.6416974375634488  0.6834478705364382  0.8325813178073203  1.0000
  C   C20       1.0  0.5416454001677408  0.6316051012536226  0.761525097988557  1.0000
  C   C21       1.0  0.4449654828042134  0.5668681283674721  0.8397900841038513  1.0000
  S   S1        1.0  0.7763539096507939  0.7371946904615239  0.07404228928462464  1.0000
  C   C22       1.0  0.7126488304820535  0.9176654741606158  0.08648794306617802  1.0000
  H   H10       1.0  0.15584149407166464  0.4995067898349081  0.10183464770896156  1.0000
  H   H11       1.0  0.7156664129717725  0.7317573557352615  0.7702744391079666  1.0000
  H   H12       1.0  0.5412278559697891  0.639075249225775  0.6444951677403123  1.0000
  H   H13       1.0  0.24946822732728083  0.5210431937264031  0.5626941071602523  1.0000
  H   H14       1.0  0.6949302130751609  0.9680525494034169  0.9767250563781079  1.0000
  H   H15       1.0  0.6271288591486909  0.9122493357658011  0.14983209445541923  1.0000
  H   H16       1.0  0.7782100121921358  0.9849396355810645  0.14175323409515905  1.0000
  Zn  Zn1       1.0  0.31408175779985426  0.5628521234826094  0.4165793815658696  1.0000
  Zn  Zn2       1.0  0.5793033947817601  0.5628480058673524  0.41657453320163085  1.0000
  C   C23       1.0  0.4456654876543709  0.5596052978578656  0.6797748170859788  1.0000
  C   C24       1.0  0.44772254548229795  0.5660966520258743  0.1533792462730197  1.0000
  C   C25       1.0  0.44453312481462515  0.826132444128058  0.41187539755465696  1.0000
  C   C26       1.0  0.44885483186297465  0.2995677742000846  0.42127873579291486  1.0000
  O   O1        1.0  0.54813497734068  0.5685266384520276  0.2070797946461418  1.0000
  O   O2        1.0  0.546550152167952  0.5571710946064765  0.6260701697518108  1.0000
  O   O3        1.0  0.5456343919049975  0.772395150162672  0.4097394989993075  1.0000
  O   O4        1.0  0.5490506474584285  0.35330259218563764  0.4234103573824384  1.0000
  O   O5        1.0  0.3443344146160754  0.7723975371672269  0.4097435573791419  1.0000
  O   O6        1.0  0.34525016083098903  0.5571752131695316  0.6260741581371518  1.0000
  O   O7        1.0  0.34683499359542846  0.5685306903215783  0.20708205011492065  1.0000
  O   O8        1.0  0.3477506633512726  0.3533066347682856  0.42341272086150483  1.0000
