data_image0
_chemical_formula_structural       NC9NC5H8C8H10C6SCH8Zn2C4O8
_chemical_formula_sum              "N2 C33 H26 S1 Zn2 O8"
_cell_length_a       17.807436237873137
_cell_length_b       9.275653711864159
_cell_length_c       10.302812801239593
_cell_angle_alpha    85.74330636578323
_cell_angle_beta     89.39214003622364
_cell_angle_gamma    87.8440138982238

_space_group_name_H-M_alt    "P 1"
_space_group_IT_number       1

loop_
  _space_group_symop_operation_xyz
  'x, y, z'

loop_
  _atom_site_type_symbol
  _atom_site_label
  _atom_site_symmetry_multiplicity
  _atom_site_fract_x
  _atom_site_fract_y
  _atom_site_fract_z
  _atom_site_occupancy
  N   N1        1.0  0.6997372598915629  0.5410734023261214  0.5621267810943205  1.0000
  C   C1        1.0  0.6393443522706302  0.5019962842642851  0.5509911222115929  1.0000
  C   C2        1.0  0.5642222128899032  0.4533886527928364  0.5371395718366763  1.0000
  C   C3        1.0  0.5465258239305736  0.37408499402566475  0.4319359443268833  1.0000
  C   C4        1.0  0.47358671337549263  0.32676691670945  0.4184040160154072  1.0000
  C   C5        1.0  0.4172973612083087  0.3583332623812798  0.5100420377689927  1.0000
  C   C6        1.0  0.3397812535377483  0.308173943855111  0.4957435269370812  1.0000
  C   C7        1.0  0.2771527356730535  0.3989616720105722  0.521941944553524  1.0000
  C   C8        1.0  0.20407244314104434  0.35141812653674465  0.50842302832883  1.0000
  C   C9        1.0  0.1403789509233033  0.4451945224541496  0.5349940456704194  1.0000
  N   N2        1.0  0.08918240378479891  0.5205842569385202  0.5563563982264554  1.0000
  C   C10       1.0  0.19303855038319176  0.2128003736417123  0.46867950810227943  1.0000
  C   C11       1.0  0.2548097750405935  0.12199726296179801  0.4424726580750611  1.0000
  C   C12       1.0  0.32777281770088096  0.16910268320646904  0.45578780791165824  1.0000
  C   C13       1.0  0.4356824204371349  0.43818589947936  0.6154664444901103  1.0000
  C   C14       1.0  0.508675455399745  0.4852925503119991  0.6288421476487633  1.0000
  H   H1        1.0  0.5890451451847618  0.34911629667058786  0.3601721243050586  1.0000
  H   H2        1.0  0.4609711030623036  0.2671548602354652  0.3353338841401881  1.0000
  H   H3        1.0  0.2851111562019977  0.5071934479454365  0.5511289801671146  1.0000
  H   H4        1.0  0.1367617675180472  0.1750043857077046  0.4579765307616219  1.0000
  H   H5        1.0  0.24614847509830604  0.014676192588758397  0.41208827347882765  1.0000
  H   H6        1.0  0.3747772640743777  0.09609483168093091  0.4365301636477897  1.0000
  H   H7        1.0  0.3938829598522665  0.462555988821044  0.6885225911062447  1.0000
  H   H8        1.0  0.5218126655251338  0.5462600397151272  0.7108749762266051  1.0000
  C   C15       1.0  0.8965724929820048  0.10732856107037869  0.5579987785353226  1.0000
  C   C16       1.0  0.8789365026212156  0.1916623730176574  0.4424725736694608  1.0000
  C   C17       1.0  0.8545249984731373  0.1277196909933005  0.3320712567557967  1.0000
  C   C18       1.0  0.8488672875472991  0.977423629953474  0.3363033944165996  1.0000
  C   C19       1.0  0.8673142173549232  0.8918596884434216  0.4493155884808515  1.0000
  C   C20       1.0  0.8923543952977823  0.9543176230055078  0.5604955060879422  1.0000
  C   C21       1.0  0.8369242816612228  0.2194338282864481  0.20863087360636975  1.0000
  C   C22       1.0  0.9072181283960875  0.2375745495657935  0.12404325540381313  1.0000
  H   H9        1.0  0.9647864382321987  0.36828362537944703  0.7369354317606964  1.0000
  H   H10       1.0  0.8825345744606032  0.3082917615239116  0.43892155976259284  1.0000
  H   H11       1.0  0.8308727472370319  0.9261295100523534  0.25141209887512117  1.0000
  H   H12       1.0  0.8638391912241024  0.7755713951175712  0.44857459487563833  1.0000
  H   H13       1.0  0.8994255684020173  0.6548383732853785  0.7744816491616133  1.0000
  H   H14       1.0  0.7931159236615668  0.16885824594997612  0.15282558135114033  1.0000
  H   H15       1.0  0.8141185956503157  0.3277970530942014  0.23198013775616033  1.0000
  H   H16       1.0  0.9510101046901669  0.2914670636959007  0.17699412636788384  1.0000
  H   H17       1.0  0.9297738928237244  0.13048137051914965  0.09699446458321681  1.0000
  H   H18       1.0  0.8930457119616979  0.305379224030462  0.03364028738478542  1.0000
  C   C23       1.0  0.8944634703120973  0.5308231165819846  0.1779986945693468  1.0000
  C   C24       1.0  0.86840449033949  0.6759742303836493  0.167600859408914  1.0000
  C   C25       1.0  0.8552456903366987  0.7479943257653454  0.045453883170870846  1.0000
  C   C26       1.0  0.8684044233471752  0.6759740825600886  0.9324496902771915  1.0000
  C   C27       1.0  0.8944634216179274  0.5308231094275886  0.9404955988924467  1.0000
  C   C28       1.0  0.9073424819508933  0.45894549314990124  0.06381423910060047  1.0000
  S   S1        1.0  0.8221052924017987  0.9335449971304048  0.03366199379715829  1.0000
  C   C29       1.0  0.7235099370943383  0.888358510215433  0.03849018843456497  1.0000
  H   H19       1.0  0.9042560082350163  0.4761056783799755  0.5092318593036025  1.0000
  H   H20       1.0  0.8580528353319192  0.7336287171275351  0.25403746641652436  1.0000
  H   H21       1.0  0.8580526859164348  0.7336285172990333  0.8386871550512344  1.0000
  H   H22       1.0  0.9274293490606103  0.3469751617189347  0.07092830505592107  1.0000
  H   H23       1.0  0.9042546127553318  0.47610500326841937  0.6162162923142951  1.0000
  H   H24       1.0  0.7105041658178708  0.8249032295036649  0.9548521847904836  1.0000
  H   H25       1.0  0.71050448040667  0.8249046700441249  0.13108687635155514  1.0000
  H   H26       1.0  0.6882348237349133  0.9897301388221291  0.03236243312673004  1.0000
  Zn  Zn1       1.0  0.8121227339116016  0.5351568294484847  0.5604690703224253  1.0000
  Zn  Zn2       1.0  0.9767969701113377  0.5264890741497343  0.5580247475847904  1.0000
  C   C30       1.0  0.8944903681572137  0.5250779597978885  0.7963504593387519  1.0000
  C   C31       1.0  0.8944311250412497  0.5365696687924084  0.322143464666669  1.0000
  C   C32       1.0  0.8931478438963337  0.794218892546928  0.5548501123742493  1.0000
  C   C33       1.0  0.8957736017392118  0.26742700632632865  0.5636438765744338  1.0000
  O   O1        1.0  0.9569133154367556  0.5352026045901799  0.36959214000329577  1.0000
  O   O2        1.0  0.9569921181530042  0.5198653103306574  0.7470462226670076  1.0000
  O   O3        1.0  0.9559071703980015  0.7372000616193897  0.5520330007632519  1.0000
  O   O4        1.0  0.9579982069482248  0.3178678665757133  0.5646052654276317  1.0000
  O   O5        1.0  0.8309214408794721  0.7437780399819554  0.5538885533068869  1.0000
  O   O6        1.0  0.8320063800021498  0.5264450213697129  0.7489017110946838  1.0000
  O   O7        1.0  0.8319275775862495  0.541782265371082  0.3714460673745643  1.0000
  O   O8        1.0  0.8330124691460096  0.3244475170417995  0.5664592901056233  1.0000
