data_image0
_chemical_formula_structural       NC5NC4H6C9H8C7ONH5Zn2C4O8
_chemical_formula_sum              "N3 C29 H19 O9 Zn2"
_cell_length_a       13.854160002989762
_cell_length_b       9.275152443626249
_cell_length_c       9.273042158839658
_cell_angle_alpha    85.96394158152518
_cell_angle_beta     90.09323775389821
_cell_angle_gamma    90.57354205828562

_space_group_name_H-M_alt    "P 1"
_space_group_IT_number       1

loop_
  _space_group_symop_operation_xyz
  'x, y, z'

loop_
  _atom_site_type_symbol
  _atom_site_label
  _atom_site_symmetry_multiplicity
  _atom_site_fract_x
  _atom_site_fract_y
  _atom_site_fract_z
  _atom_site_occupancy
  N   N1        1.0  0.9176390048167238  0.5619895533687148  0.40473416571632814  1.0000
  C   C1        1.0  0.8454067588441887  0.586585782901277  0.34561143374536085  1.0000
  C   C2        1.0  0.7555488285824573  0.6171841526234164  0.2720604923531127  1.0000
  C   C3        1.0  0.6678632633642768  0.5884490415770743  0.3438725155574933  1.0000
  C   C4        1.0  0.5804064162803353  0.6171841667122935  0.2720604691352888  1.0000
  C   C5        1.0  0.49029861659909435  0.5865856365113131  0.34561152585837407  1.0000
  N   N2        1.0  0.4178654337934051  0.561989489855645  0.4047341658483703  1.0000
  C   C6        1.0  0.5806718532626284  0.6752611379369904  0.1284533024711545  1.0000
  C   C7        1.0  0.6683389703806254  0.7061457998548519  0.056530453121437015  1.0000
  C   C8        1.0  0.668560052884796  0.764342997365526  0.9014354981522282  1.0000
  C   C9        1.0  0.7557489421847338  0.6752611356608005  0.12845321221352757  1.0000
  H   H1        1.0  0.6676823795211737  0.5433872749922293  0.45502220874226307  1.0000
  H   H2        1.0  0.5128803118333211  0.6964668898469681  0.07273857510933679  1.0000
  H   H3        1.0  0.7338433755611294  0.8322695145339404  0.8774183393760234  1.0000
  H   H4        1.0  0.6041348979904996  0.8322695170965305  0.8774184044428339  1.0000
  H   H5        1.0  0.66787066198126  0.673043535035206  0.8302058113255715  1.0000
  H   H6        1.0  0.823703271569835  0.6964670014580492  0.07273848931076654  1.0000
  C   C10       1.0  0.16491117332277103  0.13837272457482275  0.40620567114373185  1.0000
  C   C11       1.0  0.12994913188378687  0.219822315885716  0.28375753458628705  1.0000
  C   C12       1.0  0.10395665328983772  0.15306701158591055  0.15901686412693028  1.0000
  C   C13       1.0  0.1125174918709268  0.003674906604506317  0.15425450177276123  1.0000
  C   C14       1.0  0.14559084308185352  0.920526268137802  0.27566779282577203  1.0000
  C   C15       1.0  0.17060245587031203  0.9855953737614086  0.4032751623540165  1.0000
  C   C16       1.0  0.08621665387106181  0.9351647109369802  0.025077692418855605  1.0000
  C   C17       1.0  0.06419583640411508  0.8777699948697962  0.9169123680726301  1.0000
  C   C18       1.0  0.037477924349059256  0.8081196573629741  0.7856727170376985  1.0000
  H   H7        1.0  0.3039404022353305  0.22305624129479942  0.6940562709136612  1.0000
  H   H8        1.0  0.1248640832047545  0.3363350269463448  0.2833041599576651  1.0000
  H   H9        1.0  0.07804148667889854  0.21832349500342543  0.06566896658421073  1.0000
  H   H10       1.0  0.14965010691511615  0.8041738845393055  0.27164701322243645  1.0000
  H   H11       1.0  0.26111602998879047  0.6923698081897883  0.6001553079302466  1.0000
  H   H12       1.0  0.05513895494938792  0.691539661379331  0.7991378505954119  1.0000
  H   H13       1.0  0.9588939872168126  0.8204943888011259  0.7659409999904369  1.0000
  H   H14       1.0  0.07813186899012912  0.8594854546485045  0.6923774543437524  1.0000
  C   C19       1.0  0.16726530570302245  0.5575257223693454  0.981490950663563  1.0000
  C   C20       1.0  0.07867308968674536  0.5667117451529208  0.054139979309674846  1.0000
  C   C21       1.0  0.9919176368729318  0.58985111653863  0.9778037754886952  1.0000
  C   C22       1.0  0.9942778204694214  0.6020620663728966  0.8262628385424486  1.0000
  C   C23       1.0  0.08127566177837939  0.5907580831479549  0.7526117050092023  1.0000
  C   C24       1.0  0.16824834479031553  0.5664423041519586  0.8279899476772387  1.0000
  C   C25       1.0  0.8997489243622313  0.5998096893266658  0.057629344698860274  1.0000
  O   O1        1.0  0.8929254927044917  0.5439858280011611  0.18519305639413133  1.0000
  N   N3        1.0  0.8181373613550159  0.6729941103773333  0.9938397387562672  1.0000
  H   H15       1.0  0.4018188944602883  0.6126268849787588  0.08126042954696833  1.0000
  H   H16       1.0  0.9287354484766152  0.6163250325942997  0.7635903674971157  1.0000
  H   H17       1.0  0.32629990890998783  0.596862555158265  0.5449629518359697  1.0000
  H   H18       1.0  0.8232042298001826  0.7352873306891423  0.8959584435122735  1.0000
  H   H19       1.0  0.7528970179564118  0.6728317516082054  0.05008275799657415  1.0000
  Zn  Zn1       1.0  0.06199353601867318  0.5619857606581988  0.40474251130691496  1.0000
  Zn  Zn2       1.0  0.2735108382139504  0.561981602625534  0.40473769813295  1.0000
  C   C26       1.0  0.16802174646746537  0.5590100924428587  0.6680033657322677  1.0000
  C   C27       1.0  0.16748494991874804  0.5649590924309691  0.1414769788236665  1.0000
  C   C28       1.0  0.16951503812205332  0.8253917316891004  0.39808562970694417  1.0000
  C   C29       1.0  0.16599157453475488  0.2985757208431221  0.4113947976876314  1.0000
  O   O2        1.0  0.24782833609916843  0.5674459279860016  0.19516794655849212  1.0000
  O   O3        1.0  0.24821509068379766  0.5565190084110048  0.6143083337734898  1.0000
  O   O4        1.0  0.2494198622463499  0.7716255667655714  0.39634784705670617  1.0000
  O   O5        1.0  0.24662349230391445  0.35233937881390665  0.4131283251732188  1.0000
  O   O6        1.0  0.08888080974823676  0.7716279844727367  0.3963518842607019  1.0000
  O   O7        1.0  0.08767604973461673  0.5565231584626842  0.6143122881329002  1.0000
  O   O8        1.0  0.08728929286417575  0.5674500095150596  0.1951701682236573  1.0000
  O   O9        1.0  0.08608444912115072  0.35234345116340204  0.41313065493449685  1.0000
