data_image0
_chemical_formula_structural       NC12NC2H8C13OH12C16H8Zn2C4O8
_chemical_formula_sum              "N2 C47 H28 O9 Zn2"
_cell_length_a       17.80743265337812
_cell_length_b       10.29915010939255
_cell_length_c       10.299151387937775
_cell_angle_alpha    85.56522917257966
_cell_angle_beta     91.52310795489359
_cell_angle_gamma    89.41750150667457

_space_group_name_H-M_alt    "P 1"
_space_group_IT_number       1

loop_
  _space_group_symop_operation_xyz
  'x, y, z'

loop_
  _atom_site_type_symbol
  _atom_site_label
  _atom_site_symmetry_multiplicity
  _atom_site_fract_x
  _atom_site_fract_y
  _atom_site_fract_z
  _atom_site_occupancy
  N   N1        1.0  0.7073103195303231  0.40614208648430483  0.600863418999392  1.0000
  C   C1        1.0  0.6564923640729099  0.43567092727055123  0.5321554667549442  1.0000
  C   C2        1.0  0.5932698121733123  0.47240266350939075  0.446691422774776  1.0000
  C   C3        1.0  0.6050000013648205  0.5263680903785368  0.3200548476076271  1.0000
  C   C4        1.0  0.543684826459947  0.5615972413322006  0.2369872719646613  1.0000
  C   C5        1.0  0.4704851809303896  0.5431241403839584  0.27989628796798627  1.0000
  C   C6        1.0  0.4577781904587673  0.4890401217641332  0.4070010397007324  1.0000
  C   C7        1.0  0.519950682619042  0.4538142171818088  0.49005210278053957  1.0000
  C   C8        1.0  0.3800102396271269  0.46945415134000323  0.45277069215571264  1.0000
  C   C9        1.0  0.3612059256669152  0.4967029886129224  0.5798036550896044  1.0000
  C   C10       1.0  0.2879763220993869  0.47827148372092615  0.6227532189532583  1.0000
  C   C11       1.0  0.2326080235001145  0.43233724527861433  0.5395078636633523  1.0000
  C   C12       1.0  0.1572417728292595  0.413353531748744  0.5838585251654145  1.0000
  N   N2        1.0  0.09665264442305471  0.39809190278333495  0.6195134059939742  1.0000
  C   C13       1.0  0.2507208196480926  0.40491973853999097  0.41301792050935027  1.0000
  C   C14       1.0  0.32389759190122847  0.42336590883393677  0.3698124684359656  1.0000
  H   H1        1.0  0.6614664520746717  0.5411767850939604  0.28561323790523835  1.0000
  H   H2        1.0  0.5528851001056747  0.6036515092661704  0.13919509734973357  1.0000
  H   H3        1.0  0.423847040410344  0.5727310702898931  0.21429620719943723  1.0000
  H   H4        1.0  0.5114490699502964  0.4103744639439329  0.5877203152719481  1.0000
  H   H5        1.0  0.4028684333835884  0.5339165213084007  0.6453628327478977  1.0000
  H   H6        1.0  0.2745186297544284  0.5001653829463502  0.7207530048417197  1.0000
  H   H7        1.0  0.2083411477180089  0.36897379144450915  0.34787125047569917  1.0000
  H   H8        1.0  0.33682715226580096  0.39993647576464153  0.2721165471623586  1.0000
  C   C15       1.0  0.9020558682151005  0.020715885331390013  0.6103360821517945  1.0000
  C   C16       1.0  0.9006564079962603  0.008999555054449269  0.7470799840475163  1.0000
  C   C17       1.0  0.8998815140739573  0.8859257643254451  0.8161452202430721  1.0000
  C   C18       1.0  0.9005116048604966  0.773747047807782  0.7467096522704337  1.0000
  C   C19       1.0  0.9019142877616535  0.7835079424704127  0.6100523038477569  1.0000
  C   C20       1.0  0.902680288493838  0.9074532471559178  0.5426642327246716  1.0000
  C   C21       1.0  0.8983945038961334  0.8745130621514504  0.9607143280373627  1.0000
  C   C22       1.0  0.8521914653660619  0.7826174212736556  0.02652266393413128  1.0000
  C   C23       1.0  0.8507673007092365  0.7719600038596862  0.16256085764633643  1.0000
  C   C24       1.0  0.8960131742778971  0.8520309929702156  0.23527358680735921  1.0000
  C   C25       1.0  0.9414973911608908  0.944895407721919  0.1700733911092832  1.0000
  C   C26       1.0  0.9429389946885784  0.9557282614717064  0.03403574402529053  1.0000
  C   C27       1.0  0.8929031936682749  0.8429657506532738  0.38121110891594945  1.0000
  O   O1        1.0  0.8367480862771841  0.9273195685210279  0.4187619328201886  1.0000
  H   H9        1.0  0.9042093361178489  0.2501339353994954  0.3522021798017574  1.0000
  H   H10       1.0  0.8991243556742533  0.09582610836220051  0.8000152552420534  1.0000
  H   H11       1.0  0.9009341961058142  0.6786371364314413  0.7995634902129414  1.0000
  H   H12       1.0  0.9037600939839002  0.9156983697999707  0.43725622894600935  1.0000
  H   H13       1.0  0.9024032436496837  0.45978790239356815  0.557486672678134  1.0000
  H   H14       1.0  0.8162695429608482  0.7203305533860327  0.9726931894539416  1.0000
  H   H15       1.0  0.8142164079398827  0.7014063842314162  0.21118566631568436  1.0000
  H   H16       1.0  0.9760354121933588  0.008764159938280162  0.22458278201502394  1.0000
  H   H17       1.0  0.9795149664457585  0.026727120061799788  0.9862187811612748  1.0000
  H   H18       1.0  0.9481591254842342  0.8696686036269322  0.4240279986737199  1.0000
  H   H19       1.0  0.8806901016311866  0.7412121842381967  0.4184387274171271  1.0000
  H   H20       1.0  0.8370152946675437  0.9176756653224077  0.5154015605135438  1.0000
  C   C28       1.0  0.9020286486963714  0.40194227487501966  0.22882535180898644  1.0000
  C   C29       1.0  0.8295329077942684  0.45739854115394096  0.2204246600660824  1.0000
  C   C30       1.0  0.7927312287527091  0.48569089618565053  0.09900716953077304  1.0000
  C   C31       1.0  0.8294021481986356  0.45777886891101716  0.9851059251727246  1.0000
  C   C32       1.0  0.9019414959699138  0.4022815534702735  0.9915630311570021  1.0000
  C   C33       1.0  0.9378089134837978  0.37470684049082265  0.11382786170602355  1.0000
  C   C34       1.0  0.7160395147229766  0.5443572206772191  0.09116566252454383  1.0000
  C   C35       1.0  0.6969389994182681  0.6445723807130699  0.9949096951718409  1.0000
  C   C36       1.0  0.6247443837559291  0.6997501658195802  0.9876569621354947  1.0000
  C   C37       1.0  0.5707031977582091  0.6555408889012799  0.07631279467723995  1.0000
  C   C38       1.0  0.5891227247028997  0.555898192286854  0.1723738462750961  1.0000
  C   C39       1.0  0.6612958033984387  0.5006332527094612  0.1798751444307609  1.0000
  C   C40       1.0  0.4963891841863941  0.7123923491339677  0.06871858251110097  1.0000
  C   C41       1.0  0.43415224644898254  0.7600045892388494  0.062358451885936146  1.0000
  C   C42       1.0  0.3612734395178628  0.8157580941481801  0.05491080357974698  1.0000
  C   C43       1.0  0.2990465593476689  0.8633628777715872  0.04855180719250751  1.0000
  H   H21       1.0  0.9298976526082162  0.380549179660554  0.55953631978376  1.0000
  H   H22       1.0  0.8019250413493617  0.48036552174060243  0.3083979327851003  1.0000
  H   H23       1.0  0.8008920521042237  0.477748893269065  0.8913603265030386  1.0000
  H   H24       1.0  0.9937258331228248  0.33192846176367063  0.11959201466096371  1.0000
  H   H25       1.0  0.7381174539179254  0.6814259532775397  0.9263220861308858  1.0000
  H   H26       1.0  0.6111437549821782  0.7770866887043336  0.9131250589787143  1.0000
  H   H27       1.0  0.6740087587566586  0.42255338665531395  0.2539717863644453  1.0000
  H   H28       1.0  0.24440622086299782  0.9051637458467425  0.04296809074144626  1.0000
  Zn  Zn1       1.0  0.8196661073641658  0.4038155131203201  0.6062528906049811  1.0000
  Zn  Zn2       1.0  0.9842968548514535  0.4004078865082914  0.6141345313787537  1.0000
  C   C44       1.0  0.9019572615434732  0.3970433812021703  0.8473911061496169  1.0000
  C   C45       1.0  0.902007498116058  0.40718162002960523  0.3729965287581045  1.0000
  C   C46       1.0  0.9019377732079439  0.6393218231016663  0.6049305698733929  1.0000
  C   C47       1.0  0.9020269305563405  0.16490161888966504  0.6154571321640576  1.0000
  O   O2        1.0  0.9644769115308682  0.40764114936647916  0.42437273646847223  1.0000
  O   O3        1.0  0.9644387763998923  0.39399656214252143  0.8019965079363791  1.0000
  O   O4        1.0  0.9644221969549613  0.5896394860388494  0.6062078686211034  1.0000
  O   O5        1.0  0.9644934348078777  0.21199823588062783  0.620161275716175  1.0000
  O   O6        1.0  0.8394694712273476  0.5922251649122503  0.6002261435711109  1.0000
  O   O7        1.0  0.839486050387132  0.39658380142063265  0.7960147130602089  1.0000
  O   O8        1.0  0.8395241857548627  0.410228342689144  0.41838938021119443  1.0000
  O   O9        1.0  0.8395407090194001  0.21458541995708202  0.6141780168300222  1.0000
