data_image0
_chemical_formula_structural       NC5N2C2NH4C7NH5C6NH7Zn2C4O8
_chemical_formula_sum              "N6 C24 H16 Zn2 O8"
_cell_length_a       13.87973921873968
_cell_length_b       9.275154477615127
_cell_length_c       9.274774538082513
_cell_angle_alpha    85.29330631285735
_cell_angle_beta     90.34966886769374
_cell_angle_gamma    89.4337086285363

_space_group_name_H-M_alt    "P 1"
_space_group_IT_number       1

loop_
  _space_group_symop_operation_xyz
  'x, y, z'

loop_
  _atom_site_type_symbol
  _atom_site_label
  _atom_site_symmetry_multiplicity
  _atom_site_fract_x
  _atom_site_fract_y
  _atom_site_fract_z
  _atom_site_occupancy
  N   N1        1.0  0.8902548565015244  0.5916841800911266  0.41436762899184476  1.0000
  C   C1        1.0  0.8167495959536771  0.6167065416255433  0.3577602160674527  1.0000
  C   C2        1.0  0.7254586942820053  0.647786766170106  0.28744769103115475  1.0000
  C   C3        1.0  0.6395242433820932  0.6164613661536411  0.36060986915190085  1.0000
  C   C4        1.0  0.5525792937200487  0.6477867012122878  0.2874477307243706  1.0000
  C   C5        1.0  0.46227247474263444  0.6167063978650225  0.357760112145475  1.0000
  N   N2        1.0  0.38955942547098793  0.5916841555706294  0.41436761788785326  1.0000
  N   N3        1.0  0.5532568148716278  0.7076200155892982  0.1487616799543143  1.0000
  C   C6        1.0  0.6375702079576938  0.7388360073670002  0.07964723097492743  1.0000
  C   C7        1.0  0.636535138626376  0.8006749025563769  0.9259579470558728  1.0000
  N   N4        1.0  0.7228597138849888  0.707619968845161  0.14876169053264854  1.0000
  H   H1        1.0  0.6402917931304534  0.5685893044216097  0.4712833608635088  1.0000
  H   H2        1.0  0.700997281377099  0.8687227199612708  0.9038051109375126  1.0000
  H   H3        1.0  0.6368294028089738  0.7113866987463338  0.8532957214888115  1.0000
  H   H4        1.0  0.5709924714746948  0.8687206634918156  0.9038043358331166  1.0000
  C   C8        1.0  0.14269282967978247  0.16830939246092824  0.41269760996814875  1.0000
  C   C9        1.0  0.11572096442484137  0.2525956181012725  0.28545294123715337  1.0000
  C   C10       1.0  0.0809403787410172  0.18760568790538001  0.16494861221466728  1.0000
  C   C11       1.0  0.07256131741957117  0.03743886527211049  0.1702697521513583  1.0000
  C   C12       1.0  0.100414134539623  0.9519702008704243  0.29461398000725825  1.0000
  C   C13       1.0  0.13713079279398643  0.015047741169787129  0.41605013097189714  1.0000
  C   C14       1.0  0.05268038795085883  0.27548706987372795  0.03617031340172794  1.0000
  N   N5        1.0  0.029967182872876915  0.3461275079263486  0.9326655474207324  1.0000
  H   H5        1.0  0.16283926958860606  0.24189819150905698  0.766944813783722  1.0000
  H   H6        1.0  0.11963789727577745  0.369592275909699  0.28117085905541317  1.0000
  H   H7        1.0  0.045316888188377875  0.9861181236609519  0.07765460701889348  1.0000
  H   H8        1.0  0.09535446426170902  0.8355037103090269  0.2944869726314192  1.0000
  H   H9        1.0  0.15477956353925834  0.7142122945876219  0.6534058340190423  1.0000
  C   C15       1.0  0.1381585341358284  0.5953660053735383  0.9905721336337713  1.0000
  C   C16       1.0  0.20586787390698238  0.6804454827926005  0.05764549479944692  1.0000
  C   C17       1.0  0.2779775533211033  0.7536487962638372  0.9771704085447741  1.0000
  C   C18       1.0  0.282963630717459  0.7421046357332339  0.8281472866857746  1.0000
  C   C19       1.0  0.21554253217813812  0.6602011547519153  0.7593839376147002  1.0000
  C   C20       1.0  0.14166507462354636  0.5879910665525603  0.838175560492326  1.0000
  N   N6        1.0  0.3467942579470732  0.8385276968963975  0.04724822069433344  1.0000
  H   H10       1.0  0.9959976396562552  0.3135322560540279  0.11537659214425598  1.0000
  H   H11       1.0  0.20408870130648826  0.6872832356419403  0.1736926967670247  1.0000
  H   H12       1.0  0.3386430779958012  0.7978074747318697  0.7648370578308223  1.0000
  H   H13       1.0  0.21986508634286792  0.6561908005468944  0.6431950098711212  1.0000
  H   H14       1.0  0.04292694811737041  0.4025551830787786  0.5713595885427329  1.0000
  H   H15       1.0  0.3439371146315655  0.847568762785359  0.15865393975103914  1.0000
  H   H16       1.0  0.40109054443762693  0.8930967823527971  0.9882221876649756  1.0000
  Zn  Zn1       1.0  0.03434343045876751  0.591680237036432  0.4143759472514381  1.0000
  Zn  Zn2       1.0  0.24547096366418542  0.5916761856822252  0.4143710835103809  1.0000
  C   C21       1.0  0.1410378474247871  0.583641586797548  0.6779376252049056  1.0000
  C   C22       1.0  0.13877884084095782  0.5997166537493481  0.1508095543550887  1.0000
  C   C23       1.0  0.1381533808182034  0.8550461889759756  0.4096654132181874  1.0000
  C   C24       1.0  0.14166324710098155  0.32831031874109695  0.41908183642777486  1.0000
  O   O1        1.0  0.21910886130514085  0.6011689438269583  0.20458482586862048  1.0000
  O   O2        1.0  0.22094874493067926  0.5821851378167426  0.6241582424763943  1.0000
  O   O3        1.0  0.2186184277947658  0.8013477734193994  0.40752653918691695  1.0000
  O   O4        1.0  0.22143910588211946  0.3820063194806893  0.4212164209915852  1.0000
  O   O5        1.0  0.05837521619332664  0.8013501032409869  0.40753060976430855  1.0000
  O   O6        1.0  0.06070552162829256  0.5821892004711706  0.6241622429618932  1.0000
  O   O7        1.0  0.058865631218596004  0.601172971337872  0.20458709102613604  1.0000
  O   O8        1.0  0.06119587630700196  0.38201033573823273  0.42121879430968834  1.0000
