data_image0
_chemical_formula_structural       NC8NC6H8C6SCOC6H9C6NCOC6H10Zn2C4O8
_chemical_formula_sum              "N3 C44 H27 S1 O10 Zn2"
_cell_length_a       17.457602349358154
_cell_length_b       10.302038109246572
_cell_length_c       10.299662537453274
_cell_angle_alpha    85.5465134691658
_cell_angle_beta     92.86302956752768
_cell_angle_gamma    91.70619204985762

_space_group_name_H-M_alt    "P 1"
_space_group_IT_number       1

loop_
  _space_group_symop_operation_xyz
  'x, y, z'

loop_
  _atom_site_type_symbol
  _atom_site_label
  _atom_site_symmetry_multiplicity
  _atom_site_fract_x
  _atom_site_fract_y
  _atom_site_fract_z
  _atom_site_occupancy
  N   N1        1.0  0.7228920190293239  0.45300826005699657  0.6266915689418874  1.0000
  C   C1        1.0  0.6618068078205641  0.40709783304183733  0.6160695311223565  1.0000
  C   C2        1.0  0.5858142218105091  0.34999097127903056  0.6028652588878053  1.0000
  C   C3        1.0  0.5272828684726234  0.3901151835060388  0.6777689969563159  1.0000
  C   C4        1.0  0.45272868362625024  0.33512585531631944  0.665179455010847  1.0000
  C   C5        1.0  0.390606248734048  0.37749102408492996  0.7445053371214903  1.0000
  C   C6        1.0  0.31607082813339343  0.39597608599632184  0.6887438739433175  1.0000
  C   C7        1.0  0.2575394219599141  0.4359163753172728  0.7637555416427427  1.0000
  C   C8        1.0  0.18156626835976494  0.4550079822356832  0.705778681469083  1.0000
  N   N2        1.0  0.1204967681362811  0.47035125594326344  0.6591654360735371  1.0000
  C   C9        1.0  0.2730512495582257  0.45761449556788886  0.8950372272552667  1.0000
  C   C10       1.0  0.3468019865573375  0.43951818296814005  0.9511863444670325  1.0000
  C   C11       1.0  0.4053217587041765  0.3997577332804871  0.876632426244231  1.0000
  C   C12       1.0  0.4379945674039161  0.23933559427515136  0.5762531517068135  1.0000
  C   C13       1.0  0.4965142002720557  0.19948984591655503  0.5017494580199495  1.0000
  C   C14       1.0  0.5702835646834152  0.25459131619521796  0.5148889695103969  1.0000
  H   H1        1.0  0.5396320028982877  0.4652667563982371  0.7444104496386037  1.0000
  H   H2        1.0  0.3037371085659424  0.3810477508687355  0.5867165274308856  1.0000
  H   H3        1.0  0.2281880104273747  0.48846785118537284  0.9538777329336035  1.0000
  H   H4        1.0  0.3586223435441179  0.4560039531156084  0.05284063857790577  1.0000
  H   H5        1.0  0.46179812998337644  0.3847520812269176  0.9227372242714543  1.0000
  H   H6        1.0  0.38150275155580177  0.19401471046031804  0.5655950766493085  1.0000
  H   H7        1.0  0.48467925433189835  0.12545492357582466  0.4339098256547684  1.0000
  H   H8        1.0  0.61514661123896  0.22286827446938573  0.4565594750655548  1.0000
  C   C15       1.0  0.9216254020277812  0.08039831046548702  0.6428827084396644  1.0000
  C   C16       1.0  0.8560499108458732  0.08233721046400033  0.5580062394159038  1.0000
  C   C17       1.0  0.8237832138921504  0.9663593404569711  0.5153207863848889  1.0000
  C   C18       1.0  0.8562966829072103  0.8472153961104767  0.5579723873117446  1.0000
  C   C19       1.0  0.921770739675845  0.8429515132826149  0.6429861543628698  1.0000
  C   C20       1.0  0.9541369402189672  0.9601833292323024  0.6849188332624306  1.0000
  S   S1        1.0  0.7405468155174693  0.9703018812165357  0.4059120510519074  1.0000
  C   C21       1.0  0.7969717243732094  0.9813121172621887  0.26409648044204315  1.0000
  O   O1        1.0  0.8154768820789648  0.8768688278033664  0.21925717625368368  1.0000
  C   C22       1.0  0.8222831116575489  0.10860675697309242  0.2006652938144151  1.0000
  C   C23       1.0  0.8765396210603618  0.11335044879748747  0.10358868491349346  1.0000
  C   C24       1.0  0.9012052929827521  0.23278551316654128  0.043879271422609716  1.0000
  C   C25       1.0  0.8720296533585411  0.34873547290502044  0.07999819026013055  1.0000
  C   C26       1.0  0.818004059166975  0.3454749408169199  0.17574059604017542  1.0000
  C   C27       1.0  0.7930826220439412  0.22633223865175633  0.23574929725565805  1.0000
  H   H9        1.0  0.04513864704565274  0.2840437989419331  0.8030264096205555  1.0000
  H   H10       1.0  0.8299525199034993  0.17373261207412316  0.5245985356630288  1.0000
  H   H11       1.0  0.8304465229818052  0.758348230248669  0.5240963380078509  1.0000
  H   H12       1.0  0.004691354794782883  0.9577682751474045  0.7503496118532951  1.0000
  H   H13       1.0  0.90027654570484  0.024833008464177464  0.0742293589419265  1.0000
  H   H14       1.0  0.943066264483803  0.23539393609186957  0.9695995321751657  1.0000
  H   H15       1.0  0.8912129286411457  0.44109454023248124  0.03369000916134346  1.0000
  H   H16       1.0  0.7952728626393737  0.4354197953935521  0.20342138516208075  1.0000
  H   H17       1.0  0.7507723892116003  0.22709235125190783  0.3088599899700479  1.0000
  C   C28       1.0  0.9217508970945348  0.4618177039011386  0.26156276686194957  1.0000
  C   C29       1.0  7.409848892824894e-05  0.49760087673271197  0.2641496160755272  1.0000
  C   C30       1.0  0.03975504698595999  0.513753329611996  0.14878757405843768  1.0000
  C   C31       1.0  0.9999397923417821  0.49728501939507264  0.028995313003062233  1.0000
  C   C32       1.0  0.9216452410928582  0.4615320936014953  0.024306060132115656  1.0000
  C   C33       1.0  0.8830582516037399  0.44355871421397136  0.14119958893401252  1.0000
  N   N3        1.0  0.11965271948882529  0.5523155392402059  0.1548337505055486  1.0000
  C   C34       1.0  0.17394352285822937  0.5148431236524189  0.06505009692321705  1.0000
  O   O2        1.0  0.15993172645767828  0.4156973162055173  0.0023423543820251273  1.0000
  C   C35       1.0  0.24761689439693815  0.5883685377393562  0.04872528152731824  1.0000
  C   C36       1.0  0.25689701140953347  0.7168129376755182  0.08585240796791771  1.0000
  C   C37       1.0  0.3265098917142182  0.785389210376514  0.06935522849462727  1.0000
  C   C38       1.0  0.3874007258521637  0.7270327647210377  0.015346251608064026  1.0000
  C   C39       1.0  0.37874342936220873  0.6000615685916328  0.9772641989316327  1.0000
  C   C40       1.0  0.3092612721723529  0.531034075038478  0.9934429207253163  1.0000
  H   H18       1.0  0.7738305570483875  0.3955168231313235  0.4638392380139522  1.0000
  H   H19       1.0  0.03081500714731166  0.5121577619383302  0.35608230312056977  1.0000
  H   H20       1.0  0.029658273150243938  0.5145414019176403  0.9393112477588534  1.0000
  H   H21       1.0  0.8226823131971286  0.41595707897758477  0.1383415033624131  1.0000
  H   H22       1.0  0.14059983233002485  0.6004217574214299  0.23547283630943894  1.0000
  H   H23       1.0  0.21029019106296665  0.765303153073745  0.1258257727204346  1.0000
  H   H24       1.0  0.3331285043315422  0.8841339040376622  0.09802347024147261  1.0000
  H   H25       1.0  0.44120529131723485  0.7803455881508436  0.0026292748869825044  1.0000
  H   H26       1.0  0.42591799073302883  0.5550126106167017  0.9351406331767058  1.0000
  H   H27       1.0  0.30395734316962986  0.43256929388283155  0.9635070434338573  1.0000
  Zn  Zn1       1.0  0.8376321592161337  0.45800958932776087  0.6360703235720311  1.0000
  Zn  Zn2       1.0  0.005756610197817254  0.4653392773096329  0.6497973126033924  1.0000
  C   C41       1.0  0.9216624954349624  0.4564135226026597  0.8801304088757064  1.0000
  C   C42       1.0  0.921728110187287  0.46693706227132825  0.40573750488755245  1.0000
  C   C43       1.0  0.9217400143951965  0.6988144813117123  0.6377910456153341  1.0000
  C   C44       1.0  0.921650533551074  0.2245345410899526  0.6480769324914316  1.0000
  O   O3        1.0  0.9855228145732522  0.4714310796523865  0.45933318405183393  1.0000
  O   O4        1.0  0.9854703590742497  0.45748158944423145  0.8369528227837684  1.0000
  O   O5        1.0  0.985532096341666  0.6532233911776804  0.6412620023177551  1.0000
  O   O6        1.0  0.9854610199516107  0.2756892847423671  0.6550239024596494  1.0000
  O   O7        1.0  0.8579276920897175  0.64765957939518  0.6308437290245956  1.0000
  O   O8        1.0  0.8578659551256576  0.45191933763420666  0.8265344804559234  1.0000
  O   O9        1.0  0.8579184108833992  0.4658687831836289  0.44891328031013533  1.0000
  O   O10       1.0  0.8578566162433602  0.2701269789503332  0.6446040960849704  1.0000
