data_image0
_chemical_formula_structural       NC9NC4H8C6NO2H5C7OCH10Zn2C4O8
_chemical_formula_sum              "N3 C31 H23 O11 Zn2"
_cell_length_a       16.32274767691083
_cell_length_b       9.273392599741051
_cell_length_c       10.300835455316061
_cell_angle_alpha    85.69422618191317
_cell_angle_beta     89.48565492192432
_cell_angle_gamma    88.93063911827517

_space_group_name_H-M_alt    "P 1"
_space_group_IT_number       1

loop_
  _space_group_symop_operation_xyz
  'x, y, z'

loop_
  _atom_site_type_symbol
  _atom_site_label
  _atom_site_symmetry_multiplicity
  _atom_site_fract_x
  _atom_site_fract_y
  _atom_site_fract_z
  _atom_site_occupancy
  N   N1        1.0  0.7619528254528156  0.5679364230937998  0.5602460112858876  1.0000
  C   C1        1.0  0.709926171667992  0.5152372536469709  0.5058540645879337  1.0000
  C   C2        1.0  0.6452561817559895  0.44978447490681045  0.43829883187708374  1.0000
  C   C3        1.0  0.6573336936041789  0.36025675300772825  0.34589100364217273  1.0000
  C   C4        1.0  0.578224166320217  0.31656675060904416  0.30079904833327875  1.0000
  C   C5        1.0  0.5189163713772024  0.38050606342851645  0.36679758008843466  1.0000
  C   C6        1.0  0.4290779340738886  0.3636074784815637  0.3493582892725  1.0000
  C   C7        1.0  0.3730451953098189  0.4381328754386986  0.42627644800673714  1.0000
  C   C8        1.0  0.2884213320126446  0.4236905325895748  0.4113717254521758  1.0000
  C   C9        1.0  0.2319632391069899  0.5005069771546012  0.49065372238336286  1.0000
  N   N2        1.0  0.1865899478614872  0.5622547580659174  0.5543830207232008  1.0000
  C   C10       1.0  0.2587778757547037  0.3346022624451969  0.3194250709878983  1.0000
  C   C11       1.0  0.3134881176011989  0.2601755798917351  0.24260913721382615  1.0000
  C   C12       1.0  0.39795546494109  0.27422891274631667  0.25711223884925394  1.0000
  C   C13       1.0  0.5561239409784332  0.47373663916722575  0.46302476530180053  1.0000
  H   H1        1.0  0.7164452879614306  0.32544364323344777  0.3099556993106163  1.0000
  H   H2        1.0  0.5703578337207088  0.24339585504416547  0.22527406078368098  1.0000
  H   H3        1.0  0.3947498978092685  0.5076812890264086  0.4980564190788593  1.0000
  H   H4        1.0  0.1934558690324625  0.32270476390815794  0.30714689570958176  1.0000
  H   H5        1.0  0.2903836731297925  0.1912574974107777  0.17147997940360238  1.0000
  H   H6        1.0  0.4380857601389128  0.21469235761362349  0.19566483075354402  1.0000
  H   H7        1.0  0.5395955675040455  0.4351692836209023  0.5644342767001305  1.0000
  H   H8        1.0  0.5386583067247772  0.5893090432202087  0.44109760745839344  1.0000
  C   C14       1.0  0.9767729182083824  0.14153327279247585  0.5564634494058882  1.0000
  C   C15       1.0  0.9663155895749787  0.2249847841013148  0.4379934860101636  1.0000
  C   C16       1.0  0.9486281995053973  0.16009214461638344  0.32392734157246594  1.0000
  C   C17       1.0  0.9408127231904514  0.00978100508939805  0.3251507030411127  1.0000
  C   C18       1.0  0.9525479781060504  0.9251437608722386  0.44269755107000824  1.0000
  C   C19       1.0  0.9717777766708432  0.9886466296853045  0.5581766588035333  1.0000
  N   N3        1.0  0.9218496015878087  0.9434868927964297  0.20729471221001017  1.0000
  O   O1        1.0  0.9110760754044138  0.026695335097787872  0.09216510712061132  1.0000
  O   O2        1.0  0.9146342513985516  0.8096502453422442  0.2076016322016132  1.0000
  H   H9        1.0  0.9601486204454001  0.21832971952516234  0.875384733816021  1.0000
  H   H10       1.0  0.9698967942020741  0.341778114375765  0.4341076730487301  1.0000
  H   H11       1.0  0.9402386608835114  0.22809538836006826  0.2347993608979757  1.0000
  H   H12       1.0  0.9485905139544152  0.808594835157876  0.44367648634919443  1.0000
  H   H13       1.0  0.9633764327782272  0.6907374586713313  0.7736775170542407  1.0000
  C   C20       1.0  0.9742013289893514  0.5650173728967409  0.1760044075011089  1.0000
  C   C21       1.0  0.04897229557156879  0.6378042816222873  0.16917889962969967  1.0000
  C   C22       1.0  0.08614723582370654  0.6759980585645357  0.04852753427085931  1.0000
  C   C23       1.0  0.04916686066737031  0.637993331827978  0.9338778003388063  1.0000
  C   C24       1.0  0.974349379679438  0.5651625450472498  0.9386357528730042  1.0000
  C   C25       1.0  0.9372127814680771  0.5294130305732174  0.060127227811388906  1.0000
  C   C26       1.0  0.16731348023431747  0.7500858287707026  0.04258753293313445  1.0000
  O   O3        1.0  0.2305532272504407  0.6439684933100733  0.049018097535336036  1.0000
  C   C27       1.0  0.30711001539553706  0.7121673204261294  0.04355555508739583  1.0000
  H   H14       1.0  0.9460299595046731  0.5356392802679115  0.50611200001577  1.0000
  H   H15       1.0  0.07861092905866228  0.6650624207188078  0.2575618657876244  1.0000
  H   H16       1.0  0.07893893266173402  0.6653825698825628  0.8410843522989272  1.0000
  H   H17       1.0  0.8795501726509558  0.4732656394115391  0.06462894312019185  1.0000
  H   H18       1.0  0.8336751595401573  0.4263295430087586  0.7404521105145356  1.0000
  H   H19       1.0  0.17123436553191063  0.8204312866208825  0.12535268599277272  1.0000
  H   H20       1.0  0.17142408659904107  0.8204507465954971  0.950236061291482  1.0000
  H   H21       1.0  0.35614568309020905  0.6275297241044597  0.0486930446786491  1.0000
  H   H22       1.0  0.3150035599803638  0.7790299962347564  0.12771945155165465  1.0000
  H   H23       1.0  0.3152032715401343  0.7790874835385093  0.9502057948512795  1.0000
  Zn  Zn1       1.0  0.884493956803271  0.5662929475154161  0.5585615699693032  1.0000
  Zn  Zn2       1.0  0.06404889454144191  0.5638863996483614  0.5560780757964747  1.0000
  C   C28       1.0  0.9743534355039862  0.5593890671490491  0.794470482674676  1.0000
  C   C29       1.0  0.9741913658683994  0.5707920736702918  0.32016926710073657  1.0000
  C   C30       1.0  0.9727167410546564  0.8285232717026054  0.5526784573598083  1.0000
  C   C31       1.0  0.9758280092801187  0.30165613702209804  0.5619613589872623  1.0000
  O   O4        1.0  0.042328222372437725  0.5718105510494726  0.3676098251225064  1.0000
  O   O5        1.0  0.042494628468464864  0.5565429874357617  0.7451446340453927  1.0000
  O   O6        1.0  0.04117205870189933  0.7738722738477222  0.5498958786232793  1.0000
  O   O7        1.0  0.04365073078932481  0.3544812757582283  0.5628584840518649  1.0000
  O   O8        1.0  0.9048920592820897  0.7756980722283551  0.5517811625545808  1.0000
  O   O9        1.0  0.906214618812967  0.5583705187338379  0.7470298522457042  1.0000
  O   O10       1.0  0.9060482127647772  0.5736380317866723  0.36949348203775845  1.0000
  O   O11       1.0  0.9073707212580437  0.3563087461975174  0.5647422383005398  1.0000
