data_image0
_chemical_formula_structural       NC5NC3H4C7NH5C6SCH7Zn2C4O8
_chemical_formula_sum              "N3 C26 H16 S1 Zn2 O8"
_cell_length_a       13.859018345313864
_cell_length_b       9.275154477615127
_cell_length_c       9.275274088470228
_cell_angle_alpha    86.32665131531041
_cell_angle_beta     89.72578063474123
_cell_angle_gamma    89.43370600770291

_space_group_name_H-M_alt    "P 1"
_space_group_IT_number       1

loop_
  _space_group_symop_operation_xyz
  'x, y, z'

loop_
  _atom_site_type_symbol
  _atom_site_label
  _atom_site_symmetry_multiplicity
  _atom_site_fract_x
  _atom_site_fract_y
  _atom_site_fract_z
  _atom_site_occupancy
  N   N1        1.0  0.9033243531177941  0.5628557478222624  0.41657096827420736  1.0000
  C   C1        1.0  0.8310644763921512  0.523808040329252  0.4676578775887197  1.0000
  C   C2        1.0  0.7411774254456437  0.47523792278193144  0.5312031975221065  1.0000
  C   C3        1.0  0.6534474886965487  0.5225881020943779  0.46925429369451077  1.0000
  C   C4        1.0  0.565947123309757  0.4752376312025493  0.5312030708455049  1.0000
  C   C5        1.0  0.4758245978315792  0.5238079267408058  0.46765777984941015  1.0000
  N   N2        1.0  0.4033754510102898  0.5628557132753678  0.41657089912748035  1.0000
  C   C6        1.0  0.5663592074972605  0.38052297887799774  0.6551192873260843  1.0000
  C   C7        1.0  0.6539061609156261  0.3333550725652128  0.7168297971355767  1.0000
  C   C8        1.0  0.7412245484296998  0.3805232759146211  0.6551194921117364  1.0000
  H   H1        1.0  0.6532697307672438  0.5958998267239635  0.3733398092248923  1.0000
  H   H2        1.0  0.4991540777924303  0.3432535397355978  0.7038788746898004  1.0000
  H   H3        1.0  0.6540834945519506  0.26019218581615555  0.8125497493793805  1.0000
  H   H4        1.0  0.8086103345591211  0.3432540736253935  0.70387930200972  1.0000
  C   C9        1.0  0.15615211429552422  0.13945058144787284  0.41490325203556133  1.0000
  C   C10       1.0  0.13008191703305294  0.22142337403347745  0.2878354050167198  1.0000
  C   C11       1.0  0.09614142554161328  0.1542425573694195  0.16749853185114816  1.0000
  C   C12       1.0  0.08771044404919578  0.004172478894189484  0.17281227809980537  1.0000
  C   C13       1.0  0.11468438231088517  0.9209645145877714  0.29698371464769346  1.0000
  C   C14       1.0  0.1505569427404032  0.9862498826822997  0.4182511147540387  1.0000
  C   C15       1.0  0.0687925303287995  0.23978262344339288  0.03889918598132014  1.0000
  N   N3        1.0  0.04681161360027406  0.3085412432395721  0.9355382523281596  1.0000
  H   H5        1.0  0.17370617830368038  0.21947994610786473  0.7686581908115834  1.0000
  H   H6        1.0  0.1340364064819075  0.3383421790736818  0.28355927295945027  1.0000
  H   H7        1.0  0.06111091242559419  0.9511679034663565  0.08032583334681509  1.0000
  H   H8        1.0  0.10961808746097933  0.8044957152292227  0.2968568841203132  1.0000
  H   H9        1.0  0.16647495276071098  0.6897297979954136  0.6552769859283338  1.0000
  C   C16       1.0  0.15473604051023182  0.5588325331679564  0.9933643636077144  1.0000
  C   C17       1.0  0.23656982997590736  0.6095838866747822  0.06291334751256006  1.0000
  C   C18       1.0  0.31296857898965547  0.6718223047859588  0.983095336804524  1.0000
  C   C19       1.0  0.308814065276241  0.6834476497946875  0.8325811718906804  1.0000
  C   C20       1.0  0.22904935906009566  0.6316048939648153  0.7615249609646972  1.0000
  C   C21       1.0  0.1519730155269472  0.5668679340781939  0.839789955673055  1.0000
  S   S1        1.0  0.4161665412050361  0.737194451613937  0.07404213139950568  1.0000
  C   C22       1.0  0.3653788005788883  0.9176652438787795  0.08648779084326663  1.0000
  H   H10       1.0  0.921474060967116  0.4995066344210853  0.10183454497595856  1.0000
  H   H11       1.0  0.36778451451576166  0.7317571250476825  0.7702742866168468  1.0000
  H   H12       1.0  0.2287164793791936  0.6390750419931104  0.6444950307535656  1.0000
  H   H13       1.0  0.9961163078068791  0.5210430257235801  0.5626939961055579  1.0000
  H   H14       1.0  0.3512529481844252  0.9680523215040161  0.9767249057300544  1.0000
  H   H15       1.0  0.2971995254079116  0.9122491169829344  0.14983194983365689  1.0000
  H   H16       1.0  0.4176462859235934  0.9849393964839069  0.14175307604506718  1.0000
  Zn  Zn1       1.0  0.04762829506755906  0.5628519467918864  0.4165792647682239  1.0000
  Zn  Zn2       1.0  0.25907152507752884  0.5628477935150712  0.41657439283067044  1.0000
  C   C23       1.0  0.1525310819359489  0.5596051034744652  0.679774688592965  1.0000
  C   C24       1.0  0.1541710346803924  0.566096457365883  0.15337911759717127  1.0000
  C   C25       1.0  0.1516283258143003  0.8261322498969149  0.4118752691622898  1.0000
  C   C26       1.0  0.1550737298464086  0.29956757938784645  0.42127860701642694  1.0000
  O   O1        1.0  0.23422305896806647  0.5685264302906349  0.20707965704547915  1.0000
  O   O2        1.0  0.23295958530379082  0.5571708866581788  0.6260700322920104  1.0000
  O   O3        1.0  0.23222951173167528  0.772394942337507  0.4097393616209009  1.0000
  O   O4        1.0  0.23495306067352195  0.35330238390112406  0.4234102197003897  1.0000
  O   O5        1.0  0.07174668731638342  0.772397356408748  0.4097434378925926  1.0000
  O   O6        1.0  0.07247674968894914  0.5571750322879214  0.6260740385692101  1.0000
  O   O7        1.0  0.07374022940558156  0.5685305092268731  0.20708193040611622  1.0000
  O   O8        1.0  0.0744702308225147  0.35330645355045937  0.423412601071314  1.0000
