data_image0
_chemical_formula_structural       NC8NC6H8C6ClH3C7OH4Zn2C4O8
_chemical_formula_sum              "N2 C31 H15 Cl1 O9 Zn2"
_cell_length_a       17.457602349358154
_cell_length_b       10.30297070629231
_cell_length_c       9.274081674992354
_cell_angle_alpha    86.07103647319707
_cell_angle_beta     92.53340075860572
_cell_angle_gamma    91.68807172504815

_space_group_name_H-M_alt    "P 1"
_space_group_IT_number       1

loop_
  _space_group_symop_operation_xyz
  'x, y, z'

loop_
  _atom_site_type_symbol
  _atom_site_label
  _atom_site_symmetry_multiplicity
  _atom_site_fract_x
  _atom_site_fract_y
  _atom_site_fract_z
  _atom_site_occupancy
  N   N1        1.0  0.7270868406491009  0.44031379759124323  0.4760217676513386  1.0000
  C   C1        1.0  0.6660449380237431  0.39431037188804363  0.46424295119937403  1.0000
  C   C2        1.0  0.5901061957380583  0.3370879065333214  0.44960069093904337  1.0000
  C   C3        1.0  0.5313233547081706  0.3778936694650369  0.5327043855662215  1.0000
  C   C4        1.0  0.4568206097247356  0.32279416878022404  0.5187438831145472  1.0000
  C   C5        1.0  0.3944318641958455  0.36588113704631037  0.6067538475562448  1.0000
  C   C6        1.0  0.32007446989322913  0.3838544342363419  0.5448807208603275  1.0000
  C   C7        1.0  0.2612912596072576  0.4244772782625015  0.6281041968927306  1.0000
  C   C8        1.0  0.18550322957619592  0.44303679970998666  0.563772876695537  1.0000
  N   N2        1.0  0.1245825694257243  0.45795227865183263  0.5120506628538157  1.0000
  C   C9        1.0  0.2763715549463268  0.4473743479707841  0.7737650319438601  1.0000
  C   C10       1.0  0.3499429296843718  0.42979331092404327  0.8360682231827588  1.0000
  C   C11       1.0  0.40871298148483515  0.38935447753775  0.7533526177887322  1.0000
  C   C12       1.0  0.4423942151202618  0.22619913717587226  0.4200897713342828  1.0000
  C   C13       1.0  0.5011639803423394  0.18567547229921752  0.3374299055990373  1.0000
  C   C14       1.0  0.5748800930635604  0.24089213582275537  0.3520006120045778  1.0000
  H   H1        1.0  0.543441242395512  0.4536480325400093  0.606635360381223  1.0000
  H   H2        1.0  0.3080757537374752  0.3679941436003582  0.43167813186636894  1.0000
  H   H3        1.0  0.23131088670702252  0.47876315507742223  0.8390470999408614  1.0000
  H   H4        1.0  0.3614292017433882  0.4472074826323238  0.9488566561595544  1.0000
  H   H5        1.0  0.46504210384285444  0.37477193849828594  0.8045106311078905  1.0000
  H   H6        1.0  0.3859457131167752  0.18078487149447503  0.4082708809393283  1.0000
  H   H7        1.0  0.4895639697401816  0.11102669786694586  0.2621693179271891  1.0000
  H   H8        1.0  0.6199390703663545  0.2086383961168372  0.28728566931687594  1.0000
  C   C15       1.0  0.9258383386094299  0.06788578675771294  0.49404276173972717  1.0000
  C   C16       1.0  0.004953268032690917  0.06847663184431152  0.5289762482942075  1.0000
  C   C17       1.0  0.0442079847098551  0.9518129486998276  0.5463092112073796  1.0000
  C   C18       1.0  0.004953267627667568  0.8333686626112766  0.5289761804695012  1.0000
  C   C19       1.0  0.9258383465425655  0.8303707295859812  0.4940428449695509  1.0000
  C   C20       1.0  0.886666531485524  0.9482398564351546  0.4767463550298488  1.0000
  Cl  Cl1       1.0  0.14304138147108167  0.9540545711412942  0.5899493596654343  1.0000
  H   H9        1.0  0.03641919856155008  0.15923688882502796  0.5428700211693787  1.0000
  H   H10       1.0  0.03641916854628269  0.7440356938322084  0.5428699148914313  1.0000
  H   H11       1.0  0.8256506971436053  0.9468558512826494  0.4498045536534181  1.0000
  C   C21       1.0  0.9271327772639035  0.4457823699627003  0.07089037580347271  1.0000
  C   C22       1.0  0.9894245827366951  0.5050485916461989  0.14506256497448788  1.0000
  C   C23       1.0  0.047372889127682116  0.5736997923463127  0.06983203197459864  1.0000
  C   C24       1.0  0.04301383225682188  0.5834361624593687  0.9183142270730374  1.0000
  C   C25       1.0  0.9823292698423292  0.5235010093371988  0.8430848906162609  1.0000
  C   C26       1.0  0.9245439287826639  0.45247410028252383  0.9171951378579665  1.0000
  C   C27       1.0  0.11145310544648696  0.6356298082124174  0.15108517241515673  1.0000
  O   O1        1.0  0.1642378303936987  0.6984588271518449  0.08652983992887389  1.0000
  H   H12       1.0  0.7454042582619742  0.3533827783825617  0.16578734517263533  1.0000
  H   H13       1.0  0.08692968416098812  0.636374463340571  0.8576868854278761  1.0000
  H   H14       1.0  0.8034033320432431  0.38498374847835004  0.6311306361515445  1.0000
  H   H15       1.0  0.11368913614727738  0.6274754634952412  0.268195034410436  1.0000
  Zn  Zn1       1.0  0.8417954961748805  0.4454004664064126  0.48642724855433156  1.0000
  Zn  Zn2       1.0  0.009873863561199679  0.4528550586907782  0.5016569793973067  1.0000
  C   C28       1.0  0.9250315605554704  0.4460371216307007  0.7572252949464822  1.0000
  C   C29       1.0  0.9266396341585659  0.452220124086369  0.23085924074532538  1.0000
  C   C30       1.0  0.9258519757833003  0.6861992372072538  0.488300257212245  1.0000
  C   C31       1.0  0.9258191613422807  0.21205644676793645  0.4997843501071968  1.0000
  O   O2        1.0  0.9902589953026503  0.45720400816506734  0.2903258566376967  1.0000
  O   O3        1.0  0.9889797924577751  0.4467101179179952  0.7093172775666019  1.0000
  O   O4        1.0  0.9896414236959252  0.6406440372218826  0.49215832899405615  1.0000
  O   O5        1.0  0.989597307041244  0.263270094750397  0.5074846919701499  1.0000
  O   O6        1.0  0.8620719953379614  0.6349854278042606  0.4805995307767493  1.0000
  O   O7        1.0  0.861410364331392  0.44105306769971997  0.6977584025169221  1.0000
  O   O8        1.0  0.8626895725269195  0.45154689900884043  0.27876524912198897  1.0000
  O   O9        1.0  0.862027883931894  0.2576129771624207  0.4959241924897959  1.0000
