data_image0
_chemical_formula_structural       NC5NC3H4C6ClH5C6FH2Zn2C4O8
_chemical_formula_sum              "N2 C24 H11 Cl1 F1 Zn2 O8"
_cell_length_a       13.859018345313864
_cell_length_b       9.276545438789551
_cell_length_c       9.275646106892307
_cell_angle_alpha    84.98577803735094
_cell_angle_beta     90.02253309595986
_cell_angle_gamma    89.40960550048821

_space_group_name_H-M_alt    "P 1"
_space_group_IT_number       1

loop_
  _space_group_symop_operation_xyz
  'x, y, z'

loop_
  _atom_site_type_symbol
  _atom_site_label
  _atom_site_symmetry_multiplicity
  _atom_site_fract_x
  _atom_site_fract_y
  _atom_site_fract_z
  _atom_site_occupancy
  N   N1        1.0  0.8971704368154579  0.5950010179883245  0.40889473176155744  1.0000
  C   C1        1.0  0.8251058714225189  0.5549178341978329  0.46019082230630004  1.0000
  C   C2        1.0  0.735461761784393  0.5050597218741741  0.5239963357420037  1.0000
  C   C3        1.0  0.64749498694039  0.5536655383764393  0.4617937742266556  1.0000
  C   C4        1.0  0.5602314592746741  0.5050594328063405  0.5239962098605984  1.0000
  C   C5        1.0  0.4698659925418314  0.5549177225632843  0.4601907248037469  1.0000
  N   N2        1.0  0.3972215344684553  0.5950009848303472  0.40889466262735263  1.0000
  C   C6        1.0  0.5611172900945817  0.4078331329430092  0.6484198178485054  1.0000
  C   C7        1.0  0.6489001701823222  0.3594144214373869  0.7103830090137446  1.0000
  C   C8        1.0  0.7359826316809411  0.40783342589430105  0.6484200219383679  1.0000
  H   H1        1.0  0.6469505363651676  0.6289213457608207  0.36548655496072285  1.0000
  H   H2        1.0  0.4940985742627111  0.3695753897116032  0.6973790589647089  1.0000
  H   H3        1.0  0.6494434527022418  0.284311394912522  0.8064948990140512  1.0000
  H   H4        1.0  0.8035548324183563  0.3695759150642639  0.6973794851234205  1.0000
  C   C9        1.0  0.15011260722430952  0.1715683704965938  0.4086567917617061  1.0000
  C   C10       1.0  0.15042372692995443  0.25663837657261257  0.27543992140299767  1.0000
  C   C11       1.0  0.14195757448484447  0.19294664923776117  0.14512254043766193  1.0000
  C   C12       1.0  0.1329802645702982  0.04334598215445374  0.14601712890596152  1.0000
  C   C13       1.0  0.13415680492821516  0.9567635978133239  0.2767888018463487  1.0000
  C   C14       1.0  0.14428868321357435  0.018422399073460445  0.40914512740434006  1.0000
  Cl  Cl1       1.0  0.14114304190782234  0.30132262899528817  0.9803482771798202  1.0000
  H   H5        1.0  0.19955320190056125  0.43211110568666  0.6355728430144507  1.0000
  H   H6        1.0  0.15494377175492668  0.3733893696881685  0.2725823679905417  1.0000
  H   H7        1.0  0.12600836428744366  0.9936979630382321  0.045195821565204415  1.0000
  H   H8        1.0  0.1294384851467545  0.8405313937321084  0.2741347961057603  1.0000
  H   H9        1.0  0.11203806873854363  0.7172016621057681  0.6425313484958268  1.0000
  C   C15       1.0  0.14705729974040538  0.5995084828995598  0.985063112259926  1.0000
  C   C16       1.0  0.2353011046307596  0.6145788399890908  0.057132650204097635  1.0000
  C   C17       1.0  0.3224420191348038  0.616110001329262  0.9816877106794024  1.0000
  C   C18       1.0  0.3228705134932139  0.6024529728660457  0.8333035810190221  1.0000
  C   C19       1.0  0.23612216859174917  0.5897868331400349  0.759303470319912  1.0000
  C   C20       1.0  0.14734393014390834  0.5904822668230247  0.8327387903885097  1.0000
  F   F1        1.0  0.406850251916385  0.6291281807590619  0.05313042654963617  1.0000
  H   H10       1.0  0.9241244608966446  0.4823620446330632  0.09814848082626271  1.0000
  H   H11       1.0  0.39052863662579446  0.6030561863661905  0.7749885627686002  1.0000
  Zn  Zn1       1.0  0.04147440976120808  0.5949970491635854  0.4089030536332034  1.0000
  Zn  Zn2       1.0  0.2529176233855393  0.5949929934989531  0.408898188393513  1.0000
  C   C21       1.0  0.1473271317003848  0.5864440813845144  0.6725066263514434  1.0000
  C   C22       1.0  0.1470671979356093  0.6035477790787358  0.14529475833224992  1.0000
  C   C23       1.0  0.14538259843633794  0.8584101712856834  0.4033013363621243  1.0000
  C   C24       1.0  0.1490116709888633  0.331579955961232  0.4145001242732602  1.0000
  O   O1        1.0  0.22731216074700478  0.6048955740199613  0.19906811252779089  1.0000
  O   O2        1.0  0.22756268290727144  0.5850921249293928  0.6187291634470831  1.0000
  O   O3        1.0  0.22599136651698437  0.804708166045577  0.40134398799804843  1.0000
  O   O4        1.0  0.22888340487851153  0.3852795443723922  0.41645317976620366  1.0000
  O   O5        1.0  0.06550855611303086  0.8047104982931808  0.40134806225458175  1.0000
  O   O6        1.0  0.0670798605589058  0.5850961903963652  0.6187331617459944  1.0000
  O   O7        1.0  0.06682933822153547  0.604899607717007  0.19907037552075568  1.0000
  O   O8        1.0  0.06840058245661783  0.385283566603857  0.41645555096385967  1.0000
