data_image0
_chemical_formula_structural       NC8NC6H8C13OH12C12IH9Zn2C4O8
_chemical_formula_sum              "N2 C43 H29 O9 I1 Zn2"
_cell_length_a       17.457602349358154
_cell_length_b       10.299150109392551
_cell_length_c       10.29977335064465
_cell_angle_alpha    85.52407015278276
_cell_angle_beta     92.88561579931032
_cell_angle_gamma    91.67070309183428

_space_group_name_H-M_alt    "P 1"
_space_group_IT_number       1

loop_
  _space_group_symop_operation_xyz
  'x, y, z'

loop_
  _atom_site_type_symbol
  _atom_site_label
  _atom_site_symmetry_multiplicity
  _atom_site_fract_x
  _atom_site_fract_y
  _atom_site_fract_z
  _atom_site_occupancy
  N   N1        1.0  0.7220176146683291  0.45330814928605545  0.6259423678318273  1.0000
  C   C1        1.0  0.6609473726101602  0.4073828148098541  0.6153439316751286  1.0000
  C   C2        1.0  0.5849734082888132  0.3502574108462382  0.6021690169847874  1.0000
  C   C3        1.0  0.526444351775822  0.39040125079970606  0.6770522138666373  1.0000
  C   C4        1.0  0.4519081274449474  0.3353940805395709  0.6644909410456825  1.0000
  C   C5        1.0  0.3897881736082513  0.37777999726082007  0.7437951350470111  1.0000
  C   C6        1.0  0.31523265484487223  0.3962650236873943  0.6880240904677868  1.0000
  C   C7        1.0  0.2567036407330412  0.4362248961469035  0.7630153117287384  1.0000
  C   C8        1.0  0.1807096390960887  0.45531642762714547  0.705028555257393  1.0000
  N   N2        1.0  0.1196233795117094  0.47065963877487754  0.6584073565195732  1.0000
  C   C9        1.0  0.2722379853787681  0.4579427593812353  0.8942860080294486  1.0000
  C   C10       1.0  0.3460087635626237  0.4398466384353517  0.950444507183455  1.0000
  C   C11       1.0  0.40452618254130357  0.4000667058534824  0.875910943491764  1.0000
  C   C12       1.0  0.4371895963978897  0.239566001599117  0.5756137942709747  1.0000
  C   C13       1.0  0.495706920305948  0.19970074968464546  0.5011304990571935  1.0000
  C   C14       1.0  0.5694584104525314  0.25482015114536316  0.5142416844589779  1.0000
  H   H1        1.0  0.5387805265482404  0.4655821791882211  0.7436550970503628  1.0000
  H   H2        1.0  0.3028807001458837  0.38132192821461075  0.5860042892943045  1.0000
  H   H3        1.0  0.227376803836305  0.4888113327211465  0.9531107202706613  1.0000
  H   H4        1.0  0.35784667599431147  0.4563476008860614  0.05209045434816806  1.0000
  H   H5        1.0  0.4610190656279133  0.3850611670007693  0.922023520528707  1.0000
  H   H6        1.0  0.3807125170653619  0.19423038441133933  0.5649790175778274  1.0000
  H   H7        1.0  0.48388422856806323  0.1256366879567632  0.43332886023556205  1.0000
  H   H8        1.0  0.6143198499052914  0.22308168092817968  0.4559284314723524  1.0000
  C   C15       1.0  0.9208964869044419  0.08058750823869974  0.6423251929381908  1.0000
  C   C16       1.0  0.9194964150475881  0.06868254586999357  0.7790212094041351  1.0000
  C   C17       1.0  0.9187197682056593  0.9455090394613089  0.8480598448701475  1.0000
  C   C18       1.0  0.9193484613300217  0.8334208498438435  0.7786457348687533  1.0000
  C   C19       1.0  0.9207518426389749  0.8433705253889462  0.6420363873451854  1.0000
  C   C20       1.0  0.9215197642533308  0.9674137720946583  0.574674623118508  1.0000
  C   C21       1.0  0.9172319530168878  0.9338964233543193  0.9925780620852118  1.0000
  C   C22       1.0  0.8700627616820754  0.8389379955439938  0.05674785551829975  1.0000
  C   C23       1.0  0.8686373112529021  0.828090835464431  0.19273727808937324  1.0000
  C   C24       1.0  0.9148584866728658  0.911063586599415  0.2670563809946749  1.0000
  C   C25       1.0  0.9612937366730967  0.006943433520944845  0.20346923011885704  1.0000
  C   C26       1.0  0.9627369960355352  0.017967167895116973  0.06748097295605071  1.0000
  C   C27       1.0  0.9117135625177989  0.9016915150967245  0.41288544335979666  1.0000
  O   O1        1.0  0.8543751717980347  0.9823530127930191  0.44844423559792546  1.0000
  H   H9        1.0  0.9230407502837547  0.3103297667954781  0.3842643580698407  1.0000
  H   H10       1.0  0.9179431177635345  0.15537143381911964  0.8319028051962941  1.0000
  H   H11       1.0  0.9197912558783965  0.7383009232433584  0.8315152517975655  1.0000
  H   H12       1.0  0.9226000633280315  0.9758043683896787  0.4693035684397129  1.0000
  H   H13       1.0  0.9212399939609092  0.5197197980697612  0.5894874248006243  1.0000
  H   H14       1.0  0.8333673498518971  0.7743445664675007  0.001643087980708886  1.0000
  H   H15       1.0  0.831321371377456  0.7551167112065468  0.2400658030638867  1.0000
  H   H16       1.0  0.9965760337813713  0.07302792705486127  0.25920481874576995  1.0000
  H   H17       1.0  7.871869668863095e-05  0.0913875934767272  0.020961194110790327  1.0000
  H   H18       1.0  0.9681507915327676  0.931970819257939  0.4576635006052745  1.0000
  H   H19       1.0  0.8992492992138243  0.7991142374189403  0.4496801941367924  1.0000
  H   H20       1.0  0.854668597547682  0.9726578021003427  0.5450945959287512  1.0000
  C   C28       1.0  0.9207875679550265  0.4620835296144934  0.26080855637734457  1.0000
  C   C29       1.0  0.9903210413971372  0.5341270485537346  0.260123771926128  1.0000
  C   C30       1.0  0.02559110693810696  0.5705258380524991  0.14264980304935349  1.0000
  C   C31       1.0  0.9903948805402638  0.5339160970544575  0.024860265392732332  1.0000
  C   C32       1.0  0.9208607641969386  0.46187455516744785  0.023553038420274005  1.0000
  C   C33       1.0  0.886446767606242  0.4263606302703855  0.14202703741601108  1.0000
  C   C34       1.0  0.09915142020762424  0.646739536625287  0.14297935233577963  1.0000
  C   C35       1.0  0.11120056019318425  0.7502927946676907  0.2237363848583922  1.0000
  C   C36       1.0  0.18047570058259552  0.8219137371343844  0.22384804417216347  1.0000
  C   C37       1.0  0.23847163095775062  0.7910823639535437  0.14360624901766217  1.0000
  C   C38       1.0  0.2271623800529632  0.688447663701115  0.06305204805900244  1.0000
  C   C39       1.0  0.1579651124907491  0.6166041293977702  0.0625408875812925  1.0000
  I   I1        1.0  0.34291347682851137  0.899287379847294  0.14407816768877613  1.0000
  H   H21       1.0  0.8942698457846069  0.4346957140573682  0.5885161340125599  1.0000
  H   H22       1.0  0.017750741985423698  0.5605731047340795  0.3513311370090966  1.0000
  H   H23       1.0  0.016811382655585346  0.5632589003112562  0.933894165796106  1.0000
  H   H24       1.0  0.832804427551652  0.3707834525543529  0.1417869223990562  1.0000
  H   H25       1.0  0.8943770384696288  0.43438822514826064  0.695605160138236  1.0000
  H   H26       1.0  0.06670808467387082  0.7769313739328265  0.28548384193419807  1.0000
  H   H27       1.0  0.1889514857583776  0.9015669790461402  0.2860971742915863  1.0000
  H   H28       1.0  0.2720312291601812  0.6640619186429861  0.0010433694557594503  1.0000
  H   H29       1.0  0.15082267052163206  0.5364681439802466  0.0005617329503582131  1.0000
  Zn  Zn1       1.0  0.8367580510571894  0.45831192933065057  0.6353185621371391  1.0000
  Zn  Zn2       1.0  0.004882931912500997  0.4656452072263866  0.6490417988660335  1.0000
  C   C40       1.0  0.9208461942648942  0.4567399252956796  0.8793797878980344  1.0000
  C   C41       1.0  0.9207966243247487  0.46721893004381293  0.40498084980950394  1.0000
  C   C42       1.0  0.9207747372500632  0.6991895826938261  0.6369154203664897  1.0000
  C   C43       1.0  0.9208680242728516  0.22476770970882187  0.6474452824883499  1.0000
  O   O2        1.0  0.9846021808940295  0.47171969193249436  0.45857428748035883  1.0000
  O   O3        1.0  0.9846435322697795  0.45780397195835876  0.8362015958920493  1.0000
  O   O4        1.0  0.9845849698677548  0.653585098616414  0.6404098329173926  1.0000
  O   O5        1.0  0.9846606859153152  0.2759385720896619  0.6543659483931741  1.0000
  O   O6        1.0  0.8569802396816042  0.648018561966303  0.6299944079200996  1.0000
  O   O7        1.0  0.8570388017775852  0.4522389957440198  0.8257861010575562  1.0000
  O   O8        1.0  0.8569974503116111  0.4661546708889375  0.4481572312529398  1.0000
  O   O9        1.0  0.857055955340864  0.27037354172981054  0.6439489895376979  1.0000
