data_image0
_chemical_formula_structural       NC9NC5H8C10ClC2H9C9N2CH8Zn2C4O8
_chemical_formula_sum              "N4 C40 H25 Cl1 Zn2 O8"
_cell_length_a       17.807436237873137
_cell_length_b       10.299769246903262
_cell_length_c       10.29904744462841
_cell_angle_alpha    85.5441535616138
_cell_angle_beta     89.41304174640116
_cell_angle_gamma    88.40836129390726

_space_group_name_H-M_alt    "P 1"
_space_group_IT_number       1

loop_
  _space_group_symop_operation_xyz
  'x, y, z'

loop_
  _atom_site_type_symbol
  _atom_site_label
  _atom_site_symmetry_multiplicity
  _atom_site_fract_x
  _atom_site_fract_y
  _atom_site_fract_z
  _atom_site_occupancy
  N   N1        1.0  0.707357145930813  0.3882100313611817  0.5570612831609838  1.0000
  C   C1        1.0  0.646760730030868  0.3530247109512793  0.5460356429659994  1.0000
  C   C2        1.0  0.5713854487588682  0.30925804717724525  0.5323209437161427  1.0000
  C   C3        1.0  0.5532581980593954  0.2378795831462164  0.427308607914082  1.0000
  C   C4        1.0  0.4800726510877196  0.19527405899786102  0.4139098815561608  1.0000
  C   C5        1.0  0.4239655594694861  0.2236694877741563  0.5054910270976107  1.0000
  C   C6        1.0  0.34618822790010595  0.178505675296706  0.49133373419754256  1.0000
  C   C7        1.0  0.2840325907830456  0.26025149656186697  0.5172766723877207  1.0000
  C   C8        1.0  0.21070470433139113  0.21744293387862523  0.5038916228188166  1.0000
  C   C9        1.0  0.1474995538588337  0.3018799305784192  0.5301985608851465  1.0000
  N   N2        1.0  0.0966955999342708  0.36976143387064647  0.5513486123970897  1.0000
  C   C10       1.0  0.19894885694988024  0.09263058371386591  0.4645382767037305  1.0000
  C   C11       1.0  0.2602471198741926  0.010870913241722622  0.43858694784351676  1.0000
  C   C12       1.0  0.3334554576964091  0.05328501070605718  0.45176943397954306  1.0000
  C   C13       1.0  0.4427843533524906  0.2955422347471566  0.6107226214136467  1.0000
  C   C14       1.0  0.5160227029015727  0.33795742047282507  0.6239656807155378  1.0000
  H   H1        1.0  0.5956335087360358  0.21541881595104775  0.35559005562878965  1.0000
  H   H2        1.0  0.4671323022696503  0.1416206310189645  0.3309819979455899  1.0000
  H   H3        1.0  0.2925543096881619  0.3577047158673916  0.5461583486723625  1.0000
  H   H4        1.0  0.1424752523716765  0.05859877996019792  0.45394173729876447  1.0000
  H   H5        1.0  0.2510269494104869  0.9142381782248773  0.4085047945024918  1.0000
  H   H6        1.0  0.3800800236669846  0.9875477038526577  0.432717936827989  1.0000
  H   H7        1.0  0.4011261021576281  0.3174635305654503  0.683735752018428  1.0000
  H   H8        1.0  0.5294914026681734  0.39283175754692273  0.7058518937563554  1.0000
  C   C15       1.0  0.9019593257017752  0.9976237992860598  0.5542007131399587  1.0000
  C   C16       1.0  0.9088679464413523  0.006886388598481567  0.4178811293540252  1.0000
  C   C17       1.0  0.9124404082361254  0.8944369847325186  0.34881648934141474  1.0000
  C   C18       1.0  0.9090105591019306  0.7715914666940675  0.417900981830827  1.0000
  C   C19       1.0  0.9021006215762011  0.7603373338439677  0.5542203101329062  1.0000
  C   C20       1.0  0.898613898166479  0.8739088805056435  0.6216067897252953  1.0000
  C   C21       1.0  0.9197504523983139  0.905288968689189  0.2046018328959487  1.0000
  C   C22       1.0  0.9684454483265582  0.820058966075201  0.14139491721416886  1.0000
  C   C23       1.0  0.9752589890018702  0.83047213661258  0.005647585065865492  1.0000
  C   C24       1.0  0.9335956085380531  0.9258424279452714  0.9314498487394256  1.0000
  Cl  Cl1       1.0  0.9422269504329619  0.9386560634030671  0.7611515604157635  1.0000
  C   C25       1.0  0.885043413551762  0.010986283367737208  0.9931636456311513  1.0000
  C   C26       1.0  0.8780966256907723  0.0009720290788102243  0.12889264051581728  1.0000
  H   H9        1.0  0.8992980801099068  0.3215493685073869  0.6061423195705127  1.0000
  H   H10       1.0  0.9125218653643398  0.10173167623006532  0.3652350709201415  1.0000
  H   H11       1.0  0.9107072974153285  0.6846900842594472  0.36498393642884874  1.0000
  H   H12       1.0  0.8932839596990519  0.8659951492616585  0.726771007042979  1.0000
  H   H13       1.0  0.8995031168782011  0.42859327289884563  0.6061700413429347  1.0000
  H   H14       1.0  0.0019573028277115553  0.7465159578294176  0.19701209101075667  1.0000
  H   H15       1.0  0.013089491210685813  0.7645427380378775  0.9583013624021506  1.0000
  H   H16       1.0  0.8525062890241778  0.08477347498559729  0.9360796433873406  1.0000
  H   H17       1.0  0.8394527631673999  0.06689635514158132  0.1745254455343026  1.0000
  C   C27       1.0  0.9019475573073027  0.3791057783272822  0.17281446500055853  1.0000
  C   C28       1.0  0.9806976776898031  0.38346028497948503  0.1703037145657489  1.0000
  C   C29       1.0  0.02072701682316391  0.38553926621869705  0.05189509860283814  1.0000
  C   C30       1.0  0.980911314645657  0.3831999522353766  0.9350378954162265  1.0000
  C   C31       1.0  0.9021123545620338  0.3788554153867061  0.9356066139650818  1.0000
  C   C32       1.0  0.863117084253611  0.37683281460487006  0.05493488445119743  1.0000
  C   C33       1.0  0.10404953391949777  0.3901252289980669  0.05027142850900934  1.0000
  C   C34       1.0  0.14715156233026905  0.315962083699535  0.9668253842377005  1.0000
  C   C35       1.0  0.22520530439096895  0.32233454160215075  0.9676984027829886  1.0000
  N   N3        1.0  0.2585449913967064  0.40030398742225604  0.04914322054252018  1.0000
  N   N4        1.0  0.21811010369855996  0.4713690909120509  0.12878740054200466  1.0000
  C   C36       1.0  0.14186981938843446  0.468761746656021  0.13217735312605017  1.0000
  H   H18       1.0  0.8716406523201302  0.37748015157923187  0.5012562756189352  1.0000
  H   H19       1.0  0.011135051984107795  0.3833956466266063  0.26081086316785473  1.0000
  H   H20       1.0  0.011374907223209874  0.3866075525674604  0.843318650581466  1.0000
  H   H21       1.0  0.8023761757210234  0.3734797237813676  0.05615796488600955  1.0000
  H   H22       1.0  0.7533504497130598  0.37149008377862686  0.7293271140955309  1.0000
  H   H23       1.0  0.1208446537339196  0.2523918379077994  0.9028746148269221  1.0000
  H   H24       1.0  0.2592019380260002  0.2653442171317646  0.9042156064204848  1.0000
  H   H25       1.0  0.11117821107279811  0.5290781631544585  0.19717672068448944  1.0000
  Zn  Zn1       1.0  0.8197118133708156  0.382882696950168  0.5554202410168798  1.0000
  Zn  Zn2       1.0  0.98434091464327  0.37507817880090555  0.5530003316407248  1.0000
  C   C37       1.0  0.9020785767463247  0.3737292091552474  0.7914224436531747  1.0000
  C   C38       1.0  0.9019759493434694  0.38423321991777626  0.3169982300968113  1.0000
  C   C39       1.0  0.9020689075490209  0.6161701437451045  0.5490411556960153  1.0000
  C   C40       1.0  0.9019855620903341  0.14179072769497125  0.559379588083103  1.0000
  O   O1        1.0  0.9644613628819052  0.3829865965559504  0.36446927565541043  1.0000
  O   O2        1.0  0.9645428415533392  0.3690514042446186  0.7421143689730891  1.0000
  O   O3        1.0  0.9645341916411869  0.5648255644928353  0.5463897764745074  1.0000
  O   O4        1.0  0.9644699565979779  0.1872124482929014  0.5601937715983818  1.0000
  O   O5        1.0  0.8395827152362738  0.5707484301228875  0.5482268018781882  1.0000
  O   O6        1.0  0.8395913654190316  0.3749758301723335  0.7439513251666023  1.0000
  O   O7        1.0  0.8395098864518046  0.38891097773876737  0.3663046703351709  1.0000
  O   O8        1.0  0.8395184801841231  0.1931368201552653  0.5620292636527178  1.0000
