data_image0
_chemical_formula_structural       NC9NC5H8C8H6C6SCNH5Zn2C4O8
_chemical_formula_sum              "N3 C33 H19 S1 Zn2 O8"
_cell_length_a       17.807436237873137
_cell_length_b       9.275140704573507
_cell_length_c       10.302218930750287
_cell_angle_alpha    85.68853581932115
_cell_angle_beta     89.41007646359061
_cell_angle_gamma    88.98377242316299

_space_group_name_H-M_alt    "P 1"
_space_group_IT_number       1

loop_
  _space_group_symop_operation_xyz
  'x, y, z'

loop_
  _atom_site_type_symbol
  _atom_site_label
  _atom_site_symmetry_multiplicity
  _atom_site_fract_x
  _atom_site_fract_y
  _atom_site_fract_z
  _atom_site_occupancy
  N   N1        1.0  0.7154510934375627  0.5406895071623912  0.5606892001273832  1.0000
  C   C1        1.0  0.6546510293245036  0.5016310119285743  0.5495868066634726  1.0000
  C   C2        1.0  0.5790224321028747  0.4530465452075128  0.5357766348050426  1.0000
  C   C3        1.0  0.5604846554545717  0.373796106016838  0.43063498468144285  1.0000
  C   C4        1.0  0.48705251457193227  0.3265005878304563  0.4171433339148117  1.0000
  C   C5        1.0  0.4311071673006738  0.3580364568280762  0.5087600184577497  1.0000
  C   C6        1.0  0.3530684334112622  0.3079010434267046  0.49450420673626694  1.0000
  C   C7        1.0  0.2913859205292615  0.3986454441700705  0.5206253608220424  1.0000
  C   C8        1.0  0.217810262569857  0.3511245508479759  0.5071469192520495  1.0000
  C   C9        1.0  0.155093827617465  0.4448562845202253  0.5336380967987331  1.0000
  N   N2        1.0  0.1046827671232593  0.5202101134453117  0.5549362637564976  1.0000
  C   C10       1.0  0.2053320246217391  0.21257290368787674  0.467521384797282  1.0000
  C   C11       1.0  0.2661570832811402  0.12181312850696657  0.4413918111243579  1.0000
  C   C12       1.0  0.3396109119833375  0.1688961201327042  0.4546668539869515  1.0000
  C   C13       1.0  0.4503393459521566  0.4378356007101561  0.614121984769201  1.0000
  C   C14       1.0  0.5238231907824036  0.4849198110947755  0.6274575839379692  1.0000
  H   H1        1.0  0.6027320037012326  0.3488513807877678  0.3588880904893874  1.0000
  H   H2        1.0  0.4738037093253431  0.2669292811491224  0.33411952289356317  1.0000
  H   H3        1.0  0.3004717385973555  0.5068259496479233  0.5497201504480209  1.0000
  H   H4        1.0  0.14866144610909549  0.17479491541418968  0.4568505868071737  1.0000
  H   H5        1.0  0.256377608433692  0.014543166644724215  0.41109879968927077  1.0000
  H   H6        1.0  0.3858549499183115  0.09592277275042081  0.4354714631752412  1.0000
  H   H7        1.0  0.4088058886850731  0.4621817300089364  0.687161813105345  1.0000
  H   H8        1.0  0.5376074583152113  0.5458461705959115  0.7094428424805247  1.0000
  C   C15       1.0  0.9077888434405645  0.10712906251445453  0.5569384352609067  1.0000
  C   C16       1.0  0.9184918458836538  0.19002291813506345  0.43834494969953997  1.0000
  C   C17       1.0  0.9357454342971567  0.12381503749672776  0.32430804626745324  1.0000
  C   C18       1.0  0.9427088634900581  0.9735184269048536  0.32667337132280805  1.0000
  C   C19       1.0  0.9310435797207817  0.8890946341083615  0.443153205427105  1.0000
  C   C20       1.0  0.9123521140365863  0.9537591226074555  0.5586982032040473  1.0000
  C   C21       1.0  0.9609864623984443  0.9055062348523472  0.20899222919424323  1.0000
  C   C22       1.0  0.9762900104883686  0.8485476968775586  0.11046785684106197  1.0000
  H   H9        1.0  0.9201312680381317  0.18294427336130584  0.8757769172687309  1.0000
  H   H10       1.0  0.9152616072665722  0.3070182576527065  0.4344159048182466  1.0000
  H   H11       1.0  0.9443906800159266  0.19011254896489893  0.23442387469820972  1.0000
  H   H12       1.0  0.9348296067686664  0.7722882218170698  0.44293686048228453  1.0000
  H   H13       1.0  0.9177795969590125  0.6549198695186066  0.7735613644990055  1.0000
  H   H14       1.0  0.9897232411003506  0.7985483714153572  0.023984149366410135  1.0000
  C   C23       1.0  0.9100008258634146  0.5305152954218966  0.176544310510256  1.0000
  C   C24       1.0  0.9803754804729777  0.45962585843720527  0.17913789519066303  1.0000
  C   C25       1.0  0.015357997375288422  0.42389987867020684  0.063450766874521  1.0000
  C   C26       1.0  0.9805576465889867  0.45943768713445915  0.9439805705994511  1.0000
  C   C27       1.0  0.9101401367123255  0.5303728745729448  0.9390922908482551  1.0000
  C   C28       1.0  0.8752353650002912  0.5654701371427455  0.0559363956367398  1.0000
  S   S1        1.0  0.10532371387990125  0.3339627186123386  0.06819926009873045  1.0000
  C   C29       1.0  0.0650976817898401  0.16087242028783888  0.08067859379850108  1.0000
  N   N3        1.0  0.038703438648003186  0.047404974706684026  0.08886019412157166  1.0000
  H   H15       1.0  0.8832287471054688  0.5575609331305686  0.5028873553202382  1.0000
  H   H16       1.0  0.008261879411201488  0.43162359635508035  0.2707403215090167  1.0000
  H   H17       1.0  0.008568906828166243  0.4313063775861246  0.8553136666683505  1.0000
  H   H18       1.0  0.8209577982464373  0.6201231560472816  0.05308937151291971  1.0000
  H   H19       1.0  0.7774471760692153  0.664215336122392  0.7226507706267311  1.0000
  Zn  Zn1       1.0  0.8277749260430405  0.5347757486352621  0.5590365278889601  1.0000
  Zn  Zn2       1.0  0.9923588549352922  0.5261121192960567  0.5565995855254735  1.0000
  C   C30       1.0  0.9100811848744248  0.524657095863013  0.7949424858024345  1.0000
  C   C31       1.0  0.9100544031821988  0.5362324963102962  0.32069373221594577  1.0000
  C   C32       1.0  0.9114847626203582  0.7937291872254826  0.5531917164021039  1.0000
  C   C33       1.0  0.9086507599528593  0.26715867595093346  0.5624445680693637  1.0000
  O   O1        1.0  0.9725310936007705  0.534857149983446  0.3681467749631224  1.0000
  O   O2        1.0  0.9725198823423615  0.5194558605592063  0.7456394841750185  1.0000
  O   O3        1.0  0.9736524473957966  0.7367350212844583  0.5504240430399563  1.0000
  O   O4        1.0  0.971398472423785  0.31757800254485713  0.563362119600751  1.0000
  O   O5        1.0  0.8487352523901377  0.7433098683445045  0.5522739946384647  1.0000
  O   O6        1.0  0.8476026966556987  0.5260324395741873  0.7474893701452224  1.0000
  O   O7        1.0  0.8476139074080887  0.541433679053072  0.36999509981612033  1.0000
  O   O8        1.0  0.8464812861902435  0.3241545212858621  0.5652105417759659  1.0000
