data_image0
_chemical_formula_structural       NC6NC3H6C10H6C6NCH8Zn2C4O8
_chemical_formula_sum              "N3 C30 H20 Zn2 O8"
_cell_length_a       14.934028789175542
_cell_length_b       9.275150299802176
_cell_length_c       9.274690524155615
_cell_angle_alpha    85.73181374548483
_cell_angle_beta     89.66279847823098
_cell_angle_gamma    89.44625895822752

_space_group_name_H-M_alt    "P 1"
_space_group_IT_number       1

loop_
  _space_group_symop_operation_xyz
  'x, y, z'

loop_
  _atom_site_type_symbol
  _atom_site_label
  _atom_site_symmetry_multiplicity
  _atom_site_fract_x
  _atom_site_fract_y
  _atom_site_fract_z
  _atom_site_occupancy
  N   N1        1.0  0.8398545779203026  0.5642631724883687  0.40079646039558847  1.0000
  C   C1        1.0  0.7623769641704543  0.5631585895621412  0.4001239719356606  1.0000
  C   C2        1.0  0.6659909454728983  0.5617794113912398  0.39928449695090107  1.0000
  C   C3        1.0  0.6174095714546886  0.6691897948119936  0.46455638392317233  1.0000
  C   C4        1.0  0.5239062884657439  0.6680824196818167  0.4638833174756962  1.0000
  C   C5        1.0  0.4780714118983862  0.5596194773706287  0.39797187460023564  1.0000
  C   C6        1.0  0.3814078994140805  0.5619466706191429  0.39938736546320275  1.0000
  N   N2        1.0  0.30391369610728464  0.5637935947313606  0.4005110642090679  1.0000
  C   C7        1.0  0.5266585451715381  0.4507230899465242  0.33179641053823183  1.0000
  C   C8        1.0  0.4792412357723623  0.33280133657014654  0.2601382019438916  1.0000
  C   C9        1.0  0.6207842825605241  0.45296043435478256  0.3331560676157932  1.0000
  H   H1        1.0  0.6518086980343248  0.7538192187323121  0.5159851655409367  1.0000
  H   H2        1.0  0.4872304389154456  0.7520600730673945  0.5149158832353518  1.0000
  H   H3        1.0  0.4365223815571086  0.38112059030665235  0.17126928714333634  1.0000
  H   H4        1.0  0.4365717626913283  0.27062602611715425  0.34059360414228745  1.0000
  H   H5        1.0  0.5272823532836888  0.25642165465071365  0.21371684469053553  1.0000
  H   H6        1.0  0.6589446747547014  0.3700999365813338  0.28280267236858125  1.0000
  C   C10       1.0  0.07424279737481432  0.14034149649262728  0.40306511689192615  1.0000
  C   C11       1.0  0.12170755474750083  0.2213945883268187  0.2939981549743538  1.0000
  C   C12       1.0  0.1615119940921019  0.1542054841548819  0.17939474728447635  1.0000
  C   C13       1.0  0.15425665914539388  0.0049841163743358195  0.1723822236916126  1.0000
  C   C14       1.0  0.10874905130028617  0.9224795542913931  0.28080024210414045  1.0000
  C   C15       1.0  0.06953407158361569  0.9877042190673376  0.39825491649947553  1.0000
  C   C16       1.0  0.2089961943224069  0.23897895122126345  0.06783473579423194  1.0000
  C   C17       1.0  0.24875245324414974  0.3099793537106452  0.9744357526715831  1.0000
  C   C18       1.0  0.29530518845870035  0.3931258041293909  0.865069616833306  1.0000
  C   C19       1.0  0.33505378221933935  0.46412088832871534  0.7716885376663862  1.0000
  H   H7        1.0  0.030995769565265396  0.4047050331968773  0.6319578140665834  1.0000
  H   H8        1.0  0.126002239179537  0.3378580246096634  0.29622202549671894  1.0000
  H   H9        1.0  0.18457795768697172  0.9520350626067011  0.08370355961906029  1.0000
  H   H10       1.0  0.10603196694275852  0.8064279771119384  0.2745795376949578  1.0000
  H   H11       1.0  0.010172342427950941  0.8602798796293163  0.7407244931014241  1.0000
  H   H12       1.0  0.3699563630385434  0.5264606010768094  0.689692237352225  1.0000
  C   C20       1.0  0.07334274987908102  0.5603274596019036  0.9774328078963483  1.0000
  C   C21       1.0  0.1457464697709534  0.6226658280229951  0.045771143386939876  1.0000
  C   C22       1.0  0.21348467172427818  0.6959358079785475  0.9648151127322581  1.0000
  C   C23       1.0  0.20812029303184165  0.7065985796956793  0.8138614160185735  1.0000
  C   C24       1.0  0.13763216337423123  0.6433986940590668  0.7443160997213689  1.0000
  C   C25       1.0  0.07043411352989909  0.5677182740315838  0.823887179280832  1.0000
  N   N3        1.0  0.2876387979861294  0.761335673192499  0.0331193904904441  1.0000
  C   C26       1.0  0.29981938010650167  0.7562444546996621  0.18942229563958768  1.0000
  H   H13       1.0  0.972101283274648  0.3865160344680907  0.27148170399012006  1.0000
  H   H14       1.0  0.2593840468024364  0.7630249964848423  0.7494505243182323  1.0000
  H   H15       1.0  0.13691200974487594  0.6508434828123557  0.6272015444732375  1.0000
  H   H16       1.0  0.9293045534498757  0.5001745744054122  0.5489202638255706  1.0000
  H   H17       1.0  0.33605780286603704  0.8152558676947254  0.968148912570418  1.0000
  H   H18       1.0  0.3621677164771293  0.8133490694079689  0.21473754520024801  1.0000
  H   H19       1.0  0.3054646662244538  0.6421781237324901  0.23429135406813548  1.0000
  H   H20       1.0  0.24240827379163055  0.8103914074903187  0.2403523889833308  1.0000
  Zn  Zn1       1.0  0.9737720216212479  0.564123868850799  0.4007224395315716  1.0000
  Zn  Zn2       1.0  0.16999630765692997  0.5639211826786307  0.4005969352572121  1.0000
  C   C27       1.0  0.07101387588551478  0.5605734932840669  0.6639218407260827  1.0000
  C   C28       1.0  0.07275658555367559  0.5674733777136107  0.13739766381502383  1.0000
  C   C29       1.0  0.07043926937794426  0.827484507009848  0.3934209571557301  1.0000
  C   C30       1.0  0.07333113447210254  0.30056063128879  0.40789863410650207  1.0000
  O   O1        1.0  0.1470259923479086  0.5697884003330846  0.19103573827175002  1.0000
  O   O2        1.0  0.14567416934537736  0.5581035444913629  0.6101881027291594  1.0000
  O   O3        1.0  0.14520915833555434  0.773637577747308  0.391756717533402  1.0000
  O   O4        1.0  0.14749093671364755  0.35425437652385305  0.4094670153894264  1.0000
  O   O5        1.0  0.9962773256028289  0.7737906750762477  0.3918523594345955  1.0000
  O   O6        1.0  0.9967423272400946  0.558258374590014  0.6102836579444655  1.0000
  O   O7        1.0  0.9980941565357696  0.5699431650241968  0.19112956099551814  1.0000
  O   O8        1.0  0.998559100583891  0.3544091318389233  0.40956094622651396  1.0000
