data_image0
_chemical_formula_structural       NC8NH4C14H10C7NC4H8Zn2C4O8
_chemical_formula_sum              "N3 C37 H22 Zn2 O8"
_cell_length_a       13.859017981522156
_cell_length_b       17.567807274406366
_cell_length_c       12.588827829612491
_cell_angle_alpha    92.41607920085985
_cell_angle_beta     91.15412864820333
_cell_angle_gamma    89.97537266693564

_space_group_name_H-M_alt    "P 1"
_space_group_IT_number       1

loop_
  _space_group_symop_operation_xyz
  'x, y, z'

loop_
  _atom_site_type_symbol
  _atom_site_label
  _atom_site_symmetry_multiplicity
  _atom_site_fract_x
  _atom_site_fract_y
  _atom_site_fract_z
  _atom_site_occupancy
  N   N1        1.0  0.8867877468424338  0.7329137014827883  0.8302105683819397  1.0000
  C   C1        1.0  0.81361199039701  0.7253315869105555  0.7851019140333435  1.0000
  C   C2        1.0  0.7225857309104554  0.7159006222999238  0.7289926176083104  1.0000
  C   C3        1.0  0.7204114215524019  0.6975095479323711  0.6195767369624232  1.0000
  C   C4        1.0  0.6319868383563313  0.6883513172104441  0.5650873990779937  1.0000
  C   C5        1.0  0.5455461417702558  0.6975104416301868  0.6195765542638991  1.0000
  C   C6        1.0  0.5473554912723579  0.7159011245664902  0.7289924823798551  1.0000
  C   C7        1.0  0.6359664475975445  0.7250949312274779  0.7836922219225096  1.0000
  C   C8        1.0  0.4583721701410954  0.7253320489011609  0.7851017371392282  1.0000
  N   N2        1.0  0.3868388298296202  0.7329138610879323  0.8302104995128812  1.0000
  H   H1        1.0  0.786923129683947  0.6902726843617232  0.5765227421283938  1.0000
  H   H2        1.0  0.6304481856265465  0.6741451402931893  0.48056833927977066  1.0000
  H   H3        1.0  0.4774668534245264  0.6902742934027312  0.5765224331233635  1.0000
  H   H4        1.0  0.6375082206501551  0.739329871274984  0.868383114574199  1.0000
  C   C9        1.0  0.13693176987714972  0.5093247158261299  0.8302245939574314  1.0000
  C   C10       1.0  0.06209776169275671  0.46714151866809284  0.7787560541236889  1.0000
  C   C11       1.0  0.06225357505314655  0.3875413627150744  0.7787132345698637  1.0000
  C   C12       1.0  0.13709183350797827  0.3491349170854045  0.8300852036137651  1.0000
  C   C13       1.0  0.2118919158453225  0.3906170339810569  0.8815094801456135  1.0000
  C   C14       1.0  0.21191530034669623  0.470217474007519  0.8816215402033086  1.0000
  C   C15       1.0  0.13707516476603288  0.2672202607328044  0.830117585301375  1.0000
  C   C16       1.0  0.1370143402020163  0.19859761410439974  0.8301582692148982  1.0000
  C   C17       1.0  0.13689963375933045  0.11668364060465199  0.8302036959826203  1.0000
  C   C18       1.0  0.22422201723217805  0.0766735125022884  0.8315734241304834  1.0000
  C   C19       1.0  0.2241993738988839  0.9970726151373602  0.8315533843340079  1.0000
  C   C20       1.0  0.1367042394859148  0.9564977731448953  0.8302056095295135  1.0000
  C   C21       1.0  0.049248776055166095  0.9972112030273228  0.8288701766172245  1.0000
  C   C22       1.0  0.049463229467705754  0.0768073779073163  0.828867538434894  1.0000
  H   H5        1.0  0.06124998447227361  0.6893731689023846  0.7782177962256789  1.0000
  H   H6        1.0  0.0034107275402932543  0.49555813700849044  0.7385152442832562  1.0000
  H   H7        1.0  0.004024443391061224  0.3559682431134423  0.7386308970246456  1.0000
  H   H8        1.0  0.2701489217390829  0.3614478290646699  0.9215519564768808  1.0000
  H   H9        1.0  0.270567313786539  0.5010793563943348  0.9219318259875473  1.0000
  H   H10       1.0  0.29231133030729034  0.1069932493012387  0.83262078372526  1.0000
  H   H11       1.0  0.2926611200131757  0.9673945774259824  0.832571051153244  1.0000
  H   H12       1.0  0.9807208737089408  0.9676127114324251  0.8278573861667968  1.0000
  H   H13       1.0  0.981477354052034  0.107227253269111  0.8278514759962854  1.0000
  H   H14       1.0  0.224745419617977  0.7748109366861118  0.8311982084732644  1.0000
  C   C23       1.0  0.13113415812290996  0.7061926391868417  0.5187947164728008  1.0000
  C   C24       1.0  0.16457789842328022  0.6308313190901453  0.5069364070797113  1.0000
  C   C25       1.0  0.2026975996040033  0.6039100256428362  0.41058057453678504  1.0000
  C   C26       1.0  0.20745994453977076  0.6515995807169358  0.32491179348483445  1.0000
  C   C27       1.0  0.17295146453374377  0.7266534324798589  0.3346051209683802  1.0000
  C   C28       1.0  0.13615866122450626  0.7539596999142474  0.4320811396721711  1.0000
  C   C29       1.0  0.18015253908578083  0.7782410920343273  0.24530305646300896  1.0000
  N   N3        1.0  0.2282207415290638  0.8452744983173925  0.2638642731411398  1.0000
  C   C30       1.0  0.2434270744518301  0.8949944200178922  0.18625491796226365  1.0000
  C   C31       1.0  0.21027285907303075  0.877941128012884  0.08289563062367988  1.0000
  C   C32       1.0  0.15989556720132406  0.8102889766453991  0.060715324225731886  1.0000
  C   C33       1.0  0.14250184321627257  0.7596298495666785  0.14163551898249582  1.0000
  H   H15       1.0  0.16173160397934994  0.5927234121430571  0.5721914293741779  1.0000
  H   H16       1.0  0.22897483387805798  0.5459710225910368  0.4024272527795636  1.0000
  H   H17       1.0  0.23832695684140148  0.630148655402494  0.2511688279493333  1.0000
  H   H18       1.0  0.11090254083404182  0.8122844904341792  0.4397693673227566  1.0000
  H   H19       1.0  0.28204212608736  0.9475416996166061  0.20477665886169505  1.0000
  H   H20       1.0  0.2226571723577282  0.9172060991356796  0.020594170702412425  1.0000
  H   H21       1.0  0.13259112499534842  0.7984334576088873  0.9805079587176219  1.0000
  H   H22       1.0  0.03441630070597545  0.6152534722817239  0.9927689678223485  1.0000
  Zn  Zn1       1.0  0.03109180644333342  0.7329122395260436  0.8302166698830824  1.0000
  Zn  Zn2       1.0  0.2425349344581873  0.732909855199189  0.830213075181369  1.0000
  C   C34       1.0  0.14035248619636942  0.7464958528788174  0.023905396724481887  1.0000
  C   C35       1.0  0.1332765650684009  0.719327211442661  0.6365244523472731  1.0000
  C   C36       1.0  0.13666513433077832  0.8716099865022606  0.8259832504376634  1.0000
  C   C37       1.0  0.1369638462806475  0.5942121678946528  0.8344466552133696  1.0000
  O   O1        1.0  0.21423714323726273  0.7237310673196726  0.6760342631514026  1.0000
  O   O2        1.0  0.2198723444504067  0.7420895867683525  0.9843925523719512  1.0000
  O   O3        1.0  0.21689369961710225  0.8431209265729993  0.8245690188981546  1.0000
  O   O4        1.0  0.21721571446532906  0.6226997261404776  0.8358577171114345  1.0000
  O   O5        1.0  0.05641095428092702  0.8431223685859193  0.824572027948665  1.0000
  O   O6        1.0  0.05938959761231155  0.7420919387070007  0.9843955048388324  1.0000
  O   O7        1.0  0.053754373206080126  0.723733283334247  0.6760359406019456  1.0000
  O   O8        1.0  0.05673294588411972  0.6227019435307639  0.8358594740713908  1.0000
