data_image0
_chemical_formula_structural       NC11NC3H8C12ClH9C12IH9Zn2C4O8
_chemical_formula_sum              "N2 C42 H26 Cl1 I1 Zn2 O8"
_cell_length_a       17.807433833752565
_cell_length_b       10.299768534541528
_cell_length_c       10.29977335064465
_cell_angle_alpha    85.54596918474078
_cell_angle_beta     88.53399239926371
_cell_angle_gamma    90.7030232555817

_space_group_name_H-M_alt    "P 1"
_space_group_IT_number       1

loop_
  _space_group_symop_operation_xyz
  'x, y, z'

loop_
  _atom_site_type_symbol
  _atom_site_label
  _atom_site_symmetry_multiplicity
  _atom_site_fract_x
  _atom_site_fract_y
  _atom_site_fract_z
  _atom_site_occupancy
  N   N1        1.0  0.7075408599595948  0.4388736779624325  0.5347061436357725  1.0000
  C   C1        1.0  0.6567212680364993  0.40412868831373494  0.6012669249169253  1.0000
  C   C2        1.0  0.593496569782542  0.3609087860049571  0.6840600427035577  1.0000
  C   C3        1.0  0.6052235628367373  0.2973248960621404  0.8067755825450416  1.0000
  C   C4        1.0  0.5439063525709155  0.25578539187872495  0.887284837499078  1.0000
  C   C5        1.0  0.4707078044159377  0.2775163330977921  0.845719333700359  1.0000
  C   C6        1.0  0.45800400294616045  0.34125490137740044  0.7225436054730182  1.0000
  C   C7        1.0  0.3802372181994575  0.36431672577121954  0.6781975135737349  1.0000
  C   C8        1.0  0.36143816376353743  0.34748066056730426  0.5486180677488877  1.0000
  C   C9        1.0  0.28820966168596  0.36917288634686984  0.5070084919004176  1.0000
  C   C10       1.0  0.23283712141043503  0.4080199305761003  0.5941581043849805  1.0000
  C   C11       1.0  0.1574718908294859  0.4303709950492326  0.551187265128738  1.0000
  N   N2        1.0  0.09688361887366828  0.4483395904028498  0.5166418377750263  1.0000
  C   C12       1.0  0.2509446009694581  0.42506671886591496  0.7232064270193406  1.0000
  C   C13       1.0  0.3241203591460112  0.4033394923281939  0.7650714286416282  1.0000
  C   C14       1.0  0.5201785258107071  0.38278983609944023  0.6420507660604236  1.0000
  H   H1        1.0  0.6616892892832237  0.27990127764871714  0.8401403329702132  1.0000
  H   H2        1.0  0.553104265756052  0.20630716090037443  0.982018735900954  1.0000
  H   H3        1.0  0.4240681503265855  0.24294293800708205  0.9091568678914066  1.0000
  H   H4        1.0  0.4031040862315541  0.31585820848804946  0.47990146482764606  1.0000
  H   H5        1.0  0.2747560731661567  0.35532009688973165  0.40697465645973274  1.0000
  H   H6        1.0  0.20856161847519059  0.45546629815795847  0.7914082357002765  1.0000
  H   H7        1.0  0.3370457853486655  0.4187377281609311  0.8649225509349864  1.0000
  H   H8        1.0  0.511679365856083  0.4336303424469514  0.5475512159083586  1.0000
  C   C15       1.0  0.9021449727590954  0.062239603537184385  0.5256749660228857  1.0000
  C   C16       1.0  0.9070801728422475  0.0719644458780491  0.3889772828862308  1.0000
  C   C17       1.0  0.9096531024819122  0.9597544874600605  0.31971551752982186  1.0000
  C   C18       1.0  0.9072236588689656  0.8366802124903967  0.3889861154871799  1.0000
  C   C19       1.0  0.9022866914471797  0.8249637981613356  0.5256838185735453  1.0000
  C   C20       1.0  0.8997755489415242  0.9383015128176355  0.5932627100963974  1.0000
  C   C21       1.0  0.9148751316388838  0.9710962520482374  0.1751007181016282  1.0000
  C   C22       1.0  0.8721288393083991  0.06361842569881349  0.10262033817716776  1.0000
  C   C23       1.0  0.8771108994449751  0.07409944796544689  0.966509658211855  1.0000
  C   C24       1.0  0.9247665446908276  0.9925791491108927  0.9011908765001722  1.0000
  C   C25       1.0  0.9675003843830807  0.9003693507482144  0.9721606161299151  1.0000
  C   C26       1.0  0.962651738453367  0.8894993166760937  0.10827974930800142  1.0000
  Cl  Cl1       1.0  0.9309335715294598  0.0059731587377564975  0.7304200242021182  1.0000
  H   H9        1.0  0.9002258712968761  0.3859867739401244  0.5777620477848987  1.0000
  H   H10       1.0  0.9099716654614239  0.16706224437681505  0.33611062234599665  1.0000
  H   H11       1.0  0.9081545698641404  0.7498842500715877  0.33599686523540395  1.0000
  H   H12       1.0  0.8959675084135025  0.9300310373991203  0.6987187153567622  1.0000
  H   H13       1.0  0.9004353884408421  0.4930462758322385  0.577775555655867  1.0000
  H   H14       1.0  0.8341484932229405  0.12665753548093428  0.15112590515193602  1.0000
  H   H15       1.0  0.8437501004750858  0.1454183811630141  0.9119458330490224  1.0000
  H   H16       1.0  0.0046427419806733825  0.8372637370175032  0.9220044541354047  1.0000
  H   H17       1.0  0.9969657120443711  0.8184972953895203  0.16130504724694172  1.0000
  C   C27       1.0  0.902180031753837  0.44370692864060424  0.14431188252620994  1.0000
  C   C28       1.0  0.9702941013915526  0.5143658376696453  0.13481577620605223  1.0000
  C   C29       1.0  0.004844136791046335  0.5500623111847889  0.012872311370009548  1.0000
  C   C30       1.0  0.9703663264581379  0.514153439072214  0.8995428074631757  1.0000
  C   C31       1.0  0.902251628024751  0.44349651968361925  0.9070469847964366  1.0000
  C   C32       1.0  0.8685401856479196  0.4086678641645115  0.029881997428558453  1.0000
  C   C33       1.0  0.07690284463830888  0.6248112141370867  0.003880254580756134  1.0000
  C   C34       1.0  0.08873985163984521  0.728117173587946  0.08314376400282297  1.0000
  C   C35       1.0  0.1566008040939577  0.7983586628228482  0.07447678082786478  1.0000
  C   C36       1.0  0.21337907538446554  0.7663797789737188  0.9868524113583769  1.0000
  C   C37       1.0  0.202266910374761  0.663977631718764  0.9076980299790599  1.0000
  C   C38       1.0  0.13448212845427632  0.5935120245064127  0.915955532836445  1.0000
  I   I1        1.0  0.31568892169992346  0.8725050601980554  0.974089396499954  1.0000
  H   H18       1.0  0.8762036547079729  0.4168471495664374  0.47537983312995835  1.0000
  H   H19       1.0  0.9971631395879768  0.5402658498699664  0.22254651096702033  1.0000
  H   H20       1.0  0.9962443148463161  0.54297005482121  0.8052299159134768  1.0000
  H   H21       1.0  0.8159928603850666  0.3541588584119209  0.03643947126262747  1.0000
  H   H22       1.0  0.8763085037651793  0.4165375599981411  0.5824551224571771  1.0000
  H   H23       1.0  0.04518263125869115  0.7556358419232654  0.15055597066458803  1.0000
  H   H24       1.0  0.16492989731313612  0.8778373954569787  0.13567780874572  1.0000
  H   H25       1.0  0.24619351333128647  0.6387041522457617  0.8399775897236269  1.0000
  H   H26       1.0  0.12745846808780992  0.5135241484788717  0.8548548356825248  1.0000
  Zn  Zn1       1.0  0.8198967697714379  0.4416018591306841  0.5295006596260341  1.0000
  Zn  Zn2       1.0  0.984527693321814  0.44560078677265236  0.5218579076360634  1.0000
  C   C39       1.0  0.902235453781712  0.4383625940171952  0.762873705735607  1.0000
  C   C40       1.0  0.9021908073925172  0.44884173413097295  0.28848490555298323  1.0000
  C   C41       1.0  0.9022555446371969  0.6807940586091994  0.5205072090285519  1.0000
  C   C42       1.0  0.9021706600766078  0.20640870786011667  0.5308514740881504  1.0000
  O   O1        1.0  0.9646710002487278  0.45207692824549794  0.3339703045018396  1.0000
  O   O2        1.0  0.9647063223828514  0.4381615138393017  0.7115872610114953  1.0000
  O   O3        1.0  0.9647217039153413  0.6339279666315512  0.5158746392522653  1.0000
  O   O4        1.0  0.9646555625314416  0.25631048340572576  0.5296828314948169  1.0000
  O   O5        1.0  0.8397688443813554  0.6308921611343884  0.5216757383685459  1.0000
  O   O6        1.0  0.839753463128835  0.43512726865776896  0.7173882909009284  1.0000
  O   O7        1.0  0.8397181408897111  0.44904263824016244  0.3397697729933977  1.0000
  O   O8        1.0  0.8397027031767662  0.25327618408469066  0.5354823973538932  1.0000
