data_image0
_chemical_formula_structural       NC6NC2H4C9H10C7ONH5Zn2C4O8
_chemical_formula_sum              "N3 C28 H19 O9 Zn2"
_cell_length_a       14.927258858638513
_cell_length_b       10.297183801781406
_cell_length_c       9.273042158839658
_cell_angle_alpha    86.13565984305119
_cell_angle_beta     90.09323234568471
_cell_angle_gamma    89.99762792032334

_space_group_name_H-M_alt    "P 1"
_space_group_IT_number       1

loop_
  _space_group_symop_operation_xyz
  'x, y, z'

loop_
  _atom_site_type_symbol
  _atom_site_label
  _atom_site_symmetry_multiplicity
  _atom_site_fract_x
  _atom_site_fract_y
  _atom_site_fract_z
  _atom_site_occupancy
  N   N1        1.0  0.8419205120293554  0.40659637797258186  0.4094067559164874  1.0000
  C   C1        1.0  0.7643940208731332  0.40659635239151454  0.40940676651670116  1.0000
  C   C2        1.0  0.6679615132754527  0.40659645559901225  0.4094067166111821  1.0000
  C   C3        1.0  0.6207817500123475  0.3840543313699707  0.2827494934006678  1.0000
  C   C4        1.0  0.5270704385332854  0.38405435319702397  0.2827493599496864  1.0000
  C   C5        1.0  0.48014544930722614  0.4065962958387806  0.4094067353187285  1.0000
  C   C6        1.0  0.3837128747180039  0.4065963990488923  0.40940668540728464  1.0000
  N   N2        1.0  0.3061863835617814  0.4065963734678249  0.40940669600749896  1.0000
  C   C7        1.0  0.5273251455787893  0.42913842007043645  0.5360639585233185  1.0000
  C   C8        1.0  0.6210364570578519  0.42913839824338323  0.5360640919742998  1.0000
  H   H1        1.0  0.6563788311404669  0.3665152865595176  0.1842029045245268  1.0000
  H   H2        1.0  0.4912751756192104  0.3665154644544013  0.18420289949998514  1.0000
  H   H3        1.0  0.49172813154799044  0.4466774566119349  0.6346106554740353  1.0000
  H   H4        1.0  0.6568317200783461  0.44667737570324534  0.6346106623930534  1.0000
  C   C9        1.0  0.0740610851238579  0.025122743804991025  0.40961096603215597  1.0000
  C   C10       1.0  0.07129604410269226  0.03354405937631876  0.2579378055080846  1.0000
  C   C11       1.0  0.06987922551703174  0.9212420582165071  0.1802312099790733  1.0000
  C   C12       1.0  0.07128495440394467  0.7983673904821577  0.25734994279679047  1.0000
  C   C13       1.0  0.07405442714667393  0.7880601140272068  0.4092149477048148  1.0000
  C   C14       1.0  0.07542356354190322  0.90190451586837  0.48435411927912564  1.0000
  C   C15       1.0  0.0668883905489761  0.9397825004575582  0.016185977001301095  1.0000
  C   C16       1.0  0.014351648974750613  0.840304524697559  0.9359499936742286  1.0000
  C   C17       1.0  0.11640662992190398  0.8405693012709597  0.9313711945464185  1.0000
  H   H5        1.0  0.07513505041877538  0.3494161947884853  0.4680554997234945  1.0000
  H   H6        1.0  0.07022877383657677  0.12821751714616192  0.19938359749874057  1.0000
  H   H7        1.0  0.0702451486797302  0.7102277035537  0.20042177381467696  1.0000
  H   H8        1.0  0.07755640174408444  0.8946798511980235  0.6013731476511586  1.0000
  H   H9        1.0  0.07927328120664862  0.561376121164341  0.6960451802537104  1.0000
  H   H10       1.0  0.0659279060644387  0.039997932441879984  0.9634589552985348  1.0000
  H   H11       1.0  0.9845245377950607  0.7572891957983968  0.001543871207258633  1.0000
  H   H12       1.0  0.9826437512082629  0.880210205929252  0.8339722617304562  1.0000
  H   H13       1.0  0.148572440056292  0.7577156167724114  0.9941844499273933  1.0000
  H   H14       1.0  0.14434537593111557  0.8806273528154375  0.8267160261325297  1.0000
  C   C18       1.0  0.0736294079832403  0.4025766486712463  0.9861501504332781  1.0000
  C   C19       1.0  0.9913486130994654  0.41084879999584795  0.05882667231910421  1.0000
  C   C20       1.0  0.9106854350205384  0.43168616260585746  0.9825597032103045  1.0000
  C   C21       1.0  0.9127997212643663  0.4426823162838651  0.8310552952359203  1.0000
  C   C22       1.0  0.9936139801396963  0.4325029079450517  0.7573703327735845  1.0000
  C   C23       1.0  0.07448611581237707  0.41060617169196933  0.832675821448708  1.0000
  C   C24       1.0  0.8250804300914663  0.44065400712702546  0.06241507728719032  1.0000
  O   O1        1.0  0.8190960070036414  0.39038373640540147  0.18981179170343343  1.0000
  N   N3        1.0  0.7488789474565047  0.5065577290071035  0.9988444161436433  1.0000
  H   H15       1.0  0.2909773109412541  0.4521961370370133  0.08608443106965447  1.0000
  H   H16       1.0  0.8518800577886829  0.45552633743159787  0.7684255018195145  1.0000
  H   H17       1.0  0.22098568433931176  0.4380001022837148  0.5497398051543114  1.0000
  H   H18       1.0  0.7531926989425315  0.562653759679443  0.9011494716643766  1.0000
  H   H19       1.0  0.6883296506771228  0.506411516846939  0.055086959297709244  1.0000
  Zn  Zn1       1.0  0.9758976302973982  0.4065929747914727  0.4094150688896776  1.0000
  Zn  Zn2       1.0  0.17220928823463155  0.40658924831503485  0.4094102121086496  1.0000
  C   C25       1.0  0.07432220310296667  0.40391334746618646  0.6726670059155899  1.0000
  C   C26       1.0  0.07378685927509239  0.4092705160112118  0.14615841564779042  1.0000
  C   C27       1.0  0.07404524932340012  0.6437942273528152  0.40354615608616307  1.0000
  C   C28       1.0  0.07406374615862976  0.16938807612355775  0.41527934313353326  1.0000
  O   O2        1.0  0.1483389525169222  0.4115099575635657  0.1998568109657524  1.0000
  O   O3        1.0  0.1487661154816151  0.4016700936772284  0.6189645100083099  1.0000
  O   O4        1.0  0.14854146903321797  0.5953769521283656  0.40164751902016227  1.0000
  O   O5        1.0  0.14856353186799964  0.21780310738138378  0.4171736938793232  1.0000
  O   O6        1.0  0.9995433196724888  0.5953791157277375  0.40165158711307924  1.0000
  O   O7        1.0  0.9997679660253728  0.40167381728023943  0.6189685004389855  1.0000
  O   O8        1.0  0.9993408013669461  0.4115136194608722  0.19985906849719592  1.0000
  O   O9        1.0  0.9995653808238011  0.21780676101234867  0.41717605947941905  1.0000
