data_image0
_chemical_formula_structural       NC5NC4H6C12H9C12H10Zn2C4O8
_chemical_formula_sum              "N2 C37 H25 Zn2 O8"
_cell_length_a       13.854160002989762
_cell_length_b       14.388199552941785
_cell_length_c       14.388129018870242
_cell_angle_alpha    82.87086475722218
_cell_angle_beta     90.8946737700517
_cell_angle_gamma    92.40759118095515

_space_group_name_H-M_alt    "P 1"
_space_group_IT_number       1

loop_
  _space_group_symop_operation_xyz
  'x, y, z'

loop_
  _atom_site_type_symbol
  _atom_site_label
  _atom_site_symmetry_multiplicity
  _atom_site_fract_x
  _atom_site_fract_y
  _atom_site_fract_z
  _atom_site_occupancy
  N   N1        1.0  0.9383641481399148  0.060413141000236925  0.9635262782029635  1.0000
  C   C1        1.0  0.8661867213233534  0.07822561376223411  0.9251784626354538  1.0000
  C   C2        1.0  0.7763969821653781  0.10038483013316357  0.8774723129247872  1.0000
  C   C3        1.0  0.6886692582890016  0.07948517810617918  0.924048340219686  1.0000
  C   C4        1.0  0.601254569979689  0.10038483998727178  0.8774722978566969  1.0000
  C   C5        1.0  0.5110785766775503  0.07822551626124995  0.9251785225932363  1.0000
  N   N2        1.0  0.43859057575692967  0.06041310000375068  0.9635262784131047  1.0000
  C   C6        1.0  0.6016174582261011  0.14257519456395748  0.7843299875604159  1.0000
  C   C7        1.0  0.6893719015133585  0.16486582691881435  0.7376779502179378  1.0000
  C   C8        1.0  0.6896012729215011  0.20751028932045837  0.6370936429320868  1.0000
  C   C9        1.0  0.7766945463786696  0.14257519605306831  0.7843299290962115  1.0000
  H   H1        1.0  0.6884105684116327  0.046758798924862344  0.9961392445545705  1.0000
  H   H2        1.0  0.5338353128080218  0.15808771177181846  0.7481965207104269  1.0000
  H   H3        1.0  0.7561480769376938  0.2521381064607964  0.6214021232308495  1.0000
  H   H4        1.0  0.6264395999415707  0.2521381059821608  0.6214021653759424  1.0000
  H   H5        1.0  0.6863870391626031  0.15091898537233872  0.5911303440989237  1.0000
  H   H6        1.0  0.8446582742505582  0.15808778661910503  0.7481964649113564  1.0000
  C   C10       1.0  0.17657239067428487  0.7869571189304494  0.9653105975066942  1.0000
  C   C11       1.0  0.08023216870707994  0.8076503814971868  0.9803649161968389  1.0000
  C   C12       1.0  0.008631059359131197  0.7360785696991589  0.991689704145726  1.0000
  C   C13       1.0  0.032079987531616  0.6431916300532035  0.988146185209523  1.0000
  C   C14       1.0  0.12788763277057974  0.6207109255169123  0.9730943305685432  1.0000
  C   C15       1.0  0.19974259277022866  0.6932246928118367  0.9617750815918875  1.0000
  C   C16       1.0  0.1528663064926354  0.5218817115796449  0.9691976796876338  1.0000
  C   C17       1.0  0.11157142383497098  0.4491601938917208  0.03226765930019559  1.0000
  C   C18       1.0  0.13510248964647653  0.3561702970018166  0.028626833290518513  1.0000
  C   C19       1.0  0.20039140377796968  0.33386165809223783  0.9617501029226098  1.0000
  C   C20       1.0  0.2416364124968997  0.4064740228680208  0.898658010866648  1.0000
  C   C21       1.0  0.21816198271710707  0.4994739862237493  0.9023504496743027  1.0000
  H   H7        1.0  0.40077756211854576  0.892825688449951  0.930299009014838  1.0000
  H   H8        1.0  0.9345819525481517  0.7527046603504034  0.003007344050608315  1.0000
  H   H9        1.0  0.9750570711799392  0.5890714662887487  0.9959327760791358  1.0000
  H   H10       1.0  0.2739648577608558  0.676348441560444  0.951485707858608  1.0000
  H   H11       1.0  0.06196880465103604  0.4643055961436375  0.08531514216301461  1.0000
  H   H12       1.0  0.10229605460042723  0.3017876400633249  0.07838778904824273  1.0000
  H   H13       1.0  0.30797823041352546  0.1470477041118467  0.8876947157521857  1.0000
  H   H14       1.0  0.29195321186299306  0.39152748933416837  0.8461468920431723  1.0000
  H   H15       1.0  0.25017513469853414  0.553788282084067  0.8520047705790026  1.0000
  C   C22       1.0  0.1845149181570609  0.07140392148317631  0.6893591178211971  1.0000
  C   C23       1.0  0.1526073314599512  0.15974389979015569  0.7043228137642403  1.0000
  C   C24       1.0  0.12898862639494554  0.22540836371171682  0.6285093364158978  1.0000
  C   C25       1.0  0.1368362408701018  0.2039073127875128  0.5370326066372118  1.0000
  C   C26       1.0  0.16849413777514896  0.11601275051660842  0.5202440889348676  1.0000
  C   C27       1.0  0.17674480563398967  0.09304655494962845  0.42290808223691734  1.0000
  C   C28       1.0  0.21422402020469367  0.16014004678237104  0.3518649067213131  1.0000
  C   C29       1.0  0.22203082323307272  0.1385343774389534  0.2602759012977691  1.0000
  C   C30       1.0  0.19244882263786045  0.04941483399310797  0.237701607942715  1.0000
  C   C31       1.0  0.15489795747709856  0.9822876865802915  0.30865409989892445  1.0000
  C   C32       1.0  0.14716498838530315  0.0038710300387043662  0.4002538626441423  1.0000
  C   C33       1.0  0.1922374693568078  0.05013925826208965  0.597017770678911  1.0000
  H   H16       1.0  0.25884327461813145  0.8659383763238514  0.8085516421041608  1.0000
  H   H17       1.0  0.14587216355373767  0.1781518038422285  0.7745933805476202  1.0000
  H   H18       1.0  0.10423484874469047  0.29317786739306917  0.6407130856301879  1.0000
  H   H19       1.0  0.11691335920619794  0.25556699626743967  0.47944430130171245  1.0000
  H   H20       1.0  0.2387419395367152  0.22905351501647114  0.36736971029139465  1.0000
  H   H21       1.0  0.25149674334562366  0.1916788994906653  0.20723574566452974  1.0000
  H   H22       1.0  0.24407178943263108  0.07917016768910834  0.004151555218542488  1.0000
  H   H23       1.0  0.13120939216966485  0.913055034676194  0.293403987600511  1.0000
  H   H24       1.0  0.11679713615032548  0.9511024602789466  0.4531561590740218  1.0000
  H   H25       1.0  0.21800209565407705  0.9827565522130275  0.5846512068201191  1.0000
  Zn  Zn1       1.0  0.08271866473129541  0.06041041960899562  0.9635316918969106  1.0000
  Zn  Zn2       1.0  0.29423583940720066  0.060407893712564935  0.9635285820921324  1.0000
  C   C34       1.0  0.19078544791907637  0.04986151118633875  0.13407726633130956  1.0000
  C   C35       1.0  0.18617141847822594  0.07095797338465704  0.792983091611867  1.0000
  C   C36       1.0  0.19583028487300047  0.23063422763480723  0.9587026116933908  1.0000
  C   C37       1.0  0.1811264613422845  0.89018413614542  0.968357803311086  1.0000
  O   O1        1.0  0.26699684364313736  0.07080328801513504  0.8277590901262832  1.0000
  O   O2        1.0  0.27049662967474175  0.05001358773876419  0.09929864335753824  1.0000
  O   O3        1.0  0.27456933128876976  0.19598980353649645  0.9576823626449469  1.0000
  O   O4        1.0  0.26292406912986444  0.9248270816869336  0.9693753007926118  1.0000
  O   O5        1.0  0.1140303628281738  0.19599123163669893  0.9576849731925745  1.0000
  O   O6        1.0  0.10995770921570447  0.05001613663180793  0.09930119684000971  1.0000
  O   O7        1.0  0.10645790559345243  0.0708058494718382  0.8277605213081001  1.0000
  O   O8        1.0  0.10238513179896658  0.9248296336761785  0.9693768020168351  1.0000
