data_image0
_chemical_formula_structural       NC8NH4C10H6C6NCH8Zn2C4O8
_chemical_formula_sum              "N3 C29 H18 Zn2 O8"
_cell_length_a       13.859017124695912
_cell_length_b       9.275150299802176
_cell_length_c       9.274690524155616
_cell_angle_alpha    85.73181374548483
_cell_angle_beta     89.68734820513919
_cell_angle_gamma    89.4839206584006

_space_group_name_H-M_alt    "P 1"
_space_group_IT_number       1

loop_
  _space_group_symop_operation_xyz
  'x, y, z'

loop_
  _atom_site_type_symbol
  _atom_site_label
  _atom_site_symmetry_multiplicity
  _atom_site_fract_x
  _atom_site_fract_y
  _atom_site_fract_z
  _atom_site_occupancy
  N   N1        1.0  0.9049928675421306  0.565113684824639  0.40131264411851  1.0000
  C   C1        1.0  0.8329837718969543  0.5417542333710815  0.34528464125390856  1.0000
  C   C2        1.0  0.7434087059903832  0.5126984853672316  0.27559300413869803  1.0000
  C   C3        1.0  0.6553746584972622  0.5410248854937264  0.343533578089144  1.0000
  C   C4        1.0  0.5681783809088782  0.5126997066821448  0.27559241794421485  1.0000
  C   C5        1.0  0.5691986822617973  0.4560404421647679  0.1396898232679069  1.0000
  C   C6        1.0  0.6570485581842898  0.4278229165151455  0.0720107716865952  1.0000
  C   C7        1.0  0.7440640508926358  0.45603810194223704  0.13969101482683688  1.0000
  C   C8        1.0  0.47774392945463096  0.5417551559916862  0.34528413803132496  1.0000
  N   N2        1.0  0.40504399199156005  0.5651140056934613  0.40131242630078967  1.0000
  H   H1        1.0  0.6547261188178854  0.5848813518617234  0.4487254375642211  1.0000
  H   H2        1.0  0.5022329337363368  0.433746479239111  0.08621314274578773  1.0000
  H   H3        1.0  0.6576958459776374  0.3840560181386261  0.9670319392344449  1.0000
  H   H4        1.0  0.8116891690375525  0.43374204607164835  0.08621534534860409  1.0000
  C   C9        1.0  0.15756000525720504  0.14142937143590495  0.4037253581539828  1.0000
  C   C10       1.0  0.2087060822224185  0.22253053035545237  0.29468756859054523  1.0000
  C   C11       1.0  0.2515977144768726  0.15538173574137382  0.18010862514034653  1.0000
  C   C12       1.0  0.2437796629343556  0.006153020555647927  0.17309164234001773  1.0000
  C   C13       1.0  0.1947425300765353  0.9236023733731127  0.28148169128371503  1.0000
  C   C14       1.0  0.15248607535519887  0.9887873255310732  0.398912263727645  1.0000
  C   C15       1.0  0.30276474226849404  0.24020328958269865  0.06857779795402674  1.0000
  C   C16       1.0  0.3456044572741908  0.3112439528381057  0.9752032494588468  1.0000
  C   C17       1.0  0.39576777654557005  0.394437546746484  0.8658657254360045  1.0000
  C   C18       1.0  0.43859923188785666  0.46547288394940184  0.7725090761854627  1.0000
  H   H5        1.0  0.11095878078456557  0.4057491123073694  0.6325914752367925  1.0000
  H   H6        1.0  0.2133338581273394  0.3389983158222938  0.296914078672492  1.0000
  H   H7        1.0  0.27645265137325103  0.9532346728639686  0.08443161406606237  1.0000
  H   H8        1.0  0.19181471134610462  0.8075480446294884  0.27525931692504857  1.0000
  H   H9        1.0  0.08852030925331755  0.8613028710632872  0.7413453559677052  1.0000
  H   H10       1.0  0.47620882232243966  0.5278479421922215  0.6905342273756219  1.0000
  C   C19       1.0  0.15659015096873397  0.5614144230760789  0.9780924959794635  1.0000
  C   C20       1.0  0.23460943169697557  0.6238261140205914  0.04647533158075201  1.0000
  C   C21       1.0  0.30760134153413854  0.6971646917761826  0.9655609335588942  1.0000
  C   C22       1.0  0.30182090694095964  0.7078220310406333  0.8146039398399458  1.0000
  C   C23       1.0  0.22586578772914856  0.6445507627796823  0.7450153007745559  1.0000
  C   C24       1.0  0.15345592366381022  0.5688022919588016  0.8245450796845324  1.0000
  N   N3        1.0  0.3875067884175421  0.76263965213259  0.03391078724649744  1.0000
  C   C25       1.0  0.400632084428602  0.7575607687935153  0.1902211787133814  1.0000
  H   H11       1.0  0.04749649644178233  0.38750047172099733  0.272079167970968  1.0000
  H   H12       1.0  0.3570606267037624  0.764300362120831  0.7502245553980846  1.0000
  H   H13       1.0  0.22508977969724  0.6519948222405888  0.6279003029122014  1.0000
  H   H14       1.0  0.0013804946198316935  0.5011156718378014  0.5494914244725915  1.0000
  H   H15       1.0  0.439681123381948  0.8166088800770857  0.9689700681714619  1.0000
  H   H16       1.0  0.4678160960443487  0.8147285230388601  0.2155747482370829  1.0000
  H   H17       1.0  0.40671521334912586  0.6435001547511672  0.23509370679594066  1.0000
  H   H18       1.0  0.3387682295439636  0.8116495819306613  0.2411159865691681  1.0000
  Zn  Zn1       1.0  0.04929681560054222  0.5651099980437295  0.40132093036630834  1.0000
  Zn  Zn2       1.0  0.26074006300246383  0.5651060262446642  0.40131602766412144  1.0000
  C   C26       1.0  0.1540806518137725  0.5616580983308272  0.6645800974580087  1.0000
  C   C27       1.0  0.15595852431854285  0.5685597475850328  0.13805699163519347  1.0000
  C   C28       1.0  0.15346147939432542  0.8285685301583416  0.3940788607282717  1.0000
  C   C29       1.0  0.15657763468228958  0.3016475830001588  0.4085583150506622  1.0000
  O   O1        1.0  0.23598819277829408  0.5709499820904056  0.19174071287400096  1.0000
  O   O2        1.0  0.23453152372196784  0.559263757271041  0.6108922464863467  1.0000
  O   O3        1.0  0.23403044691857589  0.7747973196149845  0.3924605754897845  1.0000
  O   O4        1.0  0.23648919776875266  0.35541642912568566  0.4101722757515218  1.0000
  O   O5        1.0  0.07354760867906873  0.7747995951655682  0.39246468227299136  1.0000
  O   O6        1.0  0.07404867538297633  0.5592677655818445  0.6108962665779059  1.0000
  O   O7        1.0  0.07550535122053594  0.5709539250000424  0.1917430004778895  1.0000
  O   O8        1.0  0.0760063558687436  0.355420362658959  0.41017467146853503  1.0000
