data_image0
_chemical_formula_structural       NC5N2C2NH4C6ClH5C6H6Zn2C4O8
_chemical_formula_sum              "N4 C23 H15 Cl1 Zn2 O8"
_cell_length_a       13.87973921873968
_cell_length_b       9.276545438789551
_cell_length_c       10.681121600428286
_cell_angle_alpha    85.59384611870172
_cell_angle_beta     89.99986795653135
_cell_angle_gamma    89.40960813042831

_space_group_name_H-M_alt    "P 1"
_space_group_IT_number       1

loop_
  _space_group_symop_operation_xyz
  'x, y, z'

loop_
  _atom_site_type_symbol
  _atom_site_label
  _atom_site_symmetry_multiplicity
  _atom_site_fract_x
  _atom_site_fract_y
  _atom_site_fract_z
  _atom_site_occupancy
  N   N1        1.0  0.896368421302427  0.5780585643070018  0.6194688395520764  1.0000
  C   C1        1.0  0.8230904111785723  0.6025910448696252  0.5702769229056508  1.0000
  C   C2        1.0  0.7320817791664843  0.6330627842730212  0.5091752464629841  1.0000
  C   C3        1.0  0.6458533317373234  0.6023706401683804  0.5727502976422757  1.0000
  C   C4        1.0  0.5592023784585898  0.6330627196535744  0.5091752810955998  1.0000
  C   C5        1.0  0.46861329043837985  0.6025909001892211  0.5702768331540959  1.0000
  N   N2        1.0  0.39567299032479153  0.5780585396872242  0.6194688299890699  1.0000
  N   N3        1.0  0.5604370706127492  0.6916956846797955  0.38866123585996376  1.0000
  C   C6        1.0  0.6450277354883647  0.7223136315237391  0.32859873620521174  1.0000
  C   C7        1.0  0.6446113761803954  0.782821838306059  0.19506044033037043  1.0000
  N   N4        1.0  0.7300399695955425  0.6916956380226482  0.3886612451760245  1.0000
  H   H1        1.0  0.646176286028213  0.5554564612799047  0.6689226283895128  1.0000
  H   H2        1.0  0.7091459740518319  0.8506842531163326  0.1756386106361767  1.0000
  H   H3        1.0  0.6452316825733616  0.6928916684348025  0.13227321299596387  1.0000
  H   H4        1.0  0.5791411679396601  0.8506821896793323  0.17563794411100586  1.0000
  C   C8        1.0  0.14893305804259982  0.1546233991425645  0.6192624051044797  1.0000
  C   C9        1.0  0.14928870414709228  0.23827487671641578  0.5036760566762859  1.0000
  C   C10       1.0  0.14087920234020057  0.17319549485610944  0.3906054655901836  1.0000
  C   C11       1.0  0.13191499240690496  0.02360435302077612  0.39138165963269717  1.0000
  C   C12       1.0  0.1330456112658318  0.9384144601659826  0.504846419196717  1.0000
  C   C13       1.0  0.14311766356726352  0.001482627278873281  0.6196861118471599  1.0000
  Cl  Cl1       1.0  0.14012153440083486  0.2798169145619205  0.24763817200772453  1.0000
  H   H5        1.0  0.19822320794733872  0.4175823996740651  0.8161473649546811  1.0000
  H   H6        1.0  0.15380296612827982  0.3549954421318109  0.5011966850572586  1.0000
  H   H7        1.0  0.1249875504076785  0.9728827614782942  0.30390349874566325  1.0000
  H   H8        1.0  0.1283352317297195  0.8221539952306516  0.5025436562658602  1.0000
  H   H9        1.0  0.11083637490080633  0.7027470465753746  0.8221849450503369  1.0000
  C   C14       1.0  0.14602537059129084  0.5780529736525168  0.25172902489482074  1.0000
  C   C15       1.0  0.07761655336137549  0.4978580263545065  0.19026640970023334  1.0000
  C   C16       1.0  0.07761649257371794  0.4978581188124465  0.05938426979359624  1.0000
  C   C17       1.0  0.14602529436632516  0.5780530443358606  0.9872194606065274  1.0000
  C   C18       1.0  0.21437765076925763  0.6581815340389585  0.04868146220105097  1.0000
  C   C19       1.0  0.2143776385962708  0.658181511679794  0.17957376085291027  1.0000
  H   H10       1.0  0.2152048134732747  0.6591521004651962  0.5450273472904109  1.0000
  H   H11       1.0  0.023994492961029186  0.4349974364794514  0.24327179091091347  1.0000
  H   H12       1.0  0.02399447237342933  0.4349975043536345  0.01476776171933936  1.0000
  H   H13       1.0  0.2680067130206836  0.7210504073213826  0.9957204205028498  1.0000
  H   H14       1.0  0.26800666482560054  0.721050356773598  0.22414478796196424  1.0000
  H   H15       1.0  0.21520511761811245  0.6591515980901452  0.6830983213256379  1.0000
  Zn  Zn1       1.0  0.04045696194128978  0.5780546932097725  0.6194760689117079  1.0000
  Zn  Zn2       1.0  0.2515845164262125  0.5780505990932064  0.6194718605157099  1.0000
  C   C20       1.0  0.14606263184115179  0.5723086527813259  0.8481931615003033  1.0000
  C   C21       1.0  0.1459811395390198  0.5837984588415579  0.3907548917043642  1.0000
  C   C22       1.0  0.14421191930143773  0.8414081733252762  0.6146157145550576  1.0000
  C   C23       1.0  0.14783179193217788  0.3146972058900237  0.624332404549508  1.0000
  O   O1        1.0  0.22608814501879237  0.5857188517697923  0.4374116424109552  1.0000
  O   O2        1.0  0.22619656252627676  0.5703840647242776  0.8015328556832007  1.0000
  O   O3        1.0  0.22470100866465015  0.787685330812456  0.6129174154473773  1.0000
  O   O4        1.0  0.22758362676605826  0.3684175959979701  0.6260269887572343  1.0000
  O   O5        1.0  0.0644577795539607  0.7876876963079762  0.612920940665033  1.0000
  O   O6        1.0  0.06595332151465971  0.5703881626303486  0.8015363149958085  1.0000
  O   O7        1.0  0.06584490441639468  0.5857228994279391  0.4374135960758381  1.0000
  O   O8        1.0  0.06734038623053751  0.36842163334272776  0.6260290363065113  1.0000
