data_image0
_chemical_formula_structural       NC12NC2H8C7NC2OH7C9NC2H9Zn2C4O8
_chemical_formula_sum              "N4 C38 H24 O9 Zn2"
_cell_length_a       17.80743265337812
_cell_length_b       10.300333997791364
_cell_length_c       9.273598843048156
_cell_angle_alpha    85.11565674869455
_cell_angle_beta     91.13569736745053
_cell_angle_gamma    89.43519355652523

_space_group_name_H-M_alt    "P 1"
_space_group_IT_number       1

loop_
  _space_group_symop_operation_xyz
  'x, y, z'

loop_
  _atom_site_type_symbol
  _atom_site_label
  _atom_site_symmetry_multiplicity
  _atom_site_fract_x
  _atom_site_fract_y
  _atom_site_fract_z
  _atom_site_occupancy
  N   N1        1.0  0.7129644953765382  0.4173363550348603  0.4459186807649886  1.0000
  C   C1        1.0  0.6624169706434295  0.44742081545837986  0.3695857783625567  1.0000
  C   C2        1.0  0.5995308008126108  0.4848436723522953  0.2746372568146913  1.0000
  C   C3        1.0  0.6117593405191821  0.5398332380311398  0.13394684450379013  1.0000
  C   C4        1.0  0.5507710288402461  0.5757342006888473  0.041660550784807134  1.0000
  C   C5        1.0  0.47740248993556883  0.5569141127690733  0.08933143507134833  1.0000
  C   C6        1.0  0.46419532134737446  0.501802157013077  0.23054201390552007  1.0000
  C   C7        1.0  0.5260410145698075  0.4659045748332242  0.32280996099875625  1.0000
  C   C8        1.0  0.38624723915765685  0.4818460491543088  0.28139104455655284  1.0000
  C   C9        1.0  0.3669579045859589  0.508055396639959  0.42255481743383805  1.0000
  C   C10       1.0  0.2935592588478589  0.48927656807034275  0.4702707733501011  1.0000
  C   C11       1.0  0.23850365963877063  0.44402770288106586  0.37775404618624875  1.0000
  C   C12       1.0  0.1629628612920521  0.4246853279831916  0.4270266085296279  1.0000
  N   N2        1.0  0.10223340855677833  0.40913535995569505  0.4666383590299841  1.0000
  C   C13       1.0  0.25709935094076375  0.41764528504279447  0.23719358160566206  1.0000
  C   C14       1.0  0.3304461550888358  0.43644086252542924  0.18919330134225798  1.0000
  H   H1        1.0  0.6683613527218223  0.554920450243737  0.09568303715681625  1.0000
  H   H2        1.0  0.5603562118327022  0.6185792793835176  0.933015778845455  1.0000
  H   H3        1.0  0.431022806390546  0.5870513189462094  0.016451876999511453  1.0000
  H   H4        1.0  0.5171547172279144  0.4216752279923227  0.43131643087004523  1.0000
  H   H5        1.0  0.4083743385212247  0.5447290144406579  0.49541600668010916  1.0000
  H   H6        1.0  0.2797275562389183  0.5103684209644108  0.5791721492544222  1.0000
  H   H7        1.0  0.21496439353704902  0.3822357013957977  0.1647912640991953  1.0000
  H   H8        1.0  0.3437482726761103  0.41381122819750477  0.08062894241718466  1.0000
  C   C15       1.0  0.9076029877601827  0.03189046333411283  0.4562880306507249  1.0000
  C   C16       1.0  0.8883071209238508  0.04256029745646939  0.3081497422890809  1.0000
  C   C17       1.0  0.8785717549703113  0.9308551276516338  0.23340846028037054  1.0000
  C   C18       1.0  0.8883051073996329  0.8072688104027894  0.30813695774931515  1.0000
  C   C19       1.0  0.9076020839924476  0.794570995900036  0.45628182513409876  1.0000
  C   C20       1.0  0.9171435478896642  0.9074527288083108  0.5295309586336896  1.0000
  C   C21       1.0  0.858262912341877  0.9438289190278208  0.07748173650304468  1.0000
  N   N3        1.0  0.8478501377932466  0.8415567458431477  0.9975306544653573  1.0000
  C   C22       1.0  0.830545123647983  0.8981629556689726  0.8646633369332739  1.0000
  C   C23       1.0  0.8310367175092145  0.03133298165659192  0.8684405849356219  1.0000
  O   O1        1.0  0.8483053161784929  0.056393391321468915  0.0010292037513013343  1.0000
  H   H9        1.0  0.9149473415615496  0.3552532151627884  0.5127250469066613  1.0000
  H   H10       1.0  0.8808168915377186  0.13797221097047396  0.25064223277558395  1.0000
  H   H11       1.0  0.8808302639248348  0.7208753175712643  0.25075186684071094  1.0000
  H   H12       1.0  0.9320272850506602  0.8984391219889589  0.6437960148668396  1.0000
  H   H13       1.0  0.9149531098640548  0.4623028893894397  0.512748704062981  1.0000
  H   H14       1.0  0.8183522228471755  0.845513105414779  0.7710452011188726  1.0000
  H   H15       1.0  0.8194118756996224  0.10379881989957672  0.7791865556721254  1.0000
  C   C24       1.0  0.9091171238234426  0.41616958686993044  0.032526725596351495  1.0000
  C   C25       1.0  0.8589131457742168  0.4992292539756227  0.09625559445980003  1.0000
  C   C26       1.0  0.8050045991429534  0.5721555563193808  0.012619620132132026  1.0000
  C   C27       1.0  0.7998289170944821  0.5640963016542169  0.8626237967477972  1.0000
  C   C28       1.0  0.8506001662882512  0.4829731324457033  0.7975157091048759  1.0000
  C   C29       1.0  0.9060878965950596  0.41029191940670473  0.8800431133202133  1.0000
  C   C30       1.0  0.7420110402432972  0.6412480615657611  0.773947112445696  1.0000
  C   C31       1.0  0.7596828705738758  0.7036581115843878  0.638326772148917  1.0000
  C   C32       1.0  0.7044129236960667  0.7757575551047067  0.5568684194529583  1.0000
  N   N4        1.0  0.6338663684074597  0.7854950620187638  0.6084364689012793  1.0000
  C   C33       1.0  0.6149838290217579  0.7263667173817356  0.7390831816424428  1.0000
  C   C34       1.0  0.6685239374589927  0.6533969149043335  0.8241554408920897  1.0000
  H   H16       1.0  0.021196529572902183  0.3221794355369476  0.32680989711912267  1.0000
  H   H17       1.0  0.8602448289148129  0.5058050428090313  0.21224855104364204  1.0000
  H   H18       1.0  0.7674114277037914  0.6354453705507035  0.06551943473751232  1.0000
  H   H19       1.0  0.8473849553652556  0.47718057366611344  0.6814331574056874  1.0000
  H   H20       1.0  0.0748802950559202  0.2777710472506938  0.7959366461801136  1.0000
  H   H21       1.0  0.8158716880099165  0.6982916287112132  0.5965472414317867  1.0000
  H   H22       1.0  0.7177153081524437  0.8243375462828685  0.4526091822817087  1.0000
  H   H23       1.0  0.5582660792715823  0.7357321047021002  0.7769101599361576  1.0000
  H   H24       1.0  0.6523675752594195  0.6056027471187437  0.9272299201425342  1.0000
  Zn  Zn1       1.0  0.8252990686577015  0.41496620024665476  0.45190625147831653  1.0000
  Zn  Zn2       1.0  0.9898987907244644  0.4114948403110272  0.46066255887519253  1.0000
  C   C35       1.0  0.9066588379791508  0.4062296039011446  0.7198443353920763  1.0000
  C   C36       1.0  0.9085408183186408  0.4202330362851786  0.19272471220109888  1.0000
  C   C37       1.0  0.9076189231507208  0.6504481422147445  0.4505323991357055  1.0000
  C   C38       1.0  0.9075806767076058  0.17601293841666638  0.4620367224167749  1.0000
  O   O2        1.0  0.9708121416391722  0.42027373863425455  0.24981159300165712  1.0000
  O   O3        1.0  0.9693148966148905  0.4035532429017986  0.6694028739074032  1.0000
  O   O4        1.0  0.970089330115327  0.6007628085076269  0.451931535146854  1.0000
  O   O5        1.0  0.9700376523587105  0.22306418425298255  0.4672828205763002  1.0000
  O   O6        1.0  0.845160150853676  0.6033968574907703  0.4452859867815204  1.0000
  O   O7        1.0  0.844385717622924  0.40618885262592536  0.6627572485870767  1.0000
  O   O8        1.0  0.8458829688982904  0.42290931513633434  0.24316423273343932  1.0000
  O   O9        1.0  0.8451084792280741  0.22569975071657722  0.4606355684983006  1.0000
