data_image0
_chemical_formula_structural       NC12NC2H8C7NH5C7ONH5Zn2C4O8
_chemical_formula_sum              "N4 C32 H18 O9 Zn2"
_cell_length_a       19.240039667572717
_cell_length_b       9.275154477615127
_cell_length_c       9.27304215883966
_cell_angle_alpha    86.38948304707893
_cell_angle_beta     90.09323012154856
_cell_angle_gamma    89.43370810513201

_space_group_name_H-M_alt    "P 1"
_space_group_IT_number       1

loop_
  _space_group_symop_operation_xyz
  'x, y, z'

loop_
  _atom_site_type_symbol
  _atom_site_label
  _atom_site_symmetry_multiplicity
  _atom_site_fract_x
  _atom_site_fract_y
  _atom_site_fract_z
  _atom_site_occupancy
  N   N1        1.0  0.6457965679605558  0.5612154995350835  0.4163100282608847  1.0000
  C   C1        1.0  0.5856481986325606  0.5612155918169462  0.41630993769114294  1.0000
  C   C2        1.0  0.5108301607595109  0.5612157204279945  0.4163097858162429  1.0000
  C   C3        1.0  0.4747814922191345  0.49085170968182285  0.5308012221500764  1.0000
  C   C4        1.0  0.4021114007875596  0.49072961638447765  0.5308967839913901  1.0000
  C   C5        1.0  0.36449792514733287  0.5612158205385863  0.41630953352216515  1.0000
  C   C6        1.0  0.4012601270643669  0.631702234561359  0.30172249980313626  1.0000
  C   C7        1.0  0.4739314735412534  0.6315798812357618  0.3018181965639535  1.0000
  C   C8        1.0  0.2872928350457869  0.561215732092832  0.41630942727141074  1.0000
  C   C9        1.0  0.2507378745301504  0.4359591246921864  0.4622794666594873  1.0000
  C   C10       1.0  0.1780665466248895  0.4360767423104595  0.4621785785126322  1.0000
  C   C11       1.0  0.1409605488550683  0.5612155893924163  0.4163094943029141  1.0000
  C   C12       1.0  0.06614251250400889  0.5612154660145401  0.4163097697875857  1.0000
  N   N2        1.0  0.005994196037539197  0.5612154231240225  0.41631000093161985  1.0000
  C   C13       1.0  0.1768020614979154  0.6863545200429625  0.3704403517259689  1.0000
  C   C14       1.0  0.24947211711000947  0.686472335738672  0.37033928391397786  1.0000
  H   H1        1.0  0.50282598942294  0.436382268795722  0.6201947560301828  1.0000
  H   H2        1.0  0.375344415276248  0.4371592540600142  0.6215319615350889  1.0000
  H   H3        1.0  0.37384058160311046  0.6852726263266414  0.21108726594264549  1.0000
  H   H4        1.0  0.5013167485552718  0.6860492140269674  0.21242496834508606  1.0000
  H   H5        1.0  0.27832784813753886  0.33734007039647174  0.4964770003840915  1.0000
  H   H6        1.0  0.1508444914104747  0.33846804161858035  0.49752659293918294  1.0000
  H   H7        1.0  0.1485942934061057  0.7839631936631657  0.33509235334013904  1.0000
  H   H8        1.0  0.2760686218647982  0.7850914774159217  0.33614170084855366  1.0000
  C   C15       1.0  0.8279087463355737  0.13780862042756015  0.4146420205373743  1.0000
  C   C16       1.0  0.8087375962558626  0.21964977970275634  0.2875532399840113  1.0000
  C   C17       1.0  0.7839180788808682  0.15234430199698168  0.1671965427762631  1.0000
  C   C18       1.0  0.7778614618122097  0.002279727626903311  0.17251116505682895  1.0000
  C   C19       1.0  0.7976746557931473  0.919200396242498  0.2967030578769232  1.0000
  C   C20       1.0  0.8238887566378672  0.9846113894413928  0.41799043520808665  1.0000
  C   C21       1.0  0.7638211276179796  0.23775114817918344  0.03857601113201835  1.0000
  N   N3        1.0  0.7476687513396612  0.30640269330638104  0.9351980495428748  1.0000
  H   H9        1.0  0.8416452568274392  0.21820444696735256  0.7684552415911097  1.0000
  H   H10       1.0  0.8115729017143435  0.3365641552567461  0.28327640314455227  1.0000
  H   H11       1.0  0.7584157632751001  0.9491793423289435  0.08000948431637764  1.0000
  H   H12       1.0  0.7940249021179719  0.8027314651997859  0.29657620678838276  1.0000
  H   H13       1.0  0.8360864737575816  0.6883368448822668  0.6550553568914028  1.0000
  C   C22       1.0  0.8255875515763116  0.5567538926545039  0.9930336809159565  1.0000
  C   C23       1.0  0.7617070046853436  0.5659353587604232  0.06575080591787906  1.0000
  C   C24       1.0  0.6990153531219884  0.5890632584944758  0.9895861076286931  1.0000
  C   C25       1.0  0.7005978430568764  0.6012681568853429  0.8381356666755071  1.0000
  C   C26       1.0  0.7633506241680508  0.589969779890083  0.7644007407093487  1.0000
  C   C27       1.0  0.826209968869518  0.5656660555653504  0.8395987593369423  1.0000
  C   C28       1.0  0.6325520786663337  0.5990168915704425  0.06948549935619527  1.0000
  O   O1        1.0  0.6281736411148685  0.5432206953531677  0.1966354966704673  1.0000
  N   N4        1.0  0.5730848509920378  0.6721650396698777  0.006238286362139303  1.0000
  H   H14       1.0  0.993954386366916  0.6118277591827103  0.0932114721864794  1.0000
  H   H15       1.0  0.6532661315604559  0.6155240514753006  0.7755689130230734  1.0000
  H   H16       1.0  0.9397265449072506  0.5960712383136113  0.5567971788371975  1.0000
  H   H17       1.0  0.5761364519380159  0.7344273886763385  0.9088186508671865  1.0000
  H   H18       1.0  0.5261088447565218  0.6720027582495097  0.06248011552694121  1.0000
  Zn  Zn1       1.0  0.7497418562826856  0.5612117155937513  0.41631831658000296  1.0000
  Zn  Zn2       1.0  0.9020489909686572  0.5612075697167804  0.4163134298585195  1.0000
  C   C29       1.0  0.8261180180075967  0.5582375271334932  0.679557096634684  1.0000
  C   C30       1.0  0.8256744839005112  0.5641835788644931  0.15307479841941002  1.0000
  C   C31       1.0  0.8246408167768557  0.8244871518705876  0.4116135390832584  1.0000
  C   C32       1.0  0.8271516414396208  0.2979322226443102  0.42101842597095085  1.0000
  O   O2        1.0  0.8835034529022322  0.5666691858171906  0.20678418008932462  1.0000
  O   O3        1.0  0.8838866449439385  0.5557476814713516  0.6258435868224013  1.0000
  O   O4        1.0  0.8826930082018066  0.7707476364323456  0.4094772743075543  1.0000
  O   O5        1.0  0.8846970375438338  0.35166924003411415  0.4231503845701805  1.0000
  O   O6        1.0  0.7670937577325458  0.7707500452793217  0.4094813618624338  1.0000
  O   O7        1.0  0.7682873861913463  0.5557518218043205  0.6258476043712569  1.0000
  O   O8        1.0  0.7679041931602822  0.5666732576614966  0.2067864644361077  1.0000
  O   O9        1.0  0.769097777927451  0.35167330270340713  0.42315277694504666  1.0000
