data_image0
_chemical_formula_structural       NC9NC4H8C8H6C7ONH7Zn2C4O8
_chemical_formula_sum              "N3 C32 H21 O9 Zn2"
_cell_length_a       16.32274767691083
_cell_length_b       9.27514070457351
_cell_length_c       10.297855452804894
_cell_angle_alpha    85.67857769171053
_cell_angle_beta     89.4600573046752
_cell_angle_gamma    90.11802364943966

_space_group_name_H-M_alt    "P 1"
_space_group_IT_number       1

loop_
  _space_group_symop_operation_xyz
  'x, y, z'

loop_
  _atom_site_type_symbol
  _atom_site_label
  _atom_site_symmetry_multiplicity
  _atom_site_fract_x
  _atom_site_fract_y
  _atom_site_fract_z
  _atom_site_occupancy
  N   N1        1.0  0.7808187191817817  0.5681777264045513  0.559852471810578  1.0000
  C   C1        1.0  0.728187043951324  0.5155285256987415  0.5054396563296355  1.0000
  C   C2        1.0  0.6627656126967119  0.4501378085304226  0.43785850442404417  1.0000
  C   C3        1.0  0.673815288098812  0.36069497823093966  0.345415221921215  1.0000
  C   C4        1.0  0.594204170180762  0.31704640137404416  0.3003059659208571  1.0000
  C   C5        1.0  0.5356304394653637  0.3809250846325673  0.36632981932540076  1.0000
  C   C6        1.0  0.44559799459538374  0.36404252153984895  0.34888383739547435  1.0000
  C   C7        1.0  0.3904208571695743  0.43849725500581355  0.4258315076950776  1.0000
  C   C8        1.0  0.30563118575721  0.42406860535391666  0.41092106650452087  1.0000
  C   C9        1.0  0.2500549971637443  0.5008122145358199  0.49023348198627104  1.0000
  N   N2        1.0  0.20539061197135414  0.5625014479997865  0.5539872317088683  1.0000
  C   C10       1.0  0.2749649360996879  0.33506480582810216  0.3189391343176547  1.0000
  C   C11       1.0  0.32882070981872  0.26070869297400545  0.24209372818164288  1.0000
  C   C12       1.0  0.4134493992134698  0.2747487015512944  0.2566023943674991  1.0000
  C   C13       1.0  0.5739083574222309  0.47406725914634024  0.46259392432181673  1.0000
  H   H1        1.0  0.7325272059635007  0.32591488007242053  0.3094661303478412  1.0000
  H   H2        1.0  0.5854977881866845  0.24394488771209846  0.22475200158100406  1.0000
  H   H3        1.0  0.41292402231249287  0.5079797249751874  0.4976390190122722  1.0000
  H   H4        1.0  0.20950633777584324  0.32317858751977435  0.30665624814373693  1.0000
  H   H5        1.0  0.304925039256891  0.19185595630597188  0.17093727981435514  1.0000
  H   H6        1.0  0.4528961748006758  0.2152685974127029  0.19513141041017182  1.0000
  H   H7        1.0  0.5568972635356572  0.4354566765426753  0.5640350081890098  1.0000
  H   H8        1.0  0.557809511580771  0.5896098728237411  0.44066568913595333  1.0000
  C   C14       1.0  0.9906200123810225  0.14193233860891355  0.5560457932687743  1.0000
  C   C15       1.0  0.0023286409883376256  0.22525633852978166  0.4373969753644087  1.0000
  C   C16       1.0  0.02118128533732433  0.15972682297703877  0.3233049016077556  1.0000
  C   C17       1.0  0.028776252861958836  0.00969456027427373  0.3256693056276059  1.0000
  C   C18       1.0  0.0160185808443798  0.9248044411580817  0.4422038111812823  1.0000
  C   C19       1.0  0.9955970823915624  0.9887355901211331  0.5578050501513556  1.0000
  C   C20       1.0  0.04874691980218237  0.9424003855337013  0.2079310967806982  1.0000
  C   C21       1.0  0.06546804496494185  0.8860430306386948  0.10935894697705284  1.0000
  H   H9        1.0  0.003991891181379209  0.21815474334653984  0.875021436855836  1.0000
  H   H10       1.0  0.9988062497798024  0.34212960288896843  0.43346710859688803  1.0000
  H   H11       1.0  0.03063712713059741  0.22637062718864476  0.23337864221365967  1.0000
  H   H12       1.0  0.020148405616744688  0.808142048165947  0.4419863027523505  1.0000
  H   H13       1.0  0.0014559230998452146  0.6900608399687611  0.7727614590129592  1.0000
  H   H14       1.0  0.08014560412134819  0.8365714149769091  0.02283330095473746  1.0000
  C   C22       1.0  0.9931415371574664  0.5654768633917424  0.17548324816721417  1.0000
  C   C23       1.0  0.9095475011872521  0.6013571416688641  0.1733239701591025  1.0000
  C   C24       1.0  0.8669606572229165  0.6183163127182274  0.055230903800712605  1.0000
  C   C25       1.0  0.9094459828189139  0.6010341259527594  0.9380917598542888  1.0000
  C   C26       1.0  0.9930755682498801  0.5651910200927122  0.9383675458941405  1.0000
  C   C27       1.0  0.03432443013954134  0.5473150408544256  0.0575317810889322  1.0000
  C   C28       1.0  0.778732223703271  0.6565546113035549  0.0555257614859086  1.0000
  O   O1        1.0  0.7487781485576152  0.7184832953734296  0.14988189423665843  1.0000
  N   N3        1.0  0.7261339045393255  0.6231608253640306  0.9515547441512866  1.0000
  H   H15       1.0  0.15120173695475625  0.4981790617077062  0.3867963548743618  1.0000
  H   H16       1.0  0.8772331521101607  0.6149356645066082  0.2639564569477677  1.0000
  H   H17       1.0  0.8780742609945288  0.618080487898333  0.846169817468105  1.0000
  H   H18       1.0  0.09875064349572726  0.519658131451875  0.05844255572925983  1.0000
  H   H19       1.0  0.15145767891529194  0.4997135718436541  0.7314547876562623  1.0000
  H   H20       1.0  0.6651596735167701  0.6570052841616509  0.9513819644999253  1.0000
  H   H21       1.0  0.7452183020627989  0.5571220786420952  0.8794614531385263  1.0000
  Zn  Zn1       1.0  0.9033409789970529  0.5665358024686313  0.5581673836031482  1.0000
  Zn  Zn2       1.0  0.08286828786770872  0.5641315362613696  0.555682936559371  1.0000
  C   C29       1.0  0.9930524564692363  0.5595011377503529  0.7941541835312516  1.0000
  C   C30       1.0  0.9931587815097506  0.571167993921806  0.31969624077157355  1.0000
  C   C31       1.0  0.9946525572982187  0.828673744338451  0.5522963790559687  1.0000
  C   C32       1.0  0.9915586092330883  0.30199365583361804  0.5615541117477298  1.0000
  O   O2        1.0  0.06129421000276202  0.572159292545654  0.3671525907182698  1.0000
  O   O3        1.0  0.06117409506915661  0.5566839691290062  0.7448118195869671  1.0000
  O   O4        1.0  0.06246527818717152  0.7740442648948054  0.5495099471137119  1.0000
  O   O5        1.0  0.060002965693280556  0.3547990079510366  0.5624543666673576  1.0000
  O   O6        1.0  0.9262062399076303  0.7758683316009948  0.5513959543361522  1.0000
  O   O7        1.0  0.924915066973446  0.558509768157315  0.7466977611495245  1.0000
  O   O8        1.0  0.925035181801251  0.5739850419137684  0.3690369704751364  1.0000
  O   O9        1.0  0.9237439374193864  0.35662474696999985  0.5643388437893826  1.0000
