data_image0
_chemical_formula_structural       NC5NC4H6C7NH5C6H6Zn2C4O8
_chemical_formula_sum              "N3 C26 H17 Zn2 O8"
_cell_length_a       13.854160002989762
_cell_length_b       9.275154477615127
_cell_length_c       10.681121600428288
_cell_angle_alpha    85.78691594316618
_cell_angle_beta     89.99987030852816
_cell_angle_gamma    89.43370676253429

_space_group_name_H-M_alt    "P 1"
_space_group_IT_number       1

loop_
  _space_group_symop_operation_xyz
  'x, y, z'

loop_
  _atom_site_type_symbol
  _atom_site_label
  _atom_site_symmetry_multiplicity
  _atom_site_fract_x
  _atom_site_fract_y
  _atom_site_fract_z
  _atom_site_occupancy
  N   N1        1.0  0.8984705302650549  0.5778876543418929  0.6241001495772012  1.0000
  C   C1        1.0  0.825971162281817  0.6030921863425303  0.5728930553193368  1.0000
  C   C2        1.0  0.7357809257591451  0.6344473077779744  0.5091894683890095  1.0000
  C   C3        1.0  0.6484046337125824  0.6049726826016514  0.5713942909806  1.0000
  C   C4        1.0  0.5606385132931415  0.6344473221031945  0.5091894483082229  1.0000
  C   C5        1.0  0.47086302189180046  0.6030920390668222  0.572893134403988  1.0000
  N   N2        1.0  0.3986969600872561  0.5778875908638648  0.6241001492829759  1.0000
  C   C6        1.0  0.5602773080437821  0.6940027958539245  0.38479837482288115  1.0000
  C   C7        1.0  0.6476066446307814  0.7256269056272666  0.3225111074955156  1.0000
  C   C8        1.0  0.6472112139214973  0.7854234736919838  0.1881402890073638  1.0000
  C   C9        1.0  0.7353543970883533  0.6940027945292218  0.3847982963929597  1.0000
  H   H1        1.0  0.6487102404109002  0.5587666419944042  0.6676703142725198  1.0000
  H   H2        1.0  0.49226030783345937  0.7157829174614132  0.3365303034992948  1.0000
  H   H3        1.0  0.7116146418142503  0.853563867143093  0.16771168970325023  1.0000
  H   H4        1.0  0.5819061641430632  0.8535638690192261  0.1677117462493909  1.0000
  H   H5        1.0  0.6478101737239929  0.6949262472367324  0.12566852905644543  1.0000
  H   H6        1.0  0.8030832661715173  0.7157830299117132  0.336530229676661  1.0000
  C   C10       1.0  0.15138150660265026  0.1544983224754397  0.6226510392208255  1.0000
  C   C11       1.0  0.12488723421166842  0.23767740245844804  0.5122370916171721  1.0000
  C   C12       1.0  0.09054188727309542  0.17163897425501393  0.4076719348203397  1.0000
  C   C13       1.0  0.0821253009647493  0.021518450942577202  0.41228924416114787  1.0000
  C   C14       1.0  0.1095141732112581  0.9371316956147107  0.5201863938572637  1.0000
  C   C15       1.0  0.14579530520422934  0.0012658415365163177  0.6255601201028529  1.0000
  C   C16       1.0  0.06276346749799222  0.2583998666252447  0.2959272111601703  1.0000
  N   N3        1.0  0.040437323249895796  0.32813971805177755  0.20611307649099486  1.0000
  H   H7        1.0  0.17009689325523292  0.2311694009742704  0.9300417707469695  1.0000
  H   H8        1.0  0.12882914694236589  0.35463680195493064  0.5085214030345386  1.0000
  H   H9        1.0  0.05521443220858924  0.9693918727891541  0.331924353915241  1.0000
  H   H10       1.0  0.10444568756807458  0.8206641002417795  0.5200761855300404  1.0000
  H   H11       1.0  0.16249289194532346  0.702495609638944  0.8315206541286713  1.0000
  C   C17       1.0  0.14858842473192113  0.5778820509259102  0.2563603326828163  1.0000
  C   C18       1.0  0.08003058054070443  0.4976957902806709  0.19466235885261554  1.0000
  C   C19       1.0  0.08003051966701054  0.49769588272860305  0.0637802192173198  1.0000
  C   C20       1.0  0.14858834838624685  0.577882121601605  0.9918507686019593  1.0000
  C   C21       1.0  0.21708960867566696  0.6580019318505532  0.05354793379028444  1.0000
  C   C22       1.0  0.2170895964738699  0.6580019094938103  0.18444023237652307  1.0000
  H   H12       1.0  0.21791857358650457  0.6589723931458497  0.5498966673282568  1.0000
  H   H13       1.0  0.026291705771573238  0.4348420094146064  0.24748325484115563  1.0000
  H   H14       1.0  0.026291685165193528  0.43484207728144186  0.01897922584877598  1.0000
  H   H15       1.0  0.27083550057055156  0.7208639952267373  0.0007714016246223071  1.0000
  H   H16       1.0  0.270835452272163  0.720863944684428  0.22919576893538696  1.0000
  H   H17       1.0  0.21791887815054822  0.6589718908251765  0.687967639889139  1.0000
  Zn  Zn1       1.0  0.042825103444224404  0.5778837759491939  0.624107375754295  1.0000
  Zn  Zn2       1.0  0.2543424659168245  0.5778796709719869  0.6241031673262998  1.0000
  C   C23       1.0  0.14862412718797757  0.5721383520106282  0.8528076109562636  1.0000
  C   C24       1.0  0.14854573993486153  0.5836269140333505  0.3954030612410195  1.0000
  C   C25       1.0  0.1468462440232945  0.8412087362983878  0.6200199125531529  1.0000
  C   C26       1.0  0.15032356235108013  0.31455479752558424  0.6281908204597848  1.0000
  O   O1        1.0  0.2288011927491903  0.5855470947448738  0.4420654524305432  1.0000
  O   O2        1.0  0.22890546548722948  0.5702139680450944  0.8061416614395196  1.0000
  O   O3        1.0  0.22746872027282514  0.787491706237976  0.618163953139204  1.0000
  O   O4        1.0  0.23023786571901114  0.36826936686723477  0.6300430668715862  1.0000
  O   O5        1.0  0.06692963146153262  0.7874940800569163  0.6181674762038629  1.0000
  O   O6        1.0  0.06836636524389615  0.5702180740870122  0.8061451236833779  1.0000
  O   O7        1.0  0.06826209290159468  0.5855511505443076  0.4420674088792091  1.0000
  O   O8        1.0  0.06969876593549396  0.368273412354397  0.6300451171743795  1.0000
