data_image0
_chemical_formula_structural       NC8NC6H8C6NCH9C6FH3Zn2C4O8
_chemical_formula_sum              "N3 C31 H20 F1 Zn2 O8"
_cell_length_a       17.457602349358154
_cell_length_b       9.273386996610926
_cell_length_c       9.275646106892307
_cell_angle_alpha    84.85815515660879
_cell_angle_beta     92.91404810424501
_cell_angle_gamma    91.0935878010965

_space_group_name_H-M_alt    "P 1"
_space_group_IT_number       1

loop_
  _space_group_symop_operation_xyz
  'x, y, z'

loop_
  _atom_site_type_symbol
  _atom_site_label
  _atom_site_symmetry_multiplicity
  _atom_site_fract_x
  _atom_site_fract_y
  _atom_site_fract_z
  _atom_site_occupancy
  N   N1        1.0  0.7130267608673843  0.6297563469432168  0.46998634159432057  1.0000
  C   C1        1.0  0.6522297015288944  0.5788775519389504  0.4582982951092256  1.0000
  C   C2        1.0  0.5765955441967814  0.5155905644542638  0.44376895661050897  1.0000
  C   C3        1.0  0.5178409765365486  0.5593082317930456  0.5269147238621001  1.0000
  C   C4        1.0  0.4436319843322194  0.4983665105925166  0.513063187479893  1.0000
  C   C5        1.0  0.381273972616752  0.544523106684826  0.6011180159982348  1.0000
  C   C6        1.0  0.3065963462372699  0.5656936413219515  0.5390972671287373  1.0000
  C   C7        1.0  0.24784294574840046  0.6092057648264784  0.6223634578256965  1.0000
  C   C8        1.0  0.1717227519800534  0.6310753631302523  0.5578789579752195  1.0000
  N   N2        1.0  0.11053507220291642  0.648651433113522  0.5060336033107762  1.0000
  C   C9        1.0  0.263273657619657  0.6318113706360399  0.7682149863845967  1.0000
  C   C10       1.0  0.3371642903039403  0.611068258348662  0.8306655819846649  1.0000
  C   C11       1.0  0.3959051095259762  0.567750688280388  0.7479076762547514  1.0000
  C   C12       1.0  0.429469965700651  0.39297173206362945  0.4144749455616784  1.0000
  C   C13       1.0  0.48821121152551566  0.3495588341641293  0.3317730775658281  1.0000
  C   C14       1.0  0.5616349080051841  0.41061885415935007  0.3462355656673037  1.0000
  H   H1        1.0  0.529739912815676  0.6420306182222503  0.600788239368601  1.0000
  H   H2        1.0  0.2943133289820961  0.5502745145259926  0.4257418249478027  1.0000
  H   H3        1.0  0.21823932110640712  0.6654137101996425  0.8335317066571644  1.0000
  H   H4        1.0  0.3489238500305041  0.6282217318293367  0.9436024321074055  1.0000
  H   H5        1.0  0.4524972854784053  0.5505554696607338  0.7991870777005128  1.0000
  H   H6        1.0  0.3732625263082627  0.34274824739401555  0.4027453405215329  1.0000
  H   H7        1.0  0.47681881991340774  0.26809055998411013  0.25656504676861713  1.0000
  H   H8        1.0  0.6066748210788853  0.3760445855926957  0.2814890078389415  1.0000
  C   C15       1.0  0.9141434529261223  0.21565462992962386  0.48893347373921725  1.0000
  C   C16       1.0  0.9275761242640538  0.3011590909283848  0.35964775545174255  1.0000
  C   C17       1.0  0.9337868205639337  0.2383418618527469  0.2296990593107948  1.0000
  C   C18       1.0  0.9266584283948938  0.08773799453031783  0.22570768171229183  1.0000
  C   C19       1.0  0.9145773358158781  0.0013396945200387894  0.35466262419470707  1.0000
  C   C20       1.0  0.9094257595058615  0.06274221591105868  0.48709966919869097  1.0000
  N   N3        1.0  0.9322199874306882  0.0198821919443195  0.09300557253917316  1.0000
  C   C21       1.0  0.94495967720978  0.09988482102732311  0.9533122646522934  1.0000
  H   H9        1.0  0.9298779155669396  0.4760227125783769  0.7273240505761223  1.0000
  H   H10       1.0  0.9314878505365427  0.41800978868201305  0.35823170402987614  1.0000
  H   H11       1.0  0.9434332860940872  0.30844701768029736  0.13253287980598946  1.0000
  H   H12       1.0  0.9109563173036384  0.8847907624597627  0.35205731328246304  1.0000
  H   H13       1.0  0.9377619960708259  0.9289819182369283  0.8412140597050773  1.0000
  H   H14       1.0  0.9267980385639736  0.9072254571591669  0.09550689590920225  1.0000
  H   H15       1.0  0.8974029129959549  0.17646500441275406  0.9239219358846448  1.0000
  H   H16       1.0  0.00047707907529548246  0.16007303737978695  0.958579658912705  1.0000
  H   H17       1.0  0.9468702032601105  0.02344937788929124  0.8680380913691912  1.0000
  C   C22       1.0  0.9116702039187328  0.6437085523503827  0.0641582465824737  1.0000
  C   C23       1.0  0.9818167613154059  0.6621213990182366  0.14255518214206298  1.0000
  C   C24       1.0  0.05108799927424922  0.6669461223625277  0.07338854956659421  1.0000
  C   C25       1.0  0.05143004401659358  0.6532979687201578  0.9250659872045927  1.0000
  C   C26       1.0  0.9824720308168441  0.6373471354740405  0.8448408817566118  1.0000
  C   C27       1.0  0.9118989946897322  0.634688331417614  0.9118748630515475  1.0000
  F   F1        1.0  0.11818573793846122  0.6831607594898323  0.1508867772026652  1.0000
  H   H18       1.0  0.7344651754544725  0.5180755254603773  0.16143615681986878  1.0000
  H   H19       1.0  0.10521381800863684  0.656458062489915  0.8716269000809955  1.0000
  H   H20       1.0  0.791895545905723  0.5560061227187759  0.6262679286988648  1.0000
  Zn  Zn1       1.0  0.8277390966899539  0.635205104078965  0.48039714492971436  1.0000
  Zn  Zn2       1.0  0.9958227911798082  0.6431907247385619  0.4956346427036221  1.0000
  C   C28       1.0  0.9118860607117715  0.6306473478611359  0.7516505591991487  1.0000
  C   C29       1.0  0.911677652529643  0.6477503865070151  0.22438153255529691  1.0000
  C   C30       1.0  0.9103120162396032  0.9026856604381212  0.4816941648807429  1.0000
  C   C31       1.0  0.913251649318259  0.3757103375100159  0.4943380023783581  1.0000
  O   O1        1.0  0.9754670734790117  0.6521310720077919  0.28393649560206025  1.0000
  O   O2        1.0  0.9756682806359482  0.6323264800050079  0.70366009124935  1.0000
  O   O3        1.0  0.9743963603455402  0.8520008009825538  0.48566831165160823  1.0000
  O   O4        1.0  0.9767389363271655  0.43245675977460607  0.5019281617544827  1.0000
  O   O5        1.0  0.8468228941838697  0.8459390663194708  0.4741036206714476  1.0000
  O   O6        1.0  0.8480948047991035  0.62626647903849  0.6920953195571278  1.0000
  O   O7        1.0  0.8478935975046832  0.6460710392476345  0.2723699886624904  1.0000
  O   O8        1.0  0.8491654604363644  0.4263967155466392  0.4903617630528269  1.0000
