data_image0
_chemical_formula_structural       NC8NH4C6NH7C6NH7Zn2C4O8
_chemical_formula_sum              "N4 C24 H18 Zn2 O8"
_cell_length_a       13.859017124695912
_cell_length_b       9.274771166103582
_cell_length_c       9.274774538082516
_cell_angle_alpha    84.9550519661537
_cell_angle_beta     90.34965622944028
_cell_angle_gamma    90.59707951677755

_space_group_name_H-M_alt    "P 1"
_space_group_IT_number       1

loop_
  _space_group_symop_operation_xyz
  'x, y, z'

loop_
  _atom_site_type_symbol
  _atom_site_label
  _atom_site_symmetry_multiplicity
  _atom_site_fract_x
  _atom_site_fract_y
  _atom_site_fract_z
  _atom_site_occupancy
  N   N1        1.0  0.913182110178913  0.5925444613735631  0.40513128817949484  1.0000
  C   C1        1.0  0.8404420582057391  0.5701690932588528  0.34893632116507073  1.0000
  C   C2        1.0  0.7499577818555098  0.5423374183752909  0.27903700366960194  1.0000
  C   C3        1.0  0.6628101092523451  0.5694705010818184  0.3471800425538194  1.0000
  C   C4        1.0  0.5747274682034582  0.5423386495600917  0.27903642136528445  1.0000
  C   C5        1.0  0.5739747722211728  0.48806639585644773  0.1427288424377715  1.0000
  C   C6        1.0  0.6609416830539183  0.4610375942596066  0.07484810464486367  1.0000
  C   C7        1.0  0.7488401194720644  0.4880640355299906  0.1427300266366105  1.0000
  C   C8        1.0  0.48520222393741774  0.5701700243889086  0.3489358207981095  1.0000
  N   N2        1.0  0.41323323714491605  0.5925447859484814  0.4051310712959761  1.0000
  H   H1        1.0  0.6635339228611344  0.6114793637313101  0.4526853727590069  1.0000
  H   H2        1.0  0.5063113757638519  0.46671170398530365  0.08909280758231719  1.0000
  H   H3        1.0  0.6602194065516582  0.41911455774789985  0.9695564391771277  1.0000
  H   H4        1.0  0.8157675701481526  0.4667072336868093  0.08909499616747674  1.0000
  C   C9        1.0  0.16025313846073308  0.1689412363214953  0.40591786339468505  1.0000
  C   C10       1.0  0.13753037352676967  0.25337349880370796  0.27685291058121697  1.0000
  C   C11       1.0  0.12381312881335194  0.18945475883985408  0.1469690929697529  1.0000
  C   C12       1.0  0.13286544746308482  0.039734472867240196  0.14520946748870564  1.0000
  C   C13       1.0  0.15379683032106642  0.953998215001713  0.2725014457900954  1.0000
  C   C14       1.0  0.16617142744841742  0.016136866381916585  0.40435704807012574  1.0000
  N   N3        1.0  0.10167747752646794  0.27699886793308237  0.01648564120782003  1.0000
  H   H5        1.0  0.270114675568653  0.2458520133416675  0.7217794885023552  1.0000
  H   H6        1.0  0.13266304541847473  0.3699710295227257  0.2762985153611345  1.0000
  H   H7        1.0  0.12276808992092825  0.9891171683283636  0.045276973667431226  1.0000
  H   H8        1.0  0.1580324702764222  0.837870184727537  0.26836801434887314  1.0000
  H   H9        1.0  0.2362654693674311  0.7171998908686061  0.619254791364874  1.0000
  H   H10       1.0  0.09502931287793337  0.38907317250205864  0.016438767009949954  1.0000
  H   H11       1.0  0.09168050922143145  0.2303781094341153  0.9189266630715605  1.0000
  C   C15       1.0  0.16150641139050537  0.5962284727355802  0.9813143292701283  1.0000
  C   C16       1.0  0.23047135801080043  0.6813539503804247  0.04789397699837438  1.0000
  C   C17       1.0  0.30368208669010355  0.7545968539988626  0.9669940887554591  1.0000
  C   C18       1.0  0.3085189869603944  0.7430464631516269  0.8180379516119537  1.0000
  C   C19       1.0  0.23988580480072086  0.6610986973355926  0.7497498866705721  1.0000
  C   C20       1.0  0.16491813096343622  0.5888495539590232  0.8289605489063332  1.0000
  N   N4        1.0  0.37375333246227704  0.8395216474213072  0.036579350901097187  1.0000
  H   H12       1.0  0.015309007044407522  0.3142424088701137  0.1077542269822207  1.0000
  H   H13       1.0  0.2287823005090599  0.6881953944620154  0.1639015025986168  1.0000
  H   H14       1.0  0.36503746860378805  0.7987794282568463  0.7544044764539345  1.0000
  H   H15       1.0  0.24416040919424048  0.657086180831985  0.6335842278746973  1.0000
  H   H16       1.0  0.06351635696406488  0.403313449160126  0.5632206358057927  1.0000
  H   H17       1.0  0.37101458723107156  0.8485675935570429  0.14793260896978677  1.0000
  H   H18       1.0  0.4288712023162182  0.894120245610107  0.9772366508960134  1.0000
  Zn  Zn1       1.0  0.05748607339094702  0.5925406311280654  0.4051395716546271  1.0000
  Zn  Zn2       1.0  0.26892923174023786  0.5925367460011491  0.4051346469283663  1.0000
  C   C21       1.0  0.1642309517377354  0.5844977248160755  0.6687478523740464  1.0000
  C   C22       1.0  0.16218667563094935  0.6005814711249058  0.14152650445798515  1.0000
  C   C23       1.0  0.16502461790011672  0.8560488936950748  0.39890077591291884  1.0000
  C   C24       1.0  0.16139292552056328  0.3290285684802394  0.4113736610601082  1.0000
  O   O1        1.0  0.24265651121012177  0.6020346095742108  0.195293316693744  1.0000
  O   O2        1.0  0.2442415716097983  0.5830405530408342  0.6149768889271292  1.0000
  O   O3        1.0  0.2448813914186221  0.8023215430998953  0.39707346273376004  1.0000
  O   O4        1.0  0.24201661888659975  0.38275363077755875  0.41319663465531353  1.0000
  O   O5        1.0  0.0843986140893931  0.8023237463546185  0.3970775839217664  1.0000
  O   O6        1.0  0.08375880607338115  0.5830444900641861  0.6149809299682265  1.0000
  O   O7        1.0  0.08217373840257158  0.6020385114350639  0.19529562261078645  1.0000
  O   O8        1.0  0.08153384643855532  0.3827575213789651  0.4131990487982428  1.0000
