data_image0
_chemical_formula_structural       NC9NC5H8C13OH12C12NCOH11Zn2C4O8
_chemical_formula_sum              "N3 C44 H31 O10 Zn2"
_cell_length_a       17.807436237873137
_cell_length_b       10.299150109392551
_cell_length_c       10.299148425239203
_cell_angle_alpha    85.51660845067315
_cell_angle_beta     89.37684199315078
_cell_angle_gamma    88.37145022261349

_space_group_name_H-M_alt    "P 1"
_space_group_IT_number       1

loop_
  _space_group_symop_operation_xyz
  'x, y, z'

loop_
  _atom_site_type_symbol
  _atom_site_label
  _atom_site_symmetry_multiplicity
  _atom_site_fract_x
  _atom_site_fract_y
  _atom_site_fract_z
  _atom_site_occupancy
  N   N1        1.0  0.7073679631554203  0.3884660978572259  0.5565213678047667  1.0000
  C   C1        1.0  0.6467886112099713  0.3532777770490693  0.5455092896832665  1.0000
  C   C2        1.0  0.5714345556243939  0.3095073811112805  0.5318114601592445  1.0000
  C   C3        1.0  0.5533720260289654  0.2381288897596341  0.42682642422727185  1.0000
  C   C4        1.0  0.4802071590626396  0.19551973597325834  0.4134441199142389  1.0000
  C   C5        1.0  0.4240561781631947  0.22391152394710034  0.5050145333619269  1.0000
  C   C6        1.0  0.3463007516033598  0.17874386051601188  0.4908746487020461  1.0000
  C   C7        1.0  0.2841053507492736  0.26049662860101797  0.5167860790590586  1.0000
  C   C8        1.0  0.21079821461367454  0.21768441329824914  0.5034175299946031  1.0000
  C   C9        1.0  0.1475521698466621  0.3021286214474168  0.5296919216886866  1.0000
  N   N2        1.0  0.09671533934046787  0.370015922165823  0.5508158081719878  1.0000
  C   C10       1.0  0.1991029861837155  0.09286143762873178  0.46411229179222174  1.0000
  C   C11       1.0  0.2604410210371371  0.011094819452769808  0.4381924760928799  1.0000
  C   C12       1.0  0.3336288286084618  0.053512541687738675  0.4513586135666256  1.0000
  C   C13       1.0  0.442809987780297  0.2957843356707357  0.6102186374537335  1.0000
  C   C14       1.0  0.5160277846104954  0.338203141843715  0.6234453478289212  1.0000
  H   H1        1.0  0.5957817900756652  0.21567094949534438  0.35511636288045456  1.0000
  H   H2        1.0  0.46731691388570384  0.14186658019688392  0.33053674666383426  1.0000
  H   H3        1.0  0.2925804106877438  0.35795827957508775  0.5456301880369832  1.0000
  H   H4        1.0  0.14264586149769068  0.05882672688300893  0.45352887001539766  1.0000
  H   H5        1.0  0.2512676425673133  0.9144538296011525  0.40814757005342583  1.0000
  H   H6        1.0  0.3802847116087468  0.9877695156529244  0.4323324586421721  1.0000
  H   H7        1.0  0.4011170117029307  0.31770265124442787  0.68322348882518  1.0000
  H   H8        1.0  0.5294463074269877  0.3930774152512648  0.7053105762477105  1.0000
  C   C15       1.0  0.9021160257131637  0.9978377948921159  0.5538116557384436  1.0000
  C   C16       1.0  0.9007119174944879  0.9860426156471863  0.6906522641318535  1.0000
  C   C17       1.0  0.8999346750164121  0.8629308161300364  0.7597706021512023  1.0000
  C   C18       1.0  0.9005671247837896  0.750794285065567  0.6902909662343595  1.0000
  C   C19       1.0  0.9019744528025797  0.7606338692105983  0.5535367155042783  1.0000
  C   C20       1.0  0.902742745203165  0.884615995000003  0.4860962112286038  1.0000
  C   C21       1.0  0.8984427507470775  0.8514349519466401  0.9044424175279551  1.0000
  C   C22       1.0  0.8522368126915894  0.7607156822654924  0.9731455584256711  1.0000
  C   C23       1.0  0.8508080235576532  0.7499806743257202  0.10928195684695473  1.0000
  C   C24       1.0  0.8960520949472952  0.8287831369948749  0.17916903715378352  1.0000
  C   C25       1.0  0.9415391803131141  0.9204898355661559  0.11111904566272422  1.0000
  C   C26       1.0  0.9429854085532293  0.9313998142656177  0.9749821029548482  1.0000
  C   C27       1.0  0.8929371303151638  0.8196768563079645  0.3253108892566987  1.0000
  O   O1        1.0  0.8367799348294807  0.9054964835960868  0.36637721319048633  1.0000
  H   H9        1.0  0.904278260620822  0.22741771348452633  0.2955257473072812  1.0000
  H   H10       1.0  0.8991780514602578  0.07286505790546861  0.7436869236420731  1.0000
  H   H11       1.0  0.9009879335217641  0.6556281995692017  0.7431219072660353  1.0000
  H   H12       1.0  0.9038261335839564  0.8929218699801668  0.3806135967811543  1.0000
  H   H13       1.0  0.9024651947117781  0.4369454465482314  0.500936975431681  1.0000
  H   H14       1.0  0.8163161891323559  0.6994326192250987  0.9215597041103087  1.0000
  H   H15       1.0  0.814254953263881  0.6803605923967644  0.1601965949127998  1.0000
  H   H16       1.0  0.9760758593480212  0.9833911152985738  0.16347143687781063  1.0000
  H   H17       1.0  0.9795635308610549  0.0014637799512249314  0.9248737958921467  1.0000
  H   H18       1.0  0.9481924173672491  0.8448696035055066  0.36467391266208316  1.0000
  H   H19       1.0  0.8807226006795891  0.7182173974094077  0.3633050350092861  1.0000
  H   H20       1.0  0.8370438766701559  0.8957633512612242  0.4630065969958747  1.0000
  C   C28       1.0  0.9021017167285208  0.3793890316578826  0.1722770770948303  1.0000
  C   C29       1.0  0.9783183147249452  0.4113390978625132  0.16717784819016443  1.0000
  C   C30       1.0  0.016842430603521967  0.4273298822968841  0.047462121293742054  1.0000
  C   C31       1.0  0.9781600027504698  0.41100642199200466  0.9319231366582462  1.0000
  C   C32       1.0  0.9019887516296803  0.3790826828849614  0.9350712345510694  1.0000
  C   C33       1.0  0.8644064849122045  0.3634521677685325  0.05574739766642245  1.0000
  C   C34       1.0  0.09742505361431508  0.46110710231122987  0.04316108523274065  1.0000
  C   C35       1.0  0.14791801318006947  0.4013388068966359  0.9588439556675897  1.0000
  C   C36       1.0  0.2237098438459219  0.43326344740988726  0.954946282769487  1.0000
  C   C37       1.0  0.25078358124753275  0.5242608908259412  0.03602501358742405  1.0000
  C   C38       1.0  0.20021572147008057  0.585879099811986  0.11877417350431707  1.0000
  C   C39       1.0  0.12438991978614221  0.5540627462443626  0.12276914671384163  1.0000
  N   N3        1.0  0.32879904484295885  0.5567738295785394  0.028333220721691754  1.0000
  C   C40       1.0  0.372005810710037  0.5914023634545111  0.1364168444501077  1.0000
  O   O2        1.0  0.3465884712070525  0.5784431393595284  0.25115463155621853  1.0000
  H   H21       1.0  0.7583663125145557  0.3183152391230908  0.3892530143718791  1.0000
  H   H22       1.0  0.008122945458030717  0.42212313370417376  0.2566630643025867  1.0000
  H   H23       1.0  0.00730602396915381  0.42501818927951757  0.8392575412891707  1.0000
  H   H24       1.0  0.8056545742155421  0.3388250125154324  0.05889068823073362  1.0000
  H   H25       1.0  0.8726934529255393  0.36676755036810216  0.6088089204986558  1.0000
  H   H26       1.0  0.12899064125801551  0.32872003233601066  0.8969751740645572  1.0000
  H   H27       1.0  0.2616783122101516  0.3859226131885556  0.8894515178187241  1.0000
  H   H28       1.0  0.21871636532753364  0.6606828079349805  0.17824181355730095  1.0000
  H   H29       1.0  0.08650960438093103  0.6040658710839182  0.1863690773764739  1.0000
  H   H30       1.0  0.35769504696294696  0.5464644870391664  0.9407299500267182  1.0000
  H   H31       1.0  0.42840867598981025  0.6257723319733084  0.11975298887712825  1.0000
  Zn  Zn1       1.0  0.8197252038941699  0.38313830708544644  0.5548823791382347  1.0000
  Zn  Zn2       1.0  0.98435808078836  0.3753331215277175  0.5524654780557601  1.0000
  C   C41       1.0  0.9020093952870916  0.37396652512937445  0.7908887248409724  1.0000
  C   C42       1.0  0.9020756868583059  0.3845064569664738  0.3164592328456872  1.0000
  C   C43       1.0  0.9019981119183198  0.6164514747494196  0.5484131692926381  1.0000
  C   C44       1.0  0.9020869143287453  0.14201994953973296  0.558934859024975  1.0000
  O   O3        1.0  0.9645442708376177  0.3832562181576171  0.363930882113415  1.0000
  O   O4        1.0  0.9644933557622192  0.3692918290395672  0.7415823300544582  1.0000
  O   O5        1.0  0.964483401875116  0.5651015318856595  0.5457816152720842  1.0000
  O   O6        1.0  0.9645541685593687  0.18744652730506986  0.5597315003353006  1.0000
  O   O7        1.0  0.8395290599420409  0.5710249039730382  0.5476163576766317  1.0000
  O   O8        1.0  0.8395390135463563  0.3752167615985839  0.7434170026459892  1.0000
  O   O9        1.0  0.8395899289113533  0.3891811060813801  0.36576399320445674  1.0000
  O   O10       1.0  0.8395998266173365  0.19337140590023114  0.5615647088047688  1.0000
