data_image0
_chemical_formula_structural       NC6NC3H6C10H6C6OCH7Zn2C4O8
_chemical_formula_sum              "N2 C30 H19 O9 Zn2"
_cell_length_a       14.934028789175542
_cell_length_b       9.275150299802176
_cell_length_c       9.273891588657152
_cell_angle_alpha    85.74891997062389
_cell_angle_beta     89.65557739525336
_cell_angle_gamma    89.44625895822752

_space_group_name_H-M_alt    "P 1"
_space_group_IT_number       1

loop_
  _space_group_symop_operation_xyz
  'x, y, z'

loop_
  _atom_site_type_symbol
  _atom_site_label
  _atom_site_symmetry_multiplicity
  _atom_site_fract_x
  _atom_site_fract_y
  _atom_site_fract_z
  _atom_site_occupancy
  N   N1        1.0  0.8399825037148182  0.5637825105531553  0.4006931719900828  1.0000
  C   C1        1.0  0.7625049437596367  0.5626777255015598  0.4000206400958708  1.0000
  C   C2        1.0  0.6661189922145734  0.5612982950152647  0.39918111089160124  1.0000
  C   C3        1.0  0.6175323968735028  0.6687282967714776  0.4644572136056231  1.0000
  C   C4        1.0  0.5240291677254594  0.6676207193422101  0.46378410368653245  1.0000
  C   C5        1.0  0.47819956364124006  0.5591379664685137  0.3978684037620652  1.0000
  C   C6        1.0  0.38153593792694895  0.5614655851616697  0.39928398604791293  1.0000
  N   N2        1.0  0.30404164473162326  0.5633128470165201  0.40040775737056333  1.0000
  C   C7        1.0  0.5267919905174938  0.4502216891268147  0.33168866559861176  1.0000
  C   C8        1.0  0.47938041330502246  0.33227839792090874  0.26002582878658465  1.0000
  C   C9        1.0  0.6209176191428312  0.4524594421981267  0.3330484104928948  1.0000
  H   H1        1.0  0.6519274094879141  0.7533731782974633  0.5158893168748964  1.0000
  H   H2        1.0  0.4873492359046061  0.7516137112454995  0.514819965507143  1.0000
  H   H3        1.0  0.4366686680200912  0.3805709409207816  0.17115117417350345  1.0000
  H   H4        1.0  0.4367045043194932  0.2701272694112155  0.34048642739056745  1.0000
  H   H5        1.0  0.5274252442204671  0.2558847634439301  0.21360147329826137  1.0000
  H   H6        1.0  0.6590820392783767  0.3695838100407147  0.28269176305058785  1.0000
  C   C10       1.0  0.07437054169168994  0.1398615164323569  0.4029619750130542  1.0000
  C   C11       1.0  0.12184402370599544  0.22088182673769038  0.2938879687435214  1.0000
  C   C12       1.0  0.16165763057156535  0.15365827698433865  0.17927715911702236  1.0000
  C   C13       1.0  0.15440285658075215  0.004434801496376203  0.17226418260346255  1.0000
  C   C14       1.0  0.10888657600524976  0.9219628258936725  0.2806892034543742  1.0000
  C   C15       1.0  0.06966220068497428  0.9872227932372373  0.39815146394224654  1.0000
  C   C16       1.0  0.20915075487110402  0.23839821320259036  0.0677099422552161  1.0000
  C   C17       1.0  0.24891448509892358  0.30937054338293635  0.9743049267346863  1.0000
  C   C18       1.0  0.2954759688870443  0.3924841223521158  0.864931727221582  1.0000
  C   C19       1.0  0.335232032521561  0.4634511396236766  0.7715446168131521  1.0000
  H   H7        1.0  0.031105203967599634  0.40429384988702344  0.6318694557728763  1.0000
  H   H8        1.0  0.1261385302429754  0.3373459314344565  0.2961119828999108  1.0000
  H   H9        1.0  0.1847312488338413  0.9514590941745005  0.08357979100618396  1.0000
  H   H10       1.0  0.10616998926327521  0.8059093789986093  0.27446809726604116  1.0000
  H   H11       1.0  0.010273076209327062  0.8599013875942981  0.7406431597651857  1.0000
  H   H12       1.0  0.3701411725070034  0.5257662072910081  0.6895430205707949  1.0000
  C   C20       1.0  0.07350454198909315  0.5597195500790821  0.9773021755314697  1.0000
  C   C21       1.0  0.14649665950449006  0.6205855060530072  0.04548481260048542  1.0000
  C   C22       1.0  0.21434972745623795  0.6922302294492528  0.9652259652286688  1.0000
  C   C23       1.0  0.20945272892341388  0.7033702779526159  0.8137251114117041  1.0000
  C   C24       1.0  0.1383467013919768  0.6416288088731554  0.7442040789148487  1.0000
  C   C25       1.0  0.07052820847626061  0.5673647337601431  0.8238112354395767  1.0000
  O   O1        1.0  0.2849063021455002  0.7513222550750693  0.040053098852260494  1.0000
  C   C26       1.0  0.3582217889481967  0.8271788967632618  0.9725003091655323  1.0000
  H   H13       1.0  0.8610089163897102  0.4713197795471509  0.08895348816258264  1.0000
  H   H14       1.0  0.2607287507902809  0.7584122866891965  0.7484584768079783  1.0000
  H   H15       1.0  0.13758286856586288  0.6490654840306418  0.627081132884009  1.0000
  H   H16       1.0  0.9288567527160102  0.5021279900569289  0.5488271151686653  1.0000
  H   H17       1.0  0.3336429188047192  0.9248381217913516  0.9075652359483963  1.0000
  H   H18       1.0  0.3959558611506565  0.7555356037946562  0.9024711860542544  1.0000
  H   H19       1.0  0.4038670308379484  0.8616189438240672  0.05711988054593742  1.0000
  Zn  Zn1       1.0  0.9738999533369473  0.5636431846676286  0.40061914634525  1.0000
  Zn  Zn2       1.0  0.17012424941214832  0.5634404607734779  0.40049363396489546  1.0000
  C   C27       1.0  0.07112075337535795  0.5601719171883863  0.6638355469058872  1.0000
  C   C28       1.0  0.0729055815243715  0.5669135477599672  0.13727736316496153  1.0000
  C   C29       1.0  0.07056778516434581  0.8270016282688482  0.3933171923856147  1.0000
  C   C30       1.0  0.07345849213930263  0.3000821040065311  0.40779580441196095  1.0000
  O   O2        1.0  0.14717069762444268  0.5692446920175134  0.19091890196568628  1.0000
  O   O3        1.0  0.14578534518183806  0.5576858180046582  0.6100983383863052  1.0000
  O   O4        1.0  0.1453378072502105  0.7731541987969115  0.3916528452743695  1.0000
  O   O5        1.0  0.1476181689206313  0.35377632063948905  0.40936428699256133  1.0000
  O   O6        1.0  0.9964059668667609  0.7733073248722993  0.391748493352825  1.0000
  O   O7        1.0  0.9968534954327647  0.557840676823703  0.6101938997732752  1.0000
  O   O8        1.0  0.9982388543071005  0.5693994849082955  0.19101273074922065  1.0000
  O   O9        1.0  0.998686325277024  0.3539311041867239  0.40945822389639747  1.0000
