data_image0
_chemical_formula_structural       NC8NH4C7NH5C7NH4Zn2C4O8
_chemical_formula_sum              "N4 C26 H13 Zn2 O8"
_cell_length_a       11.048855714531884
_cell_length_b       9.275154477615127
_cell_length_c       9.275157849593906
_cell_angle_alpha    86.33461140486662
_cell_angle_beta     89.74088388254012
_cell_angle_gamma    89.43371274831733

_space_group_name_H-M_alt    "P 1"
_space_group_IT_number       1

loop_
  _space_group_symop_operation_xyz
  'x, y, z'

loop_
  _atom_site_type_symbol
  _atom_site_label
  _atom_site_symmetry_multiplicity
  _atom_site_fract_x
  _atom_site_fract_y
  _atom_site_fract_z
  _atom_site_occupancy
  N   N1        1.0  0.13272705021637332  0.5626394573766347  0.416567009482698  1.0000
  C   C1        1.0  0.07902669024950981  0.5038831213504338  0.3313626629130393  1.0000
  C   C2        1.0  0.012025209570439628  0.43057196254266117  0.2250516884196487  1.0000
  C   C3        1.0  0.88430845537324  0.43057177298030574  0.22505178937120407  1.0000
  C   C4        1.0  0.8225383309466072  0.3581004234799414  0.11995893981622929  1.0000
  C   C5        1.0  0.8869563238570416  0.28620232204106855  0.015697294329957808  1.0000
  C   C6        1.0  0.013362537103964728  0.28620221215372665  0.015697316553837652  1.0000
  C   C7        1.0  0.07579586905257377  0.35810052163208383  0.11995891249464495  1.0000
  C   C8        1.0  0.8152832685994597  0.5038831961443309  0.3313626500796796  1.0000
  N   N2        1.0  0.7599609358892451  0.5626395003179305  0.41656703843879195  1.0000
  H   H1        1.0  0.7244886182314769  0.35719290770678036  0.11864228294246336  1.0000
  H   H2        1.0  0.8388281646002623  0.23043648162369745  0.9348301504248216  1.0000
  H   H3        1.0  0.06303020492031663  0.23043659102182668  0.9348301502500256  1.0000
  H   H4        1.0  0.17387062933512826  0.35719286131766537  0.11864255782471254  1.0000
  C   C9        1.0  0.4498585803758226  0.13923410568324357  0.4148993171557125  1.0000
  C   C10       1.0  0.41712972684036687  0.221189524654708  0.28783114146135946  1.0000
  C   C11       1.0  0.37453033245312917  0.15399225312238807  0.1674939559993036  1.0000
  C   C12       1.0  0.3639561873488664  0.003922899574133385  0.17280771493107472  1.0000
  C   C13       1.0  0.397818001536441  0.9207319131168152  0.2969794728295858  1.0000
  C   C14       1.0  0.44284107151720403  0.9860338636015119  0.4182471878334473  1.0000
  C   C15       1.0  0.3401972202045931  0.23951473602219073  0.03889427738503804  1.0000
  N   N3        1.0  0.3126029319459412  0.30825922345032586  0.9355330762906475  1.0000
  H   H5        1.0  0.4719552083343861  0.21931182893752044  0.7686551648247015  1.0000
  H   H6        1.0  0.4220890586726247  0.3381077458469115  0.2835549988820742  1.0000
  H   H7        1.0  0.3305709807793616  0.9509056774598769  0.08032103010130331  1.0000
  H   H8        1.0  0.39146311887335505  0.8042630955669422  0.2968526414122141  1.0000
  H   H9        1.0  0.4628598375780466  0.689546181249361  0.6552736684552591  1.0000
  C   C16       1.0  0.447989553555868  0.5585584359761516  0.9933593478536271  1.0000
  C   C17       1.0  0.5519179295502326  0.6055620406016737  0.06324121299786345  1.0000
  C   C18       1.0  0.6495438497774539  0.6639032873307156  0.9835937039746624  1.0000
  C   C19       1.0  0.6443774444415065  0.6761684346650894  0.8329832469920033  1.0000
  C   C20       1.0  0.5429470562186738  0.6279972778888292  0.7617552241628422  1.0000
  C   C21       1.0  0.44471012581005187  0.5667094720277575  0.8397871434528007  1.0000
  C   C22       1.0  0.7546418182189072  0.7129148353109209  0.05679109971768325  1.0000
  N   N4        1.0  0.8391136797504034  0.7523069043235386  0.11562943817591331  1.0000
  H   H10       1.0  0.15391326445884349  0.5099441720902056  0.10100474875401974  1.0000
  H   H11       1.0  0.7193648093405507  0.7217758093026512  0.7703407623741141  1.0000
  H   H12       1.0  0.5426164903623432  0.6355776463565277  0.6447207534187114  1.0000
  H   H13       1.0  0.24802871668250306  0.5279243879267297  0.5622272968434476  1.0000
  Zn  Zn1       1.0  0.31373321481169203  0.5626356818205167  0.4165753220861377  1.0000
  Zn  Zn2       1.0  0.5789548507263742  0.5626315635425247  0.4165704737094691  1.0000
  C   C23       1.0  0.44537487931888287  0.5594248330277378  0.6797714323710715  1.0000
  C   C24       1.0  0.4473160668069458  0.5658442328893931  0.15337451201641406  1.0000
  C   C25       1.0  0.4441835463841901  0.8259153594668109  0.4118713260151301  1.0000
  C   C26       1.0  0.4485073232979755  0.2993519749042892  0.42127468836110804  1.0000
  O   O1        1.0  0.5477403192450133  0.5682815597756932  0.20707519806381258  1.0000
  O   O2        1.0  0.5462477223505142  0.5569832887559052  0.6260666473521186  1.0000
  O   O3        1.0  0.5452843433199772  0.7721777735401947  0.4097354219838909  1.0000
  O   O4        1.0  0.5487036081065679  0.3530870842664444  0.42340631541555657  1.0000
  O   O5        1.0  0.3439843669243865  0.7721801610994994  0.4097394803741299  1.0000
  O   O6        1.0  0.344947731891476  0.5569874078641419  0.6260706357476847  1.0000
  O   O7        1.0  0.34644033599623614  0.5682856119535493  0.20707745353837387  1.0000
  O   O8        1.0  0.34740362451966167  0.3530911271721622  0.42340867890068173  1.0000
