data_image0
_chemical_formula_structural       NC8NC6H8C6NO2H5C7OCH10Zn2C4O8
_chemical_formula_sum              "N3 C32 H23 O11 Zn2"
_cell_length_a       17.457602349358154
_cell_length_b       9.273392599741051
_cell_length_c       10.300835455316063
_cell_angle_alpha    85.69422618191317
_cell_angle_beta     92.89337507241441
_cell_angle_gamma    91.0881455882028

_space_group_name_H-M_alt    "P 1"
_space_group_IT_number       1

loop_
  _space_group_symop_operation_xyz
  'x, y, z'

loop_
  _atom_site_type_symbol
  _atom_site_label
  _atom_site_symmetry_multiplicity
  _atom_site_fract_x
  _atom_site_fract_y
  _atom_site_fract_z
  _atom_site_occupancy
  N   N1        1.0  0.7132686836947454  0.6127259055483079  0.6290759913685664  1.0000
  C   C1        1.0  0.6524703699710758  0.5617355526735941  0.6183855655454937  1.0000
  C   C2        1.0  0.5768346513671928  0.4983098999612472  0.6050962260810737  1.0000
  C   C3        1.0  0.5180734174374284  0.5429143266210508  0.6800512870575663  1.0000
  C   C4        1.0  0.44386290705332576  0.48184058674913177  0.6673798160884359  1.0000
  C   C5        1.0  0.3814978285129242  0.5289363395158737  0.7467598567887799  1.0000
  C   C6        1.0  0.3068278094087918  0.5494296702865653  0.6910336563831929  1.0000
  C   C7        1.0  0.2480677198238153  0.5938299161566367  0.7660963536511463  1.0000
  C   C8        1.0  0.1719554285739321  0.6149954504765118  0.7081559629620802  1.0000
  N   N2        1.0  0.1107741020550367  0.632005457073811  0.6615720293218563  1.0000
  C   C9        1.0  0.2634840884484018  0.6180068792206761  0.8973941096491305  1.0000
  C   C10       1.0  0.33736708926119274  0.5979454961984878  0.9535085048495902  1.0000
  C   C11       1.0  0.39611455326564005  0.5537452459676644  0.8789037713854244  1.0000
  C   C12       1.0  0.4297061690198721  0.37541003308092535  0.5783194171039723  1.0000
  C   C13       1.0  0.48845404902071515  0.33111508920313604  0.5037647721106915  1.0000
  C   C14       1.0  0.5618792047548059  0.39231370315480096  0.5169863122244021  1.0000
  H   H1        1.0  0.5299685805381285  0.6264117360163997  0.7467983457827096  1.0000
  H   H2        1.0  0.2945560450121988  0.5327886591517117  0.5889967600173653  1.0000
  H   H3        1.0  0.2184444788253511  0.6523060461476586  0.9562739198169935  1.0000
  H   H4        1.0  0.3491155254380957  0.6163158174854818  0.05517476315726433  1.0000
  H   H5        1.0  0.45270045457164826  0.5371098561544669  0.924979836073268  1.0000
  H   H6        1.0  0.373497511748429  0.3250743490621597  0.5675938544185317  1.0000
  H   H7        1.0  0.47706563339705993  0.24885698669975742  0.43582138453081587  1.0000
  H   H8        1.0  0.6069242829237004  0.35704906039325945  0.458616126138603  1.0000
  C   C15       1.0  0.9143630817631401  0.19895041466885616  0.6446989126258436  1.0000
  C   C16       1.0  0.9045739126963039  0.28178721818778873  0.5252843005622341  1.0000
  C   C17       1.0  0.8880166390548175  0.21585486991679598  0.40962038961519887  1.0000
  C   C18       1.0  0.8807005240442906  0.06508431725084929  0.41013775057945095  1.0000
  C   C19       1.0  0.8916859676923238  0.9811369005093333  0.5287446870221217  1.0000
  C   C20       1.0  0.9096870993265209  0.045770144716583694  0.6459608926546174  1.0000
  N   N3        1.0  0.8629490303396478  0.9976755054988958  0.29056875175282104  1.0000
  O   O1        1.0  0.8528638668191714  0.08025065313181146  0.17446593471662905  1.0000
  O   O2        1.0  0.8561946970528995  0.8634147218122439  0.29022388282360567  1.0000
  H   H9        1.0  0.8988009753089706  0.2747696438257284  0.9621184635353041  1.0000
  H   H10       1.0  0.907926300173694  0.398791060578545  0.5217219908872522  1.0000
  H   H11       1.0  0.8801631408200906  0.28336495571112463  0.31973455129262596  1.0000
  H   H12       1.0  0.8879813613808649  0.8643553452078584  0.5293661301185425  1.0000
  H   H13       1.0  0.9018225501059153  0.747367121810075  0.8607028268440445  1.0000
  C   C21       1.0  0.9119558014224286  0.6222833503619416  0.2640075696798265  1.0000
  C   C22       1.0  0.9819493589382602  0.699465482497613  0.2639363961565553  1.0000
  C   C23       1.0  0.01674904707422243  0.7398444949013623  0.14664317885052713  1.0000
  C   C24       1.0  0.9821314925102341  0.6996659697236198  0.028652872640987367  1.0000
  C   C25       1.0  0.9120943925757263  0.6224372253002932  0.026652289010986374  1.0000
  C   C26       1.0  0.8773305966578154  0.5845047292052932  0.14478907947306308  1.0000
  C   C27       1.0  0.0927292631417953  0.8187034188568013  0.1480352206518878  1.0000
  O   O3        1.0  0.15192837574377638  0.7163034730360396  0.1601784624463647  1.0000
  C   C28       1.0  0.2235936517084649  0.7890024985959563  0.1616315741271288  1.0000
  H   H14       1.0  0.885584410754938  0.5912492745579025  0.5915703395548708  1.0000
  H   H15       1.0  0.00969426438078158  0.7284658541972566  0.3549967282673949  1.0000
  H   H16       1.0  0.010001310552663735  0.7288052842287165  0.9385488445414757  1.0000
  H   H17       1.0  0.8233522771142776  0.5249677864603381  0.1440819208413575  1.0000
  H   H18       1.0  0.7804083977519658  0.4753350426718022  0.8157610308436536  1.0000
  H   H19       1.0  0.0963996277650514  0.8892793560980613  0.2311545615928816  1.0000
  H   H20       1.0  0.096577226812264  0.8893099683489372  0.05605507508812412  1.0000
  H   H21       1.0  0.2694962390896281  0.7072473407986801  0.17119863457634077  1.0000
  H   H22       1.0  0.23098284690222154  0.856329176590645  0.246508523287573  1.0000
  H   H23       1.0  0.23116979811048213  0.8563984034366685  0.06901290726139919  1.0000
  Zn  Zn1       1.0  0.8279801835895862  0.6182857024944602  0.6384611377592637  1.0000
  Zn  Zn2       1.0  0.996062655119614  0.6264338405145071  0.65219749654245  1.0000
  C   C29       1.0  0.9120981892578051  0.6166639858135483  0.8824873851900961  1.0000
  C   C30       1.0  0.9119464748841846  0.6280574654784599  0.4081715292743704  1.0000
  C   C31       1.0  0.9105660696088091  0.8857019813960596  0.6405475112911876  1.0000
  C   C32       1.0  0.9134785467565616  0.359017734801193  0.6501114651345226  1.0000
  O   O4        1.0  0.9757298015236666  0.6330811967748748  0.46176713826439636  1.0000
  O   O5        1.0  0.9758855752843341  0.6178234149254278  0.8393169792573699  1.0000
  O   O6        1.0  0.9746475096653346  0.8350749573965878  0.6439487512804609  1.0000
  O   O7        1.0  0.9769678097128581  0.41582966181814407  0.6571352642066106  1.0000
  O   O8        1.0  0.847074971638034  0.828889878411832  0.63352336540073  1.0000
  O   O9        1.0  0.8483130276753438  0.6116400682564359  0.8288915267220217  1.0000
  O   O10       1.0  0.8481572539594571  0.6268977995478184  0.4513401244483102  1.0000
  O   O11       1.0  0.8493952622201476  0.4096462542976668  0.6467083477308466  1.0000
