data_image0
_chemical_formula_structural       NC9NC5H8C6NCOCH9C6SCNH5Zn2C4O8
_chemical_formula_sum              "N4 C33 H22 O9 S1 Zn2"
_cell_length_a       17.807436237873137
_cell_length_b       10.300268703208214
_cell_length_c       10.302218930750287
_cell_angle_alpha    85.55128926110262
_cell_angle_beta     89.41007646359061
_cell_angle_gamma    88.37019024828581

_space_group_name_H-M_alt    "P 1"
_space_group_IT_number       1

loop_
  _space_group_symop_operation_xyz
  'x, y, z'

loop_
  _atom_site_type_symbol
  _atom_site_label
  _atom_site_symmetry_multiplicity
  _atom_site_fract_x
  _atom_site_fract_y
  _atom_site_fract_z
  _atom_site_occupancy
  N   N1        1.0  0.7068690741922831  0.3879407774522323  0.5574834339068291  1.0000
  C   C1        1.0  0.6462865754979732  0.3527546624115822  0.546462310811844  1.0000
  C   C2        1.0  0.5709286056976927  0.30898701020167807  0.532753230342389  1.0000
  C   C3        1.0  0.552832273474869  0.23759370501436483  0.4277764793628023  1.0000
  C   C4        1.0  0.47966358025342537  0.19498721098915792  0.41438323802511934  1.0000
  C   C5        1.0  0.4235425704405607  0.2233965162584608  0.5059343047890701  1.0000
  C   C6        1.0  0.3457831031267182  0.1782316830258721  0.4917828115652396  1.0000
  C   C7        1.0  0.2835951216282567  0.25997940281735166  0.517715150621604  1.0000
  C   C8        1.0  0.21028416672494965  0.2171698780454403  0.5043355874264392  1.0000
  C   C9        1.0  0.14704562297741816  0.30160875732658293  0.5306317340962308  1.0000
  N   N2        1.0  0.09621482313467129  0.3694917742589898  0.5517731097224292  1.0000
  C   C10       1.0  0.19857769550651055  0.092354670320133  0.46499834220074904  1.0000
  C   C11       1.0  0.2599083084217685  0.010593100360466465  0.4390576155473624  1.0000
  C   C12       1.0  0.3330998732879502  0.053008138366508646  0.4522346911924117  1.0000
  C   C13       1.0  0.44233024824656525  0.2952841258545733  0.6111302302475805  1.0000
  C   C14       1.0  0.5155518224520101  0.33770026178796697  0.6243678596628901  1.0000
  H   H1        1.0  0.5952185699722896  0.21512207710567988  0.35608148852774946  1.0000
  H   H2        1.0  0.4667466018272494  0.1413219881621284  0.33148337909271386  1.0000
  H   H3        1.0  0.29207834769085  0.3574345579151797  0.5465848453088742  1.0000
  H   H4        1.0  0.1421175496741089  0.05832210881347822  0.45440615018421626  1.0000
  H   H5        1.0  0.2507263536280771  0.9139582147639753  0.4089878044512272  1.0000
  H   H6        1.0  0.3797503907041667  0.987269594663697  0.43319113856156233  1.0000
  H   H7        1.0  0.4006611770551846  0.31721650448752503  0.6841194007460849  1.0000
  H   H8        1.0  0.5289967151871362  0.39258619330124483  0.7062263466110901  1.0000
  C   C15       1.0  0.9016218624380085  0.997364858151338  0.5546347933305222  1.0000
  C   C16       1.0  0.9142625719136069  0.006173655643417547  0.4194854690574938  1.0000
  C   C17       1.0  0.9216571119439682  0.8932634235046529  0.3516459525803521  1.0000
  C   C18       1.0  0.9140926228527322  0.7710221845425352  0.4195203519019925  1.0000
  C   C19       1.0  0.9014692012274788  0.7600574129627693  0.5546329021223981  1.0000
  C   C20       1.0  0.8955832999465535  0.873815027027977  0.6215515441216573  1.0000
  N   N3        1.0  0.9334291741502829  0.9007473102987658  0.2129677372501266  1.0000
  C   C21       1.0  0.9775206075237343  0.9977769355496942  0.14255695544937572  1.0000
  O   O1        1.0  0.019951912996133636  0.06875213993182516  0.20188997205092443  1.0000
  C   C22       1.0  0.9775249568454731  0.008686079376829532  0.9971133477915521  1.0000
  H   H9        1.0  0.8957233870052572  0.3215162648120762  0.6057297496564862  1.0000
  H   H10       1.0  0.9168692662385106  0.10090786713492307  0.3666282895993329  1.0000
  H   H11       1.0  0.9187464550811789  0.6844479704354354  0.3663055708367466  1.0000
  H   H12       1.0  0.8858543743576243  0.8662107789941158  0.7257935233984514  1.0000
  H   H13       1.0  0.8955750159880795  0.4285713746368217  0.6055397982092492  1.0000
  H   H14       1.0  0.9127262677190184  0.8263126599781029  0.1611037663882815  1.0000
  H   H15       1.0  0.9200192859250975  0.9943818151992467  0.9611469773204862  1.0000
  H   H16       1.0  0.9961435190785696  0.10646986680725701  0.9589817612444014  1.0000
  H   H17       1.0  0.016295486804040582  0.9331291867345685  0.9608042491373363  1.0000
  C   C23       1.0  0.9014754794782777  0.37877526857622634  0.173359714125783  1.0000
  C   C24       1.0  0.9722450056759582  0.31491402993970397  0.17610080092223868  1.0000
  C   C25       1.0  0.007426525066759782  0.282730034460708  0.060488008894232545  1.0000
  C   C26       1.0  0.972428219952375  0.31474451452273433  0.9409438678655988  1.0000
  C   C27       1.0  0.9016155836463232  0.3786469677713592  0.9359079908037939  1.0000
  C   C28       1.0  0.8665153115551204  0.41026457902340985  0.05267906749787165  1.0000
  S   S1        1.0  0.09789321365880133  0.20170952301290312  0.06542363749409463  1.0000
  C   C29       1.0  0.05863133707475643  0.045779932976029336  0.07826312619517739  1.0000
  N   N4        1.0  0.03286913549428738  0.9435620013919549  0.08668082217703277  1.0000
  H   H18       1.0  0.8745527498706716  0.40313951799413883  0.49964648413712687  1.0000
  H   H19       1.0  0.0002873840967339025  0.2896879988516705  0.2677614925208216  1.0000
  H   H20       1.0  0.0005961785002119881  0.28940223013398914  0.8523354977282763  1.0000
  H   H21       1.0  0.8119333140526505  0.4594991283572221  0.04971832493757255  1.0000
  H   H22       1.0  0.7681770875948696  0.4992198731331916  0.7191879799194099  1.0000
  Zn  Zn1       1.0  0.8192258478863164  0.38261332726213837  0.5558430666313687  1.0000
  Zn  Zn2       1.0  0.9838580353234447  0.37480863696943834  0.553424150982645  1.0000
  C   C30       1.0  0.9015884701007338  0.3734978690661832  0.7917700787774478  1.0000
  C   C31       1.0  0.9014972105828665  0.38392564846069166  0.31749723985282213  1.0000
  C   C32       1.0  0.9014932501617962  0.6158933198953043  0.5494594417221657  1.0000
  C   C33       1.0  0.9015923746693358  0.14152864005278465  0.559807946958776  1.0000
  O   O2        1.0  0.9639815620185289  0.3826866582285391  0.3649531443309164  1.0000
  O   O3        1.0  0.964056139727739  0.3688123003401569  0.7424778995411523  1.0000
  O   O4        1.0  0.9639784064502815  0.564549732093425  0.5468103581025274  1.0000
  O   O5        1.0  0.9640592390984257  0.18694923844465297  0.5606205892444607  1.0000
  O   O6        1.0  0.8390245879304483  0.5704727284516962  0.5486466291881806  1.0000
  O   O7        1.0  0.8391023208794872  0.3747368569419864  0.7443141013947616  1.0000
  O   O8        1.0  0.839027742942466  0.38861116983675115  0.3667877851712418  1.0000
  O   O9        1.0  0.8391054200390362  0.19287374074825547  0.5624553274284947  1.0000
