data_image0
_chemical_formula_structural       NC12NC2H8C7OC6OCH11C7OC6OCH10Zn2C4O8
_chemical_formula_sum              "N2 C46 H29 O12 Zn2"
_cell_length_a       17.80743265337812
_cell_length_b       10.299359160628079
_cell_length_c       10.299362532796529
_cell_angle_alpha    85.58430886835329
_cell_angle_beta     91.54954799628842
_cell_angle_gamma    89.45809633783337

_space_group_name_H-M_alt    "P 1"
_space_group_IT_number       1

loop_
  _space_group_symop_operation_xyz
  'x, y, z'

loop_
  _atom_site_type_symbol
  _atom_site_label
  _atom_site_symmetry_multiplicity
  _atom_site_fract_x
  _atom_site_fract_y
  _atom_site_fract_z
  _atom_site_occupancy
  N   N1        1.0  0.7075226114520322  0.4062360596697013  0.6015360884752365  1.0000
  C   C1        1.0  0.6566985796518057  0.43577206370372146  0.5328421808622668  1.0000
  C   C2        1.0  0.5934684702042932  0.47251271001954587  0.44739560739259615  1.0000
  C   C3        1.0  0.6051872681205911  0.5264913692039275  0.3207846972764561  1.0000
  C   C4        1.0  0.5438645502682226  0.5617292108637832  0.2377338752028428  1.0000
  C   C5        1.0  0.47066868615345303  0.5432516384338475  0.28063410479836715  1.0000
  C   C6        1.0  0.45797316285543904  0.48915433336110836  0.4077131354726995  1.0000
  C   C7        1.0  0.5201531948953357  0.45391974004240154  0.4907474465086727  1.0000
  C   C8        1.0  0.3802092950889692  0.4695635856999025  0.45347347277328764  1.0000
  C   C9        1.0  0.3614503866459434  0.496793901614546  0.5805197898921632  1.0000
  C   C10       1.0  0.2882245927218174  0.4783579172076859  0.6234605874162267  1.0000
  C   C11       1.0  0.23281481673328214  0.4324376263848088  0.5401929913541017  1.0000
  C   C12       1.0  0.1574525204680556  0.413449284046078  0.584534624113205  1.0000
  N   N2        1.0  0.096866571119734  0.39818393383866063  0.6201822464394942  1.0000
  C   C13       1.0  0.2508822824028545  0.40503858021887595  0.41368961410331323  1.0000
  C   C14       1.0  0.32405518258993776  0.42348926285121946  0.3704929348859469  1.0000
  H   H1        1.0  0.6616506756694588  0.5413036542532756  0.28635013097957307  1.0000
  H   H2        1.0  0.5530561862166586  0.6037936725995667  0.13996170273997  1.0000
  H   H3        1.0  0.4240253344100902  0.5728653164114079  0.2150481126079171  1.0000
  H   H4        1.0  0.5116596082587571  0.41046989869851647  0.5883949909518282  1.0000
  H   H5        1.0  0.4031459930813232  0.5339963830227625  0.6460969819749265  1.0000
  H   H6        1.0  0.27480229291751745  0.5002374718265119  0.7214710947095535  1.0000
  H   H7        1.0  0.20847015148813502  0.36910354823818015  0.348525539494847  1.0000
  H   H8        1.0  0.33694879070484046  0.40007423329990033  0.2727855551073599  1.0000
  C   C15       1.0  0.9021097769288773  0.020833460879504436  0.6108235978445065  1.0000
  C   C16       1.0  0.8399582867801054  0.027373204437240343  0.5234510599741917  1.0000
  C   C17       1.0  0.8091491610468867  0.9136755927060032  0.4783154007801526  1.0000
  C   C18       1.0  0.8401372764078542  0.7921080698984979  0.5237147354655505  1.0000
  C   C19       1.0  0.9022866045382476  0.783576374523048  0.6109063119228977  1.0000
  C   C20       1.0  0.9330186583245257  0.8985304209559914  0.6537527811239874  1.0000
  C   C21       1.0  0.7430017226162621  0.922728569423635  0.38721499561434247  1.0000
  O   O1        1.0  0.6952618998165337  0.01259220775349834  0.3964950869150867  1.0000
  C   C22       1.0  0.7310104628306107  0.8299068530300533  0.28559432979598043  1.0000
  C   C23       1.0  0.7921066343386265  0.7752743243854853  0.22446582630523015  1.0000
  C   C24       1.0  0.7800167658549639  0.689107499451598  0.12780607531090982  1.0000
  C   C25       1.0  0.7070281728234364  0.6566917333140095  0.08954824850263621  1.0000
  C   C26       1.0  0.6456789276066256  0.7123638590475256  0.14935288743283825  1.0000
  C   C27       1.0  0.657700106277353  0.7985910085220788  0.24605576977579124  1.0000
  O   O2        1.0  0.6979141819032035  0.569622716807365  0.9922145310942128  1.0000
  C   C28       1.0  0.6271101051852006  0.5282284760553324  0.9439560563828339  1.0000
  H   H9        1.0  0.8157921608389694  0.12119066783014955  0.4893092939776406  1.0000
  H   H10       1.0  0.8151927897416045  0.7039772086919647  0.4920689899485604  1.0000
  H   H11       1.0  0.9809602399440401  0.8926812458610248  0.721016774127778  1.0000
  H   H12       1.0  0.925935470129982  0.452802174550124  0.6447566431273832  1.0000
  H   H13       1.0  0.849226388753944  0.8001882931457062  0.2503322220709321  1.0000
  H   H14       1.0  0.8276877807787912  0.6476587705913135  0.08190835968363497  1.0000
  H   H15       1.0  0.5885275255105786  0.689727018320705  0.12184037841828044  1.0000
  H   H16       1.0  0.6096090587733695  0.840002300161409  0.29088261986831876  1.0000
  H   H17       1.0  0.6364763847446961  0.459615308435638  0.8679306405807865  1.0000
  H   H18       1.0  0.5940923196182089  0.6132462111521009  0.8998652365441652  1.0000
  H   H19       1.0  0.5955861687531079  0.4773366784508677  0.023981168842016617  1.0000
  C   C29       1.0  0.9021395280223664  0.40208561614662885  0.22949523385411383  1.0000
  C   C30       1.0  0.8308123059017792  0.3448788499305666  0.22936124089168852  1.0000
  C   C31       1.0  0.794513305818169  0.31735541538789436  0.1121067789657666  1.0000
  C   C32       1.0  0.8310239076521032  0.3450380351476472  0.9941170907892903  1.0000
  C   C33       1.0  0.9022568559458006  0.40232424926394245  0.9922346513543441  1.0000
  C   C34       1.0  0.9373420089282261  0.43077440582753973  0.1104399147070505  1.0000
  C   C35       1.0  0.7195752815585006  0.2556061701165173  0.11431456668174776  1.0000
  O   O3        1.0  0.7042079820874457  0.17671566006972061  0.20946746628491408  1.0000
  C   C36       1.0  0.6620736570327246  0.28334717394578246  0.008648522899825649  1.0000
  C   C37       1.0  0.6563250299351471  0.40684130866370816  0.9405318194359088  1.0000
  C   C38       1.0  0.6013417034449008  0.43215856377878153  0.8422053717457775  1.0000
  C   C39       1.0  0.5507834217044859  0.3355377409208096  0.8107257677220092  1.0000
  C   C40       1.0  0.5557420242893929  0.2122535035910822  0.8797228708856819  1.0000
  C   C41       1.0  0.6107185888977109  0.18680918642857236  0.9781213873758481  1.0000
  O   O4        1.0  0.4967087850935716  0.3658162927368549  0.7111543610332873  1.0000
  C   C42       1.0  0.4419121643251667  0.2771863450765133  0.6691487382150214  1.0000
  H   H20       1.0  0.8029911695928048  0.32271279113371265  0.3205607237705317  1.0000
  H   H21       1.0  0.804162149801502  0.3205129501065975  0.903774138221519  1.0000
  H   H22       1.0  0.992293228781229  0.47496236328366903  0.10972054184755198  1.0000
  H   H23       1.0  0.6937890939978807  0.4843189333341882  0.964157834664789  1.0000
  H   H24       1.0  0.597784342403763  0.5276936008452113  0.7904806575025374  1.0000
  H   H25       1.0  0.5174151568269887  0.13547952611350378  0.8581523774949367  1.0000
  H   H26       1.0  0.6135459958971019  0.09110737339168251  0.029697933452569103  1.0000
  H   H27       1.0  0.4066356422230291  0.3266120414571556  0.5893806460589355  1.0000
  H   H28       1.0  0.40521982778519583  0.2457314764959999  0.7509380400155692  1.0000
  H   H29       1.0  0.46989756685983  0.19128576126572666  0.6318248618661189  1.0000
  Zn  Zn1       1.0  0.819878871606146  0.4039089250840973  0.6069244534565243  1.0000
  Zn  Zn2       1.0  0.984510307645196  0.40050047806959227  0.6148044733828337  1.0000
  C   C43       1.0  0.9022317928517867  0.39710540720380444  0.8480599142847121  1.0000
  C   C44       1.0  0.9021591845691951  0.4073055974216781  0.37366922624854393  1.0000
  C   C45       1.0  0.9022485103238622  0.6394002240169897  0.6057152761620122  1.0000
  C   C46       1.0  0.9021424105688508  0.16500922145973054  0.6160139307519938  1.0000
  O   O5        1.0  0.9646425521652983  0.4077583170903063  0.4250457610226501  1.0000
  O   O6        1.0  0.9646998756125713  0.3940647752583813  0.8026637583504275  1.0000
  O   O7        1.0  0.964712533173625  0.5897209219305528  0.6069687082712278  1.0000
  O   O8        1.0  0.9646298384138637  0.21210218084114585  0.6207407110390708  1.0000
  O   O9        1.0  0.8397592846568479  0.5923072234770907  0.6009882131043927  1.0000
  O   O10       1.0  0.8397466274434326  0.39665263711822923  0.796683194106947  1.0000
  O   O11       1.0  0.8396893037954752  0.4103461332037237  0.4190636353727535  1.0000
  O   O12       1.0  0.8396765900537914  0.2146899876960997  0.614758682756058  1.0000
