data_image0
_chemical_formula_structural       NC6NC2H4C6ClH5C6NCH7Zn2C4O8
_chemical_formula_sum              "N3 C25 H16 Cl1 Zn2 O8"
_cell_length_a       14.927258858638513
_cell_length_b       10.302970706292308
_cell_length_c       9.273390368590329
_cell_angle_alpha    86.16779528597041
_cell_angle_beta     89.9908392513429
_cell_angle_gamma    89.9983139300619

_space_group_name_H-M_alt    "P 1"
_space_group_IT_number       1

loop_
  _space_group_symop_operation_xyz
  'x, y, z'

loop_
  _atom_site_type_symbol
  _atom_site_label
  _atom_site_symmetry_multiplicity
  _atom_site_fract_x
  _atom_site_fract_y
  _atom_site_fract_z
  _atom_site_occupancy
  N   N1        1.0  0.8436978906434183  0.4056264778496095  0.4102087477319498  1.0000
  C   C1        1.0  0.7661713994752176  0.4056264522846169  0.4102087583184064  1.0000
  C   C2        1.0  0.6697388919337883  0.4056265554266519  0.4102087084687131  1.0000
  C   C3        1.0  0.6226995549838896  0.3830869868394722  0.2835455101752822  1.0000
  C   C4        1.0  0.5289882436531602  0.3830870086421905  0.283545376741662  1.0000
  C   C5        1.0  0.48192282794348135  0.40562639576275566  0.4102087270924912  1.0000
  C   C6        1.0  0.38549025341051674  0.4056264989074023  0.4102086772368745  1.0000
  N   N2        1.0  0.30796376224231614  0.40562647334241014  0.41020868782333153  1.0000
  C   C7        1.0  0.528962097901844  0.42816596435254745  0.5368719253799994  1.0000
  C   C8        1.0  0.6226734092325739  0.4281659425498289  0.5368720588136191  1.0000
  H   H1        1.0  0.6584058958433271  0.3655499304522567  0.18499427235291477  1.0000
  H   H2        1.0  0.49330224032910935  0.36555010824121936  0.18499426742093547  1.0000
  H   H3        1.0  0.49325582401967777  0.4457030124849368  0.6354232712677659  1.0000
  H   H4        1.0  0.6583594125416878  0.44570293162481756  0.635423278144476  1.0000
  C   C9        1.0  0.07583510572820254  0.024379077393667625  0.4102149454335233  1.0000
  C   C10       1.0  0.1683359701654885  0.021501596933980245  0.4379758992680431  1.0000
  C   C11       1.0  0.2142324302221322  0.9031170230572402  0.451750042861263  1.0000
  C   C12       1.0  0.16833596945695095  0.7863936276155838  0.43797583148388464  1.0000
  C   C13       1.0  0.07583511528054615  0.786864019995688  0.4102150279396193  1.0000
  C   C14       1.0  0.03003558301180399  0.9064504030445029  0.39646984149455333  1.0000
  Cl  Cl1       1.0  0.3297880488011793  0.901025880376987  0.486429989031117  1.0000
  H   H5        1.0  0.04099165026845711  0.3527660844902156  0.39975707341552713  1.0000
  H   H6        1.0  0.20512581199959157  0.11088241634929319  0.44901698154015346  1.0000
  H   H7        1.0  0.2051257765827137  0.6956812225305119  0.44901687798864565  1.0000
  H   H8        1.0  0.9586961092593955  0.9077412757452631  0.37505971500687996  1.0000
  H   H9        1.0  0.04099164587301686  0.4597381204173858  0.3997573455340535  1.0000
  C   C15       1.0  0.07587664138738955  0.40157300135196206  0.9869691885461576  1.0000
  C   C16       1.0  0.15815502800112502  0.39899341340244865  0.060571670046048805  1.0000
  C   C17       1.0  0.23899829465371772  0.4084825754352203  0.9851568778877664  1.0000
  C   C18       1.0  0.23961721120488738  0.4209030405844896  0.8335288896049464  1.0000
  C   C19       1.0  0.15788485510712036  0.4212931671766658  0.7591168060226199  1.0000
  C   C20       1.0  0.07579361996941097  0.4096700838486371  0.8334607233076299  1.0000
  N   N3        1.0  0.3219745883515117  0.43188703650988924  0.7527406143149564  1.0000
  C   C21       1.0  0.41042442897433573  0.4320400468276313  0.8197288075368733  1.0000
  H   H10       1.0  0.9344792365556571  0.3392100204079773  0.2728091893740179  1.0000
  H   H11       1.0  0.30072117028138967  0.4072879384859773  0.04627787908000158  1.0000
  H   H12       1.0  0.8670207986755868  0.308808124966252  0.7379696467839549  1.0000
  H   H13       1.0  0.3190679208265719  0.4404912365885316  0.6398647813155343  1.0000
  H   H14       1.0  0.4162383875946274  0.5153225483726713  0.889197344290808  1.0000
  H   H15       1.0  0.4213517818137953  0.33923754142017026  0.8852827431102983  1.0000
  H   H16       1.0  0.46292348940192096  0.4418547833750293  0.7348382383319794  1.0000
  Zn  Zn1       1.0  0.9776749996546926  0.4056230773962377  0.4102170585629487  1.0000
  Zn  Zn2       1.0  0.17398666295320186  0.4056193527150291  0.4102122000672441  1.0000
  C   C22       1.0  0.07580729543978171  0.4029675113728568  0.6734557047929202  1.0000
  C   C23       1.0  0.07585651087155476  0.40827655814854985  0.14697369524740386  1.0000
  C   C24       1.0  0.07583108123640317  0.64268316711906  0.4044715299262145  1.0000
  C   C25       1.0  0.07583265807988743  0.168559343333041  0.4159579469571997  1.0000
  O   O1        1.0  0.1503490080212864  0.4105192556133354  0.2006708255815357  1.0000
  O   O2        1.0  0.1503108084315976  0.4007210035821043  0.6197544720760979  1.0000
  O   O3        1.0  0.15032901133059284  0.5942944415698017  0.4025478477884781  1.0000
  O   O4        1.0  0.15033073814502057  0.2169458258804644  0.41787734180375535  1.0000
  O   O5        1.0  0.001330857471338652  0.5942966042334148  0.4025519168205143  1.0000
  O   O6        1.0  0.001312654575853946  0.40072472531763487  0.6197584642591204  1.0000
  O   O7        1.0  0.0013508543951192844  0.4105229155318258  0.20067308491163113  1.0000
  O   O8        1.0  0.0013325845045884  0.2169494775467404  0.41787970919332834  1.0000
