data_image0
_chemical_formula_structural       NC6NC2H4C6NH7C7OH6Zn2C4O8
_chemical_formula_sum              "N3 C25 H17 O9 Zn2"
_cell_length_a       14.927258858638513
_cell_length_b       9.274771166103582
_cell_length_c       9.274074313596557
_cell_angle_alpha    86.0140142098405
_cell_angle_beta     90.23360497227152
_cell_angle_gamma    90.59705168739299

_space_group_name_H-M_alt    "P 1"
_space_group_IT_number       1

loop_
  _space_group_symop_operation_xyz
  'x, y, z'

loop_
  _atom_site_type_symbol
  _atom_site_label
  _atom_site_symmetry_multiplicity
  _atom_site_fract_x
  _atom_site_fract_y
  _atom_site_fract_z
  _atom_site_occupancy
  N   N1        1.0  0.8496540012830149  0.5630266914471558  0.4073501918921718  1.0000
  C   C1        1.0  0.7721275099583365  0.5630266630343117  0.4073502025307909  1.0000
  C   C2        1.0  0.6756950030294625  0.5630267776718094  0.4073501524707164  1.0000
  C   C3        1.0  0.6281604258264085  0.5380868101096102  0.2807342163423727  1.0000
  C   C4        1.0  0.5344491143023006  0.538086834442094  0.2807340828654321  1.0000
  C   C5        1.0  0.48787893793711934  0.563026600260472  0.4073501714207115  1.0000
  C   C6        1.0  0.3914463640167129  0.5630267149008765  0.40735012135470927  1.0000
  N   N2        1.0  0.3139198726920345  0.5630266864880324  0.40735013199332815  1.0000
  C   C7        1.0  0.5354134481486406  0.5879665678255783  0.5339661075431272  1.0000
  C   C8        1.0  0.6291247596727488  0.5879665434930943  0.5339662410200681  1.0000
  H   H1        1.0  0.663481441501262  0.5186821079511721  0.18221975115283096  1.0000
  H   H2        1.0  0.49837778725570836  0.5186823054894327  0.18221974585745482  1.0000
  H   H3        1.0  0.5000924996754531  0.607371260724657  0.6324806808139314  1.0000
  H   H4        1.0  0.665196087632636  0.6073711708786051  0.6324806878558746  1.0000
  C   C9        1.0  0.07904294772729006  0.1394378391894291  0.40813575124184354  1.0000
  C   C10       1.0  0.05809374827576019  0.2214814446553406  0.2792503328581135  1.0000
  C   C11       1.0  0.04550654109959454  0.15515888577222903  0.14954719165052377  1.0000
  C   C12       1.0  0.0539130575502296  0.005406026701279437  0.1477900168461026  1.0000
  C   C13       1.0  0.07320109745314901  0.9220256138055842  0.27490492652608767  1.0000
  C   C14       1.0  0.08453948844351089  0.9866045779810554  0.40657710903639543  1.0000
  N   N3        1.0  0.025104060178502877  0.24028808449248462  0.019245247771531918  1.0000
  H   H5        1.0  0.18068158424916048  0.2221943538327853  0.7235580175966803  1.0000
  H   H6        1.0  0.05357537492029186  0.3380687185259974  0.27869670731133356  1.0000
  H   H7        1.0  0.044652468539734924  0.9529392256810643  0.047996535434164496  1.0000
  H   H8        1.0  0.07713834394974554  0.805821080740598  0.2707772464243696  1.0000
  H   H9        1.0  0.14937186540470848  0.6916447773501628  0.6211759313394036  1.0000
  H   H10       1.0  0.018931712743883725  0.3523615265075084  0.019198436672288592  1.0000
  H   H11       1.0  0.015933964567190984  0.19186175735947428  0.9218219802902015  1.0000
  C   C15       1.0  0.08069162867316337  0.5588667102981495  0.9841228814456047  1.0000
  C   C16       1.0  0.00285872887901606  0.6014522882110191  0.053933388332671583  1.0000
  C   C17       1.0  0.9295124407150991  0.6556303333065618  0.9746514816421891  1.0000
  C   C18       1.0  0.9322844741814863  0.6686638628505088  0.8233474998069998  1.0000
  C   C19       1.0  0.008896513431396299  0.6243368053817554  0.7524003111670212  1.0000
  C   C20       1.0  0.08289076317844839  0.5671756246320325  0.8305899999479722  1.0000
  C   C21       1.0  0.8556026943600146  0.7268086508418419  0.7378498195940137  1.0000
  O   O1        1.0  0.785662970620209  0.7669990991777311  0.7984821569305325  1.0000
  H   H12       1.0  0.2993399537981076  0.522116352651183  0.09097905083039981  1.0000
  H   H13       1.0  0.9994983222431105  0.5960589711155819  0.1708628952992457  1.0000
  H   H14       1.0  0.8709479292201868  0.6886514377256878  0.031992384471352116  1.0000
  H   H15       1.0  0.009979926840811833  0.6313271577782953  0.6352307867888136  1.0000
  H   H16       1.0  0.22982914555444417  0.5371951791735536  0.5531793241512486  1.0000
  H   H17       1.0  0.8588405940118933  0.735564206060088  0.6209641929403373  1.0000
  Zn  Zn1       1.0  0.9836311076151507  0.5630229065899526  0.4073585095967107  1.0000
  Zn  Zn2       1.0  0.17994273129980365  0.5630187721897268  0.40735365876063967  1.0000
  C   C22       1.0  0.08243582112413983  0.5598586596811493  0.6706001199508076  1.0000
  C   C23       1.0  0.08114017368371762  0.5661848404672079  0.14411218646399893  1.0000
  C   C24       1.0  0.0834809818282427  0.8264156240090923  0.40112842670949966  1.0000
  C   C25       1.0  0.08009493494763613  0.2996261438568735  0.4135839597347921  1.0000
  O   O2        1.0  0.155789906758832  0.5686330098452989  0.19780422945974152  1.0000
  O   O3        1.0  0.1567820599457362  0.5574062601323704  0.616903982400008  1.0000
  O   O4        1.0  0.15762504004028388  0.7726543946317515  0.39930368081601064  1.0000
  O   O5        1.0  0.1549468594626182  0.35338488460527706  0.4154044229624763  1.0000
  O   O6        1.0  0.008626912460803386  0.7726567941773093  0.3993077453889453  1.0000
  O   O7        1.0  0.007783943406701967  0.5574103919632261  0.6169079669375293  1.0000
  O   O8        1.0  0.006791785451334632  0.5686370744007938  0.19780648128692868  1.0000
  O   O9        1.0  0.005948738365255005  0.3533889399043191  0.41540678286499766  1.0000
