data_image0
_chemical_formula_structural       NC10NC5H10C12SCH12C16H10Zn2C4O8
_chemical_formula_sum              "N2 C48 H32 S1 Zn2 O8"
_cell_length_a       19.4436361288709
_cell_length_b       10.299776766347529
_cell_length_c       10.299151387937775
_cell_angle_alpha    85.58705518708118
_cell_angle_beta     89.69351296060239
_cell_angle_gamma    89.39962546058797

_space_group_name_H-M_alt    "P 1"
_space_group_IT_number       1

loop_
  _space_group_symop_operation_xyz
  'x, y, z'

loop_
  _atom_site_type_symbol
  _atom_site_label
  _atom_site_symmetry_multiplicity
  _atom_site_fract_x
  _atom_site_fract_y
  _atom_site_fract_z
  _atom_site_occupancy
  N   N1        1.0  0.6475539295911732  0.40867116173253404  0.5621506155154177  1.0000
  C   C1        1.0  0.5887156321078812  0.4185766490336254  0.5765351930481355  1.0000
  C   C2        1.0  0.5153833999015349  0.4309301333312303  0.5945282623288835  1.0000
  C   C3        1.0  0.4732094537386169  0.3989092344761121  0.49985217522838843  1.0000
  C   C4        1.0  0.39730271997009153  0.4093487737855477  0.5051808078833195  1.0000
  C   C5        1.0  0.3575627197586589  0.3846286984407346  0.6122529217038071  1.0000
  C   C6        1.0  0.2814421005525808  0.3885419393252512  0.5992936262033015  1.0000
  C   C7        1.0  0.2408646971549609  0.44622671083438276  0.6930679098166865  1.0000
  C   C8        1.0  0.16920116274438654  0.4498617106398038  0.6825240991706134  1.0000
  C   C9        1.0  0.1371203315650586  0.395416005767709  0.5784925145382527  1.0000
  C   C10       1.0  0.0633275491441572  0.39911220819651017  0.56779342359572  1.0000
  N   N2        1.0  0.0040031571464862  0.4020837610341512  0.5591920638175814  1.0000
  C   C11       1.0  0.1769729491546815  0.33702425046178974  0.48510143439715675  1.0000
  C   C12       1.0  0.2486529340402283  0.3333349625799109  0.49539346285250185  1.0000
  C   C13       1.0  0.385696333176614  0.34420209568386134  0.7433466628276673  1.0000
  C   C14       1.0  0.44435013775660537  0.3873356035711024  0.7905916714751656  1.0000
  C   C15       1.0  0.4885440267577774  0.48517353339316904  0.7162284250204671  1.0000
  H   H1        1.0  0.49531787925477955  0.36976927962613676  0.40954317343337276  1.0000
  H   H2        1.0  0.3726048302493628  0.43181923599170946  0.41202278376568535  1.0000
  H   H3        1.0  0.26472371535568734  0.4895378556998473  0.773919037361565  1.0000
  H   H4        1.0  0.1388449412625863  0.49519452134513364  0.7554477944449502  1.0000
  H   H5        1.0  0.1526419982315036  0.29390884668741735  0.40458480222271315  1.0000
  H   H6        1.0  0.2783438973857779  0.28575896817928476  0.42316599617282225  1.0000
  H   H7        1.0  0.3547389911431497  0.28000229631070117  0.8075909531169966  1.0000
  H   H8        1.0  0.4595013193912524  0.353293939126759  0.8885252526831654  1.0000
  H   H9        1.0  0.4584204044903272  0.5758802259418367  0.6909807627533372  1.0000
  H   H10       1.0  0.5318216280792883  0.5107754241945202  0.7793151889224914  1.0000
  C   C16       1.0  0.8258466835856715  0.02401106807620335  0.5606692037919534  1.0000
  C   C17       1.0  0.8299654129022679  0.012432811735286766  0.6971488459897179  1.0000
  C   C18       1.0  0.8319861854787505  0.8894286222158346  0.7663100752245178  1.0000
  C   C19       1.0  0.8298338956335506  0.7771474725020414  0.6971651278960018  1.0000
  C   C20       1.0  0.8257170033238797  0.7867337470559942  0.5606847210694745  1.0000
  C   C21       1.0  0.8237460557030369  0.9106043081894871  0.4932007414101287  1.0000
  C   C22       1.0  0.8363357566949976  0.8782441796211978  0.9106902004589632  1.0000
  C   C23       1.0  0.7969642875964397  0.7855437000120393  0.9850596340585153  1.0000
  C   C24       1.0  0.8010783999931517  0.7752519033115788  0.12093472582372855  1.0000
  C   C25       1.0  0.844392306887098  0.8573859796483598  0.18424848029362542  1.0000
  C   C26       1.0  0.8839277664062678  0.9495102415659066  0.1112507497405645  1.0000
  C   C27       1.0  0.8799145083792895  0.9601500586323791  0.9753644058929455  1.0000
  S   S1        1.0  0.8497471249434343  0.843718249183647  0.3585942873725247  1.0000
  C   C28       1.0  0.7806308545345463  0.9610659106130937  0.3786966526941392  1.0000
  H   H11       1.0  0.8243043196225385  0.35587589121906205  0.508664040205028  1.0000
  H   H12       1.0  0.8306628884323265  0.09927413309226885  0.7501013623181416  1.0000
  H   H13       1.0  0.8323247439494381  0.6821107579525414  0.7499066230791334  1.0000
  H   H14       1.0  0.8205691014160472  0.9187679436762878  0.38791249664454464  1.0000
  H   H15       1.0  0.824113941858061  0.46293341980852715  0.5086847270292565  1.0000
  H   H16       1.0  0.7623459817718251  0.7221988094154447  0.938232858524101  1.0000
  H   H17       1.0  0.7703220098170273  0.7037823648001911  0.17691147113287742  1.0000
  H   H18       1.0  0.9178138917967734  0.012925233175207442  0.1596725360571598  1.0000
  H   H19       1.0  0.9115388261405984  0.031235224028248288  0.920793498858496  1.0000
  H   H20       1.0  0.7944046636342764  0.05711971056884591  0.32970469746907993  1.0000
  H   H21       1.0  0.7726500953210239  0.9719387960496273  0.48404211759773424  1.0000
  H   H22       1.0  0.7322375903382533  0.9264093371769746  0.33697624598149  1.0000
  C   C29       1.0  0.8258217221813892  0.4052029274340474  0.17930563884458328  1.0000
  C   C30       1.0  0.7594506881841235  0.4603819526030304  0.17494906716176306  1.0000
  C   C31       1.0  0.7257581503668824  0.48853355648716423  0.055584584161451955  1.0000
  C   C32       1.0  0.7593309756096892  0.46076175499038685  0.939637733688346  1.0000
  C   C33       1.0  0.8257419324082282  0.40554184811733873  0.9420482840975719  1.0000
  C   C34       1.0  0.8585791385484974  0.378104313176942  0.06231222531897962  1.0000
  C   C35       1.0  0.6555456344888537  0.5469065934325659  0.05202126652061656  1.0000
  C   C36       1.0  0.6380587916711089  0.6470409777435451  0.9568635136501148  1.0000
  C   C37       1.0  0.5719634427507447  0.7019426776620872  0.9536380842401271  1.0000
  C   C38       1.0  0.5224878642759819  0.6575344600404962  0.045275877970592175  1.0000
  C   C39       1.0  0.5393512511301252  0.5579699302339656  0.14027672319676565  1.0000
  C   C40       1.0  0.6054268826171588  0.5029810028406209  0.1437518795558639  1.0000
  C   C41       1.0  0.4544521719731403  0.7141017252648054  0.041827218468889926  1.0000
  C   C42       1.0  0.3974732397064655  0.7614759560654076  0.03893892968194158  1.0000
  C   C43       1.0  0.3307515025071651  0.8169507545482867  0.03555677209252783  1.0000
  C   C44       1.0  0.2737817781074017  0.8643175673085481  0.03266905658033315  1.0000
  H   H23       1.0  0.851336250120185  0.3839164167017998  0.5084619270747557  1.0000
  H   H24       1.0  0.7341752356652839  0.4832431871846612  0.26446312992472665  1.0000
  H   H25       1.0  0.7332295175227658  0.4806229159793261  0.8474818465235097  1.0000
  H   H26       1.0  0.9097719910973004  0.3355397745508435  0.06495709359915547  1.0000
  H   H27       1.0  0.9509164606696476  0.30056203095419765  0.7393653693790245  1.0000
  H   H28       1.0  0.6757583313985696  0.6840458537085459  0.8860049114194211  1.0000
  H   H29       1.0  0.55951183784783  0.7792211438979313  0.8798904547670974  1.0000
  H   H30       1.0  0.5013846455199743  0.5226111685110135  0.2114689813858617  1.0000
  H   H31       1.0  0.617065808175269  0.42495592721191056  0.21711322254905932  1.0000
  H   H32       1.0  0.22375765644057097  0.9059094773236889  0.03013341131628677  1.0000
  Zn  Zn1       1.0  0.7504174780080364  0.4067667121791567  0.5613043535196056  1.0000
  Zn  Zn2       1.0  0.9011396009314163  0.40397760772302926  0.5600490068448767  1.0000
  C   C45       1.0  0.8257563666169445  0.40030420810277684  0.7978734828821212  1.0000
  C   C46       1.0  0.8258023579114218  0.4104417200076209  0.32347999127455607  1.0000
  C   C47       1.0  0.8257384983595942  0.6425606970249469  0.5555065952263973  1.0000
  C   C48       1.0  0.8258201749959356  0.16818367177592336  0.5658469485660091  1.0000
  O   O1        1.0  0.8829941202034701  0.4111357903436248  0.37138982336316095  1.0000
  O   O2        1.0  0.8829592083569193  0.39749229213804105  0.7490104978458527  1.0000
  O   O3        1.0  0.8829440083119822  0.5931174855626941  0.5532975277275078  1.0000
  O   O4        1.0  0.8830092688257614  0.21551060711758938  0.5671026965347795  1.0000
  O   O5        1.0  0.768547758679628  0.5952337137377919  0.5542506642512599  1.0000
  O   O6        1.0  0.7685629584633387  0.3996100805758618  0.749963565155433  1.0000
  O   O7        1.0  0.7685978705266476  0.4132535328310376  0.3723413292609379  1.0000
  O   O8        1.0  0.7686130191375217  0.21762834035958004  0.5680542998008402  1.0000
