data_image0
_chemical_formula_structural       NC8NH4C6ClH5C6OCH6Zn2C4O8
_chemical_formula_sum              "N2 C25 H15 Cl1 O9 Zn2"
_cell_length_a       13.859017124695912
_cell_length_b       9.276545438789551
_cell_length_c       9.273891588657152
_cell_angle_alpha    86.10611493905307
_cell_angle_beta     89.68011635111247
_cell_angle_gamma    89.40963735980037

_space_group_name_H-M_alt    "P 1"
_space_group_IT_number       1

loop_
  _space_group_symop_operation_xyz
  'x, y, z'

loop_
  _atom_site_type_symbol
  _atom_site_label
  _atom_site_symmetry_multiplicity
  _atom_site_fract_x
  _atom_site_fract_y
  _atom_site_fract_z
  _atom_site_occupancy
  N   N1        1.0  0.9037412269714494  0.5637230777206652  0.4109978626985927  1.0000
  C   C1        1.0  0.831757719687502  0.5403603900646907  0.3548200011016738  1.0000
  C   C2        1.0  0.7422144820520538  0.511300616403235  0.2849419615321591  1.0000
  C   C3        1.0  0.6541494053764775  0.5396309406301278  0.353064258811491  1.0000
  C   C4        1.0  0.5669841559366676  0.5113018368316067  0.2849413829393268  1.0000
  C   C5        1.0  0.5680665232493518  0.4546347214334104  0.1486752997401537  1.0000
  C   C6        1.0  0.655947309057937  0.4264132868824833  0.08081522332190816  1.0000
  C   C7        1.0  0.7429318938553542  0.45463238293014463  0.14867647673771955  1.0000
  C   C8        1.0  0.4765178764693734  0.5403613119974366  0.3548195036176105  1.0000
  N   N2        1.0  0.40379235115477075  0.563723398337409  0.4109976468737706  1.0000
  H   H1        1.0  0.6534528244133397  0.5834934832789225  0.45853747235514386  1.0000
  H   H2        1.0  0.5011251962989676  0.4323376686356022  0.09505559566925226  1.0000
  H   H3        1.0  0.6566425401765758  0.38264032409234633  0.9755556112901874  1.0000
  H   H4        1.0  0.8105814353465286  0.4323332387086048  0.09505777068432653  1.0000
  C   C9        1.0  0.1566844010886539  0.14028596843395857  0.4107601546296613  1.0000
  C   C10       1.0  0.1575456604927323  0.22273713406250994  0.2777193954345192  1.0000
  C   C11       1.0  0.14961767312397845  0.15648355833780658  0.1475742954061412  1.0000
  C   C12       1.0  0.1406366681191633  0.006900469843812646  0.14846770417056332  1.0000
  C   C13       1.0  0.14127316672370327  0.9228888583630859  0.2790664979860449  1.0000
  C   C14       1.0  0.15085845993456193  0.987149591978149  0.41124784660022096  1.0000
  Cl  Cl1       1.0  0.14948360128685545  0.261620326421647  0.9830178622124639  1.0000
  H   H5        1.0  0.20518791495520497  0.40528956965031127  0.6373762091613937  1.0000
  H   H6        1.0  0.1620775064035591  0.3394319558868124  0.27486561820037503  1.0000
  H   H7        1.0  0.1340811244387401  0.9552704514818706  0.04777968378760189  1.0000
  H   H8        1.0  0.13656580667591411  0.8066044765480238  0.2764160023536415  1.0000
  H   H9        1.0  0.11764403826866258  0.6905168450411572  0.6443255441602973  1.0000
  C   C15       1.0  0.15537838897198997  0.559898871844924  0.9877264623995842  1.0000
  C   C16       1.0  0.23397758245396427  0.6208033077349595  0.056335205959692436  1.0000
  C   C17       1.0  0.30702957978535617  0.6924750382838694  0.976566706102645  1.0000
  C   C18       1.0  0.30174288684440254  0.7036036488722317  0.8251325038056918  1.0000
  C   C19       1.0  0.2251768423051701  0.6418261184703142  0.7551810588178025  1.0000
  C   C20       1.0  0.1521644276492784  0.5675365950197018  0.834281502551923  1.0000
  O   O1        1.0  0.3830059097764895  0.7516041103502424  0.05180733601281906  1.0000
  C   C21       1.0  0.46194024023845004  0.8274908384228152  0.9847746358252997  1.0000
  H   H10       1.0  0.9264805171888449  0.47133542190100003  0.09869278625662004  1.0000
  H   H11       1.0  0.3569468983298451  0.7586655427352071  0.7602420554817502  1.0000
  H   H12       1.0  0.22434716408695834  0.6492576941041748  0.6381041625296646  1.0000
  H   H13       1.0  0.43536835620120967  0.9250683690885151  0.9204352586220352  1.0000
  H   H14       1.0  0.5026645152862044  0.7559274217941718  0.9143207423974906  1.0000
  H   H15       1.0  0.511095054580047  0.861957055902811  0.06963801032552897  1.0000
  Zn  Zn1       1.0  0.04804517758737248  0.5637193955729731  0.4110061264321305  1.0000
  Zn  Zn2       1.0  0.25948842894028634  0.5637154246121951  0.4110011985566162  1.0000
  C   C22       1.0  0.15280931662746244  0.5603485627138753  0.674261183494903  1.0000
  C   C23       1.0  0.15472658580051069  0.5670880780783816  0.1477462839614796  1.0000
  C   C24       1.0  0.15197650808761254  0.8270224850946457  0.40541178062938243  1.0000
  C   C25       1.0  0.15555933381590803  0.30041242397432066  0.4165957626783039  1.0000
  O   O2        1.0  0.23474948992131495  0.5694930436820074  0.20144852415109193  1.0000
  O   O3        1.0  0.23326695687842955  0.5579394917046452  0.6205547876074131  1.0000
  O   O4        1.0  0.23259336606480474  0.7732820701216983  0.4034569935279866  1.0000
  O   O5        1.0  0.2354230089230256  0.35415047460625315  0.41854621016297355  1.0000
  O   O6        1.0  0.07211052544944632  0.7732843455817715  0.4034611148198739  1.0000
  O   O7        1.0  0.07278410463233698  0.5579434988908667  0.6205588330420975  1.0000
  O   O8        1.0  0.07426664466433253  0.5694969849848305  0.20145083657388585  1.0000
  O   O9        1.0  0.07494016332277087  0.3541544065706346  0.4185486306474131  1.0000
