data_image0
_chemical_formula_structural       NC8NH4C6NH7C7F3H5Zn2C4O8
_chemical_formula_sum              "N3 C25 H16 F3 Zn2 O8"
_cell_length_a       13.859017124695912
_cell_length_b       9.274771166103582
_cell_length_c       10.299327507215196
_cell_angle_alpha    85.44807283694688
_cell_angle_beta     89.98117985165102
_cell_angle_gamma    90.59707951677755

_space_group_name_H-M_alt    "P 1"
_space_group_IT_number       1

loop_
  _space_group_symop_operation_xyz
  'x, y, z'

loop_
  _atom_site_type_symbol
  _atom_site_label
  _atom_site_symmetry_multiplicity
  _atom_site_fract_x
  _atom_site_fract_y
  _atom_site_fract_z
  _atom_site_occupancy
  N   N1        1.0  0.9199506165504032  0.5788813829728638  0.5648406362494376  1.0000
  C   C1        1.0  0.8474490519144399  0.5560245982786245  0.5142730048772313  1.0000
  C   C2        1.0  0.7572614231643074  0.527594103035733  0.4513733697662723  1.0000
  C   C3        1.0  0.6698245564792461  0.5553109602409612  0.5126925991199358  1.0000
  C   C4        1.0  0.5820311119835129  0.5275953292319918  0.45137284577361525  1.0000
  C   C5        1.0  0.5818568954143698  0.4721553423326979  0.32871503902243093  1.0000
  C   C6        1.0  0.6691118871423312  0.4445450133439855  0.26763184406114426  1.0000
  C   C7        1.0  0.7567222376396081  0.4721529921511516  0.32871610463619616  1.0000
  C   C8        1.0  0.4922092197696393  0.5560255251220874  0.5142725546167655  1.0000
  N   N2        1.0  0.42000174443684396  0.5788817056897628  0.5648404410845251  1.0000
  H   H1        1.0  0.670100613169596  0.5982236763472304  0.607632678793786  1.0000
  H   H2        1.0  0.5144211263730047  0.45034115599414015  0.2804500896339701  1.0000
  H   H3        1.0  0.668836460780964  0.40171995381962367  0.17288403284574727  1.0000
  H   H4        1.0  0.8238773114691097  0.4503367044450326  0.2804520590553159  1.0000
  C   C9        1.0  0.16701830666443818  0.1552848964308402  0.5655484442194654  1.0000
  C   C10       1.0  0.1448432839671736  0.23861147256031168  0.44940799065771775  1.0000
  C   C11       1.0  0.13167725669287234  0.17358003111209455  0.33253067300566697  1.0000
  C   C12       1.0  0.1407370430646766  0.02384467060655804  0.33094725553242754  1.0000
  C   C13       1.0  0.16112820806034267  0.9391989102010551  0.4454922793551366  1.0000
  C   C14       1.0  0.17294321963840484  0.0024671551447732376  0.564143928153958  1.0000
  N   N3        1.0  0.11009536764866001  0.2600063017160457  0.21511376826441395  1.0000
  H   H5        1.0  0.27553935009648  0.23490162793844588  0.8497798455649077  1.0000
  H   H6        1.0  0.13997830867171657  0.3552042538317415  0.44890911229524044  1.0000
  H   H7        1.0  0.13106379173021887  0.9723712545346523  0.24102195121892198  1.0000
  H   H8        1.0  0.1653813899969534  0.8230354692391988  0.4417727676528099  1.0000
  H   H9        1.0  0.24212525122457462  0.7053711867896116  0.7575219198673184  1.0000
  H   H10       1.0  0.10344740193079915  0.37208020471852565  0.21507158802506735  1.0000
  H   H11       1.0  0.10051243252404607  0.21254976535204853  0.1273242969728443  1.0000
  C   C15       1.0  0.1700735659927013  0.5789345974584945  0.1834644937575789  1.0000
  C   C16       1.0  0.2642439056187156  0.6367731009325126  0.17809809812020116  1.0000
  C   C17       1.0  0.31106168220648533  0.6683987154675968  0.058090655944319954  1.0000
  C   C18       1.0  0.26400020864193285  0.6366201364951711  0.9428608941481866  1.0000
  C   C19       1.0  0.16988797681703938  0.5788174404254356  0.9462278643545008  1.0000
  C   C20       1.0  0.12333088296794936  0.5508446511457681  0.06700181712614617  1.0000
  C   C21       1.0  0.4134439550947786  0.7256000677974341  0.053733450956983564  1.0000
  F   F1        1.0  0.4308873859477613  0.8098359720013533  0.15648495327502165  1.0000
  F   F2        1.0  0.476374137800756  0.6105908156047566  0.06179305996660189  1.0000
  F   F3        1.0  0.4306221763748761  0.8098164006705416  0.9388415821493381  1.0000
  H   H12       1.0  0.9930007853834597  0.4673748750928244  0.40100160333586726  1.0000
  H   H13       1.0  0.3013887014310981  0.6570615153929459  0.2674609792514018  1.0000
  H   H14       1.0  0.3009778222019259  0.6567997480477652  0.8504473928121633  1.0000
  H   H15       1.0  0.050748555202449794  0.5062688598281282  0.07033301266147984  1.0000
  H   H16       1.0  0.13431957125336824  0.5542274361673183  0.6202371153992488  1.0000
  Zn  Zn1       1.0  0.06425454460797364  0.5788776236910571  0.5648480902215498  1.0000
  Zn  Zn2       1.0  0.27569772385744296  0.5788736963745109  0.5648436586548922  1.0000
  C   C22       1.0  0.16988068865744774  0.5730930227679982  0.8020587707200206  1.0000
  C   C23       1.0  0.1700739014587498  0.5846601172937009  0.3276331025612702  1.0000
  C   C24       1.0  0.17181956611077645  0.8423324391280841  0.5592340443374724  1.0000
  C   C25       1.0  0.1681349397173042  0.3154189678545083  0.5704579010595345  1.0000
  O   O1        1.0  0.25031555461231236  0.5865738705669651  0.3760157333491596  1.0000
  O   O2        1.0  0.2501195085725574  0.5711752006057937  0.7536724044211642  1.0000
  O   O3        1.0  0.2516840946130019  0.788589434126342  0.5575897173780568  1.0000
  O   O4        1.0  0.24875089651649773  0.3691596473816152  0.5720983229987444  1.0000
  O   O5        1.0  0.09120129979375147  0.7885916726868643  0.5575934258723756  1.0000
  O   O6        1.0  0.08963672588625694  0.5711791722483348  0.753676040794445  1.0000
  O   O7        1.0  0.08983277201861874  0.5865777921823753  0.37601780835283294  1.0000
  O   O8        1.0  0.08826811382300725  0.3691635586647388  0.5721004953906188  1.0000
