data_image0
_chemical_formula_structural       NC6NCNCH5C6NCH9C7ONH5Zn2C4O8
_chemical_formula_sum              "N5 C26 H19 O9 Zn2"
_cell_length_a       14.933214217465613
_cell_length_b       9.273386996610927
_cell_length_c       9.27304215883966
_cell_angle_alpha    86.06883900085258
_cell_angle_beta     90.05893816914777
_cell_angle_gamma    89.43266693644959

_space_group_name_H-M_alt    "P 1"
_space_group_IT_number       1

loop_
  _space_group_symop_operation_xyz
  'x, y, z'

loop_
  _atom_site_type_symbol
  _atom_site_label
  _atom_site_symmetry_multiplicity
  _atom_site_fract_x
  _atom_site_fract_y
  _atom_site_fract_z
  _atom_site_occupancy
  N   N1        1.0  0.8314348566776972  0.5629546572426143  0.4066881427005998  1.0000
  C   C1        1.0  0.7539371607169582  0.5639413143449932  0.40569609427778497  1.0000
  C   C2        1.0  0.6575294491345082  0.5651714223391013  0.40445913271676703  1.0000
  C   C3        1.0  0.6104195345081357  0.47037185164648787  0.49979619584851537  1.0000
  C   C4        1.0  0.516878030529908  0.47144383080446084  0.49871816864337043  1.0000
  C   C5        1.0  0.4695444965836342  0.5672610653176231  0.40235770879100174  1.0000
  C   C6        1.0  0.37298470212595913  0.5651735580836457  0.4044570585345826  1.0000
  N   N2        1.0  0.29551218489415704  0.5634321119294332  0.4062080068669893  1.0000
  C   C7        1.0  0.5167441553444703  0.6632576974329982  0.3058169265335666  1.0000
  N   N3        1.0  0.4706818885146622  0.7628486154049601  0.20566162453303835  1.0000
  C   C8        1.0  0.6107732257134822  0.6612293069827635  0.30785693501198186  1.0000
  H   H1        1.0  0.6459804393369024  0.39562876519716883  0.5749630155655678  1.0000
  H   H2        1.0  0.4813531906831108  0.3973294934956451  0.5732525452655206  1.0000
  H   H3        1.0  0.5065073268594021  0.8331892895522701  0.1349220932744497  1.0000
  H   H4        1.0  0.4009004749584401  0.768147702208042  0.20033256523677667  1.0000
  H   H5        1.0  0.647428122046935  0.7345979304039201  0.23407233433255015  1.0000
  C   C9        1.0  0.06623214660417531  0.139549675805128  0.40715350952884233  1.0000
  C   C10       1.0  0.08183253767503929  0.2216685078656693  0.27681532841931733  1.0000
  C   C11       1.0  0.08900151534099598  0.1558000927403289  0.1464778138754863  1.0000
  C   C12       1.0  0.08067726535857123  0.005455677933015707  0.14314613173199664  1.0000
  C   C13       1.0  0.06665451203975593  0.9223707856143007  0.2730299711595081  1.0000
  C   C14       1.0  0.06072352002438432  0.9868260752355665  0.40575517713804465  1.0000
  N   N4        1.0  0.08708670872710589  0.9345217118912914  0.01011860915690388  1.0000
  C   C15       1.0  0.10187158407970026  0.010951782544905262  0.869450934017582  1.0000
  H   H6        1.0  0.08475010783979897  0.40420615114804875  0.6437679899249213  1.0000
  H   H7        1.0  0.08639823421431458  0.33830047068422875  0.275042293120664  1.0000
  H   H8        1.0  0.100201986773725  0.22338240611410007  0.048561847281632056  1.0000
  H   H9        1.0  0.062425669964709024  0.8059414136614874  0.2707605718509212  1.0000
  H   H10       1.0  0.09402543329784563  0.8591964074240389  0.7567757983652843  1.0000
  H   H11       1.0  0.08075864508667974  0.8221795638195016  0.013113988641215046  1.0000
  H   H12       1.0  0.04633497440796531  0.08920440989479438  0.8444655846175159  1.0000
  H   H13       1.0  0.1666863940649251  0.06857265854058814  0.8696164643509214  1.0000
  H   H14       1.0  0.10404850419503185  0.932618576289073  0.7841202845030082  1.0000
  C   C16       1.0  0.06307862883707394  0.5587288508410881  0.9831972254771113  1.0000
  C   C17       1.0  0.9807715987940612  0.5678308328453474  0.05594795954620335  1.0000
  C   C18       1.0  0.899990914277503  0.5908887133432467  0.9797370212596307  1.0000
  C   C19       1.0  0.9020250428015208  0.6031026132208057  0.8282159798489687  1.0000
  C   C20       1.0  0.9828798867123012  0.5918810279556059  0.7544608274742681  1.0000
  C   C21       1.0  0.06387708364427946  0.5676468800403407  0.8297114611092287  1.0000
  C   C22       1.0  0.8143560073638484  0.6007598755325607  0.059669130808511994  1.0000
  O   O1        1.0  0.8087365399480118  0.5449263138632154  0.18713808047035224  1.0000
  N   N5        1.0  0.7377102092042768  0.6738705729199759  0.9960906768993882  1.0000
  H   H15       1.0  0.2799804207092101  0.6140570511329504  0.08284157055320862  1.0000
  H   H16       1.0  0.8410374978875101  0.6173038306185812  0.7656323039350346  1.0000
  H   H17       1.0  0.21011959726040685  0.5982197350594298  0.5465879691492659  1.0000
  H   H18       1.0  0.7416176710095632  0.736172186203726  0.8983175705639574  1.0000
  H   H19       1.0  0.6771865598690833  0.6736459300620499  0.05239602170209156  1.0000
  Zn  Zn1       1.0  0.9653575826111767  0.5630886571581981  0.40655792431735827  1.0000
  Zn  Zn2       1.0  0.16158953240887808  0.5632864015931898  0.40635008106808984  1.0000
  C   C23       1.0  0.06376150293876948  0.5602140277161403  0.6697116083801291  1.0000
  C   C24       1.0  0.06318774322699162  0.5661628549459395  0.14319653319839182  1.0000
  C   C25       1.0  0.06175475615556226  0.8266123005310042  0.4002758793372536  1.0000
  C   C26       1.0  0.06519443439131739  0.2997628496106439  0.41263234201635013  1.0000
  O   O2        1.0  0.13769340620922454  0.5687265238262686  0.19681489743885638  1.0000
  O   O3        1.0  0.1381913560392083  0.5577993495904172  0.6159350828108889  1.0000
  O   O4        1.0  0.1365698801687878  0.7729193387316828  0.39836382389387737  1.0000
  O   O5        1.0  0.1393148149499459  0.3536065437990501  0.4143860483398072  1.0000
  O   O6        1.0  0.9876322331057574  0.7727685148863486  0.3985219571089835  1.0000
  O   O7        1.0  0.9892536976307081  0.5576502581995242  0.6160931363142539  1.0000
  O   O8        1.0  0.9887557465526702  0.56857736390666  0.19697121812581259  1.0000
  O   O9        1.0  0.9903771554587392  0.35345737469940447  0.414542477106167  1.0000
