data_image0
_chemical_formula_structural       NC5NC3H4C10H6C6IH3Zn2C4O8
_chemical_formula_sum              "N2 C28 H13 I1 Zn2 O8"
_cell_length_a       13.859018345313864
_cell_length_b       9.275150299802176
_cell_length_c       9.275433903346869
_cell_angle_alpha    85.8435202653109
_cell_angle_beta     89.96562363921994
_cell_angle_gamma    89.48388887768701

_space_group_name_H-M_alt    "P 1"
_space_group_IT_number       1

loop_
  _space_group_symop_operation_xyz
  'x, y, z'

loop_
  _atom_site_type_symbol
  _atom_site_label
  _atom_site_symmetry_multiplicity
  _atom_site_fract_x
  _atom_site_fract_y
  _atom_site_fract_z
  _atom_site_occupancy
  N   N1        1.0  0.8998151777092469  0.5620563283563806  0.4016890082782434  1.0000
  C   C1        1.0  0.8276751866102208  0.5230417433581087  0.453146452128665  1.0000
  C   C2        1.0  0.7379372574583143  0.4745128258121485  0.5171526673849853  1.0000
  C   C3        1.0  0.6500619453786216  0.5218228403393805  0.45475444452830915  1.0000
  C   C4        1.0  0.5627069547975014  0.4745125339003436  0.5171525435320907  1.0000
  C   C5        1.0  0.4724353077099192  0.5230416295849534  0.45314635549477833  1.0000
  N   N2        1.0  0.39986627538824976  0.5620562937083342  0.40168893947212936  1.0000
  C   C6        1.0  0.5634098327154049  0.37987822293790896  0.6419675337403601  1.0000
  C   C7        1.0  0.6511016020599335  0.3327503268843386  0.7041256329311785  1.0000
  C   C8        1.0  0.7382751743942599  0.3798785203995865  0.6419677356409861  1.0000
  H   H1        1.0  0.6496591053018904  0.5950723786171372  0.35814428467041926  1.0000
  H   H2        1.0  0.4963191267635955  0.3426403969746553  0.691080781244898  1.0000
  H   H3        1.0  0.6515035614225383  0.2596495004572537  0.8005398481774364  1.0000
  H   H4        1.0  0.8057753850374456  0.34264093169602666  0.6910812033726832  1.0000
  C   C9        1.0  0.1523901084199717  0.13837641250417798  0.40410123858811237  1.0000
  C   C10       1.0  0.20318304413617763  0.21926905475162142  0.29508911527083637  1.0000
  C   C11       1.0  0.24570358987963958  0.15190115618547084  0.1805371387887389  1.0000
  C   C12       1.0  0.23786281332171064  0.0026590316601995357  0.17352180401864392  1.0000
  C   C13       1.0  0.18917672372208336  0.920315660913789  0.28188633978599364  1.0000
  C   C14       1.0  0.14730059093333447  0.9857251686083195  0.3992892746757778  1.0000
  C   C15       1.0  0.2965094023038988  0.23650942681359546  0.06903256429991123  1.0000
  C   C16       1.0  0.3390467047595527  0.30737152756345615  0.9756799947850737  1.0000
  C   C17       1.0  0.38885591212370346  0.39035603256543633  0.8663682071896224  1.0000
  C   C18       1.0  0.4313850128863117  0.4612128414920254  0.773033532706191  1.0000
  H   H5        1.0  0.1065301087695929  0.40313377001699635  0.6329135033726212  1.0000
  H   H6        1.0  0.20781803057957293  0.33574109321163315  0.2973151031403465  1.0000
  H   H7        1.0  0.2702486588122275  0.9495711439853162  0.08488264234072718  1.0000
  H   H8        1.0  0.18622875304150965  0.8042494378986064  0.2756654281625519  1.0000
  H   H9        1.0  0.0844438566168015  0.858895478145508  0.7416417941697719  1.0000
  H   H10       1.0  0.46872911102703696  0.5234311371627034  0.6910779795568844  1.0000
  C   C19       1.0  0.15004177145968045  0.557547683059292  0.9785684989283622  1.0000
  C   C20       1.0  0.23894042112796887  0.5548466521196482  0.05203869439790387  1.0000
  C   C21       1.0  0.3258013091385354  0.5654406378012433  0.9758597830085214  1.0000
  C   C22       1.0  0.32515389342770695  0.579072490894041  0.8252367261420992  1.0000
  C   C23       1.0  0.23790318681144873  0.5795927138198386  0.7502583935575642  1.0000
  C   C24       1.0  0.1496489480187362  0.5665538799774413  0.8248219775313491  1.0000
  I   I1        1.0  0.45797945238779003  0.5635253347795746  0.08865504015857659  1.0000
  H   H11       1.0  0.9195189043192707  0.6430223299692932  0.07557273405642206  1.0000
  H   H12       1.0  0.3923963923755174  0.5878920232281133  0.7659757029809029  1.0000
  H   H13       1.0  0.9940021415888125  0.6180335225862383  0.5400541211362939  1.0000
  Zn  Zn1       1.0  0.04411914061733336  0.5620525343420826  0.40169734046960603  1.0000
  Zn  Zn2       1.0  0.25556235457734666  0.5620483728304393  0.40169250909619225  1.0000
  C   C25       1.0  0.14975557668552342  0.5591038793943155  0.6648946151302921  1.0000
  C   C26       1.0  0.14992821646274396  0.5649988496542966  0.1384953654682106  1.0000
  C   C27       1.0  0.148260341112649  0.8254971312564632  0.39445700897535385  1.0000
  C   C28       1.0  0.1514233902606692  0.2986038652005789  0.4089330582884678  1.0000
  O   O1        1.0  0.2301317419267292  0.5674916556310399  0.19216648509248158  1.0000
  O   O2        1.0  0.2300325648842214  0.5566068220942957  0.6112194200061956  1.0000
  O   O3        1.0  0.2288240608587193  0.7717227579417578  0.3928391311506173  1.0000
  O   O4        1.0  0.23134017378914296  0.352375728956146  0.4105466658544281  1.0000
  O   O5        1.0  0.06834124925033945  0.771725178219286  0.3928431837054307  1.0000
  O   O6        1.0  0.06954974289559268  0.5566109749663035  0.6112233858897509  1.0000
  O   O7        1.0  0.06964892110838482  0.5674957397894734  0.19216871889590648  1.0000
  O   O8        1.0  0.0708573529786893  0.3523798039449214  0.4105490077455456  1.0000
