data_image0
_chemical_formula_structural       NC6NC2H4C6BrH5C6NCOH5Zn2C4O8
_chemical_formula_sum              "N3 C25 H14 Br1 O9 Zn2"
_cell_length_a       14.927258858638513
_cell_length_b       9.276564384272257
_cell_length_c       9.27373355559583
_cell_angle_alpha    86.1252681461469
_cell_angle_beta     90.01105750145625
_cell_angle_gamma    90.58593300640023

_space_group_name_H-M_alt    "P 1"
_space_group_IT_number       1

loop_
  _space_group_symop_operation_xyz
  'x, y, z'

loop_
  _atom_site_type_symbol
  _atom_site_label
  _atom_site_symmetry_multiplicity
  _atom_site_fract_x
  _atom_site_fract_y
  _atom_site_fract_z
  _atom_site_occupancy
  N   N1        1.0  0.8532990813344732  0.561148757530683  0.40894351248175953  1.0000
  C   C1        1.0  0.7757725899876196  0.5611487291350974  0.40894352309204285  1.0000
  C   C2        1.0  0.679340083165398  0.5611488436963852  0.40894347314654045  1.0000
  C   C3        1.0  0.6321133270591891  0.5360987156440054  0.2823073242261833  1.0000
  C   C4        1.0  0.538402015853463  0.5360987398470805  0.2823071907777719  1.0000
  C   C5        1.0  0.4915240180488828  0.561148666349049  0.4089434919212318  1.0000
  C   C6        1.0  0.39509144423514303  0.5611487809132374  0.40894344196980414  1.0000
  N   N2        1.0  0.3175649528882889  0.5611487525176514  0.40894345258008746  1.0000
  C   C7        1.0  0.5387507071635733  0.5861987944043299  0.5355796408356635  1.0000
  C   C8        1.0  0.6324620183692994  0.5861987702012548  0.5355797742840751  1.0000
  H   H1        1.0  0.6676738452112968  0.5166083022954624  0.18377713234799486  1.0000
  H   H2        1.0  0.5025701909546109  0.5166084997770279  0.18377712724726813  1.0000
  H   H3        1.0  0.5031902559540635  0.6056891985955607  0.6341099407822945  1.0000
  H   H4        1.0  0.6682938439051556  0.6056891087795666  0.6341099477355465  1.0000
  C   C9        1.0  0.08273734350706956  0.1376717372385141  0.4093120392620566  1.0000
  C   C10       1.0  0.0712321369264804  0.2197569173773035  0.2775882881799203  1.0000
  C   C11       1.0  0.06806433602221151  0.15336714798454176  0.14709490197629504  1.0000
  C   C12       1.0  0.07638136812620049  0.00394659530706676  0.1458474666332874  1.0000
  C   C13       1.0  0.08630801172517247  0.9201467024683496  0.2755793323007265  1.0000
  C   C14       1.0  0.08813521454179175  0.9846147599107014  0.40858737217595853  1.0000
  Br  Br1       1.0  0.07270627535545687  0.9136665409612093  0.96678774081894  1.0000
  H   H5        1.0  0.05651220175218774  0.40273953984664135  0.6436207391656273  1.0000
  H   H6        1.0  0.06681075981632238  0.3363868223451407  0.2751209548578375  1.0000
  H   H7        1.0  0.05999510746082451  0.2185096569038858  0.046705267935736705  1.0000
  H   H8        1.0  0.09045235684892594  0.803873362215908  0.27247207895238135  1.0000
  H   H9        1.0  0.13759646216705268  0.6890918351066228  0.6330537292694258  1.0000
  C   C15       1.0  0.08535605878755909  0.5565997777075733  0.9857266121866886  1.0000
  C   C16       1.0  0.002966581600665872  0.5483227799360815  0.059685167407449446  1.0000
  C   C17       1.0  0.921466284475457  0.5517323757431309  0.9847327763522519  1.0000
  C   C18       1.0  0.9223614611125658  0.5681065126312146  0.8333710320786825  1.0000
  C   C19       1.0  0.003390195538500734  0.5742316339924096  0.7582103255946864  1.0000
  C   C20       1.0  0.08551649181860843  0.5656867283421514  0.832172870113848  1.0000
  N   N3        1.0  0.8388318149121008  0.5466745141647675  0.06475160072229857  1.0000
  C   C21       1.0  0.7576989329986045  0.4802680021468091  0.018026004941779302  1.0000
  O   O1        1.0  0.756741471843908  0.4039519780606373  0.910740467633262  1.0000
  H   H10       1.0  0.2970970467485032  0.6567337096127814  0.08195435834170195  1.0000
  H   H11       1.0  0.8605534806437785  0.5777079756900654  0.7727482129324281  1.0000
  H   H12       1.0  0.22879517496505636  0.6270334764226166  0.547014125094325  1.0000
  H   H13       1.0  0.8387553641600652  0.5850181259370956  0.16813779310192212  1.0000
  H   H14       1.0  0.696546128284992  0.4923620684527369  0.07843650644200674  1.0000
  Zn  Zn1       1.0  0.9872761681007056  0.5611449813327053  0.4089518261751868  1.0000
  Zn  Zn2       1.0  0.1835878039627146  0.5611408435459087  0.4089469714352254  1.0000
  C   C22       1.0  0.08544755509550117  0.5582241949677054  0.6721812992487708  1.0000
  C   C23       1.0  0.08541857230829143  0.5640634509290876  0.14571763820742833  1.0000
  C   C24       1.0  0.08710919913958741  0.8244628682100341  0.40298125601383505  1.0000
  C   C25       1.0  0.08375685024898141  0.29782304593250986  0.4149177597637459  1.0000
  O   O2        1.0  0.1599387550430963  0.566560466261276  0.19941025111020383  1.0000
  O   O3        1.0  0.15992335462572305  0.5557229468004439  0.6184845877668455  1.0000
  O   O4        1.0  0.16126414920429633  0.770714058600292  0.4011036469616158  1.0000
  O   O5        1.0  0.15859789352192522  0.35156936361874025  0.4167910838469908  1.0000
  O   O6        1.0  0.012266011549977314  0.7707164612627742  0.40110771375749654  1.0000
  O   O7        1.0  0.010925227995109317  0.5557270812200754  0.6184885762354188  1.0000
  O   O8        1.0  0.010940627823355038  0.5665645318261485  0.19941250686159906  1.0000
  O   O9        1.0  0.009599766253263422  0.35157342002920106  0.41679344766090365  1.0000
