data_image0
_chemical_formula_structural       NC12NC2H8C13OH12C15H11Zn2C4O8
_chemical_formula_sum              "N2 C46 H31 O9 Zn2"
_cell_length_a       17.80743265337812
_cell_length_b       10.29915010939255
_cell_length_c       10.299157797200024
_cell_angle_alpha    85.5240492146119
_cell_angle_beta     91.55653286904399
_cell_angle_gamma    89.41750150667457

_space_group_name_H-M_alt    "P 1"
_space_group_IT_number       1

loop_
  _space_group_symop_operation_xyz
  'x, y, z'

loop_
  _atom_site_type_symbol
  _atom_site_label
  _atom_site_symmetry_multiplicity
  _atom_site_fract_x
  _atom_site_fract_y
  _atom_site_fract_z
  _atom_site_occupancy
  N   N1        1.0  0.7068308339404462  0.40716098730718003  0.6007628614064782  1.0000
  C   C1        1.0  0.6559893321949446  0.4367398636582387  0.5320499710406305  1.0000
  C   C2        1.0  0.5927374916768536  0.4735338378414792  0.4465797846590271  1.0000
  C   C3        1.0  0.6044242823797735  0.5275914859507784  0.3199341079721645  1.0000
  C   C4        1.0  0.5430806401286468  0.5628811296557046  0.23686056216476392  1.0000
  C   C5        1.0  0.4698956995643721  0.5443767808419517  0.27977266208957485  1.0000
  C   C6        1.0  0.4572322680259435  0.4902002000392123  0.4068865489904349  1.0000
  C   C7        1.0  0.5194332218735983  0.45491381473065906  0.4899435810479  1.0000
  C   C8        1.0  0.37948000250273106  0.4705808985327695  0.4526594909642101  1.0000
  C   C9        1.0  0.3607192228736156  0.49773722590192127  0.5797015839066701  1.0000
  C   C10       1.0  0.287504338167165  0.47927444361602567  0.6226542346060322  1.0000
  C   C11       1.0  0.2321075112963657  0.43340082739041325  0.5394028963744588  1.0000
  C   C12       1.0  0.15675645964423454  0.4143848161377093  0.5837567454107655  1.0000
  N   N2        1.0  0.09617955020349611  0.399097222025002  0.6194141887975773  1.0000
  C   C13       1.0  0.2501769592067019  0.4060754351093172  0.4129038622393586  1.0000
  C   C14       1.0  0.3233389249055994  0.42455306914402113  0.36969530493927905  1.0000
  H   H1        1.0  0.6608789299134596  0.5424252622664854  0.2854900229107473  1.0000
  H   H2        1.0  0.5522474002924406  0.6050066133155294  0.1390613591111418  1.0000
  H   H3        1.0  0.4232350778270884  0.5740314830505928  0.21416786656600717  1.0000
  H   H4        1.0  0.5109650802048358  0.41140293604053846  0.5876188130686993  1.0000
  H   H5        1.0  0.4024041977899877  0.5349030160817867  0.6452654733802279  1.0000
  H   H6        1.0  0.27408023045274393  0.5010969759257111  0.7206610638544552  1.0000
  H   H7        1.0  0.2077749614437196  0.37017693012678243  0.3477525100378515  1.0000
  H   H8        1.0  0.3362350047743601  0.40119478170548756  0.27199236214481814  1.0000
  C   C15       1.0  0.9015796289169302  0.021727887825387038  0.6102362053703312  1.0000
  C   C16       1.0  0.9002270309782655  0.009911975794915977  0.7469899352112344  1.0000
  C   C17       1.0  0.8994758057856399  0.8867878893142694  0.8160601352066089  1.0000
  C   C18       1.0  0.9000821009294091  0.7746597382369678  0.7466195768179718  1.0000
  C   C19       1.0  0.9014379512123576  0.7845201516218236  0.6099524066708125  1.0000
  C   C20       1.0  0.9021808579811137  0.9085145306879516  0.5425594922877374  1.0000
  C   C21       1.0  0.8980383395943502  0.8752699067945999  0.9606396333528398  1.0000
  C   C22       1.0  0.8518578536507699  0.7833263419553368  0.026452698972168176  1.0000
  C   C23       1.0  0.8504803094271773  0.7725698567095357  0.16250066990947754  1.0000
  C   C24       1.0  0.8957511017252221  0.8525878938348321  0.23521862501993063  1.0000
  C   C25       1.0  0.9412129744320153  0.9454997896787679  0.17001374330704688  1.0000
  C   C26       1.0  0.9426079577138001  0.9564317108623128  0.03396631903723658  1.0000
  C   C27       1.0  0.8926911340591704  0.8434163746444363  0.3811666358300091  1.0000
  O   O1        1.0  0.8365488953752489  0.9277428466719799  0.41872015855616096  1.0000
  H   H9        1.0  0.903644634057632  0.25133392014560973  0.35208375063289843  1.0000
  H   H10       1.0  0.8987131196298264  0.09669997976294442  0.79992901092602  1.0000
  H   H11       1.0  0.9005228052410326  0.6795113368234833  0.799477213428023  1.0000
  H   H12       1.0  0.903224540036512  0.9168364151744479  0.43714391271177444  1.0000
  H   H13       1.0  0.9019088928028485  0.4608383916997407  0.5573829975474058  1.0000
  H   H14       1.0  0.8159174838275742  0.7210786745979463  0.9726193557042881  1.0000
  H   H15       1.0  0.8139460804313134  0.7019808267730526  0.21112897330105795  1.0000
  H   H16       1.0  0.9757696758905455  0.009328846225669978  0.2245270518668718  1.0000
  H   H17       1.0  0.9791675425471044  0.027465391458685755  0.9861459195118174  1.0000
  H   H18       1.0  0.9479617392686506  0.8700880468421791  0.42398660288804335  1.0000
  H   H19       1.0  0.8804907999664165  0.7416356977587731  0.4183969299239466  1.0000
  H   H20       1.0  0.83684922226849  0.9180285670730027  0.5153667318533068  1.0000
  C   C28       1.0  0.9014216652663796  0.40323210699791834  0.22869805540228083  1.0000
  C   C29       1.0  0.8231739690379432  0.38687187338752826  0.2251313838772195  1.0000
  C   C30       1.0  0.7836609585407701  0.37846442730352425  0.10618840062899793  1.0000
  C   C31       1.0  0.8233972263255184  0.38665850100855415  0.9898748599368917  1.0000
  C   C32       1.0  0.9015958873544236  0.4030159551568698  0.9914905006402258  1.0000
  C   C33       1.0  0.9401514778868766  0.4112014787020111  0.11141055177324509  1.0000
  C   C34       1.0  0.7009356194960213  0.36117335308967397  0.1034639265379873  1.0000
  C   C35       1.0  0.6671474175777489  0.27488714193054586  0.020769892501053096  1.0000
  C   C36       1.0  0.589299390354494  0.25870857332983443  0.018238272727902013  1.0000
  C   C37       1.0  0.5438531372145254  0.3278357701286232  0.09886654356674796  1.0000
  C   C38       1.0  0.5772391221446653  0.414975926389635  0.1805642874485318  1.0000
  C   C39       1.0  0.6550863911054118  0.4311587093873108  0.18324382010041873  1.0000
  C   C40       1.0  0.45998836250194364  0.31275617539269995  0.09379225067377606  1.0000
  C   C41       1.0  0.4261835733756715  0.407231248276678  0.9947279096496299  1.0000
  C   C42       1.0  0.3984010680424593  0.48491772302303965  0.9132703163773197  1.0000
  H   H21       1.0  0.7929574220934943  0.3788721339278541  0.3152247624289872  1.0000
  H   H22       1.0  0.7930719379670234  0.3820481117965937  0.8977917610236665  1.0000
  H   H23       1.0  0.00046847251359927443  0.42381469658298854  0.11337247956280172  1.0000
  H   H24       1.0  0.9316768059925403  0.40926607607641957  0.6646397290346346  1.0000
  H   H25       1.0  0.701016266578764  0.2188156547858114  0.9590403556615716  1.0000
  H   H26       1.0  0.5644387117794994  0.1920623804045454  0.9535126116885356  1.0000
  H   H27       1.0  0.5429316001833602  0.4707472954773011  0.24192792320531953  1.0000
  H   H28       1.0  0.6793339156280715  0.4999249978170133  0.24629810246288475  1.0000
  H   H29       1.0  0.44501311296956647  0.2128180999469691  0.06966603342280475  1.0000
  H   H30       1.0  0.4360709068075956  0.3286976981175736  0.18986222116240992  1.0000
  H   H31       1.0  0.3740314607111564  0.5531233392803045  0.841758983898126  1.0000
  Zn  Zn1       1.0  0.8191884687519229  0.40483048913904907  0.6061527203597352  1.0000
  Zn  Zn2       1.0  0.9838219172858609  0.4014171228370007  0.6140349275963073  1.0000
  C   C43       1.0  0.9015622612533872  0.3978827518299879  0.8473082667917509  1.0000
  C   C44       1.0  0.9014499223012779  0.4083664615941674  0.37287959410358074  1.0000
  C   C45       1.0  0.9014596814349842  0.6403377620811955  0.6048303045913994  1.0000
  C   C46       1.0  0.9015524462474395  0.16590989205362927  0.6153576234384863  1.0000
  O   O2        1.0  0.9639369423969468  0.4087885769565778  0.42425949428246823  1.0000
  O   O3        1.0  0.9640282193328649  0.39486899072486725  0.8019104060153085  1.0000
  O   O4        1.0  0.9639445429136366  0.5906544948441821  0.6061076951400743  1.0000
  O   O5        1.0  0.9640205626139602  0.21300308332061244  0.6200621050829376  1.0000
  O   O6        1.0  0.8389897672425057  0.5932445298216673  0.6001255401764618  1.0000
  O   O7        1.0  0.8390734433526574  0.397460586157913  0.7959281812204997  1.0000
  O   O8        1.0  0.8389821661184076  0.4113801275712299  0.41827570799433444  1.0000
  O   O9        1.0  0.8390657863563179  0.2155946246181453  0.614078416172926  1.0000
