data_image0
_chemical_formula_structural       NC8NH4C12H8C12H8Zn2C4O8
_chemical_formula_sum              "N2 C36 H20 Zn2 O8"
_cell_length_a       13.859017981522156
_cell_length_b       14.994056859933258
_cell_length_c       13.024585202197207
_cell_angle_alpha    85.82059027263038
_cell_angle_beta     93.99278861396841
_cell_angle_gamma    89.97999317567633

_space_group_name_H-M_alt    "P 1"
_space_group_IT_number       1

loop_
  _space_group_symop_operation_xyz
  'x, y, z'

loop_
  _atom_site_type_symbol
  _atom_site_label
  _atom_site_symmetry_multiplicity
  _atom_site_fract_x
  _atom_site_fract_y
  _atom_site_fract_z
  _atom_site_occupancy
  N   N1        1.0  0.8339558828530584  0.9722676374893447  0.8650983175007839  1.0000
  C   C1        1.0  0.7587382786257203  0.9677635066463628  0.8213209906790194  1.0000
  C   C2        1.0  0.6651722262112716  0.962161187493909  0.7668676925414573  1.0000
  C   C3        1.0  0.6580451960168583  0.9512361199997875  0.660681089706262  1.0000
  C   C4        1.0  0.5671541475358816  0.945796072950195  0.6077999391594415  1.0000
  C   C5        1.0  0.4831799080829621  0.9512371848167817  0.6606809127606865  1.0000
  C   C6        1.0  0.48994198051912663  0.9621617890911233  0.7668675615090281  1.0000
  C   C7        1.0  0.581028926008359  0.9676230914667057  0.8199529040450447  1.0000
  C   C8        1.0  0.4034984504255062  0.9677640651002113  0.8213208191976544  1.0000
  N   N2        1.0  0.3340069627447528  0.9722678311729743  0.8650982507311291  1.0000
  H   H1        1.0  0.7226080607225833  0.946937022232974  0.6188977815596326  1.0000
  H   H2        1.0  0.5617897310856009  0.9373570885515017  0.5257753575723674  1.0000
  H   H3        1.0  0.4131517706882516  0.9469389374272502  0.6188974823228404  1.0000
  H   H4        1.0  0.5864042407976141  0.9760790934924791  0.9021442469995241  1.0000
  C   C9        1.0  0.08407197121278444  0.7103034802244124  0.8650246551509128  1.0000
  C   C10       1.0  0.12360391643877276  0.6677316503802981  0.7848301111008198  1.0000
  C   C11       1.0  0.1235981673253177  0.5745071489906401  0.7848875582302319  1.0000
  C   C12       1.0  0.0840004326560153  0.5218034750059352  0.8650676710162684  1.0000
  C   C13       1.0  0.044448986432370045  0.5644783275948434  0.9452062020705704  1.0000
  C   C14       1.0  0.044527074485194225  0.6577034676283187  0.9451946041710935  1.0000
  C   C15       1.0  0.08395146187161129  0.42272682564844805  0.8651122607477455  1.0000
  C   C16       1.0  0.003056019170858407  0.3732342949548185  0.894779656172674  1.0000
  C   C17       1.0  0.0030013323167405958  0.280013595448598  0.8947772833546057  1.0000
  C   C18       1.0  0.08390071562907052  0.2342251980353254  0.8651808255424991  1.0000
  C   C19       1.0  0.1647789213668753  0.28361129411254943  0.8355670499430714  1.0000
  C   C20       1.0  0.16480124384483316  0.37684076868239225  0.8354872186694242  1.0000
  H   H5        1.0  0.1543791092545628  0.7064448403303948  0.7217812143414304  1.0000
  H   H6        1.0  0.15345744416162904  0.5436856352730041  0.721370770320181  1.0000
  H   H7        1.0  0.014557222050419089  0.5256999906428158  0.008751808761568338  1.0000
  H   H8        1.0  0.013780784295005734  0.6884911222751932  0.008223324547369733  1.0000
  H   H9        1.0  0.939192792813286  0.40669984225442407  0.9167048462700601  1.0000
  H   H10       1.0  0.9394427350491275  0.24384951479247644  0.9177276875137778  1.0000
  H   H11       1.0  0.22831428068321347  0.2502740286679626  0.8126439995879082  1.0000
  H   H12       1.0  0.22869616546036364  0.4129750909783542  0.8135321281226262  1.0000
  C   C21       1.0  0.06420929828976864  0.971193664604225  0.5628835304102615  1.0000
  C   C22       1.0  0.042855052500073924  0.04247881021511057  0.48847498869012423  1.0000
  C   C23       1.0  0.07582243519850752  0.04111303992230786  0.38959447767210964  1.0000
  C   C24       1.0  0.13006515709389627  0.9682230315726513  0.36312550416139855  1.0000
  C   C25       1.0  0.15233579751882115  0.8974454644804305  0.4374610110633801  1.0000
  C   C26       1.0  0.11941701515233549  0.8987363709581611  0.5363847634494203  1.0000
  C   C27       1.0  0.1663517065566238  0.9673997268424819  0.25892518240970364  1.0000
  C   C28       1.0  0.2669845664244248  0.9644913718177983  0.2512420894009453  1.0000
  C   C29       1.0  0.30577065424566524  0.9692218915670133  0.1550191651751993  1.0000
  C   C30       1.0  0.24473894060466436  0.9771058313453048  0.06517293697514859  1.0000
  C   C31       1.0  0.14460212194007527  0.9791801104591068  0.07111315633133873  1.0000
  C   C32       1.0  0.10376333472280619  0.9733349922281264  0.16732189767875472  1.0000
  H   H13       1.0  0.000849363377566362  0.09942485735040374  0.5066747525639925  1.0000
  H   H14       1.0  0.05919329336012447  0.09695958069926623  0.33361371425105824  1.0000
  H   H15       1.0  0.19474587321701686  0.8409603576691673  0.41858002316769544  1.0000
  H   H16       1.0  0.137293377330306  0.8429845567609207  0.5920474084805616  1.0000
  H   H17       1.0  0.3157320017759005  0.9601384295389963  0.3201876347403131  1.0000
  H   H18       1.0  0.38338644968626223  0.9674523052467048  0.1501374295472608  1.0000
  H   H19       1.0  0.2750514250136131  0.981039672157978  0.9906071590046189  1.0000
  H   H20       1.0  0.8662107771565769  0.0044253779423619735  0.08279667066385163  1.0000
  Zn  Zn1       1.0  0.9782602183211756  0.9722653322709579  0.8651042379525256  1.0000
  Zn  Zn2       1.0  0.1897031833940395  0.9722628877141026  0.8651007486492711  1.0000
  C   C33       1.0  0.09628581355432742  0.9693764039469495  0.053069070066722124  1.0000
  C   C34       1.0  0.07167990335369522  0.9751529419455073  0.6771360178443648  1.0000
  C   C35       1.0  0.08365973317731432  0.13517828973223867  0.8610501781483125  1.0000
  C   C36       1.0  0.08430591552094915  0.8093499845755482  0.8691549643133016  1.0000
  O   O1        1.0  0.15442861123109508  0.9764768920661108  0.7154788710042916  1.0000
  O   O2        1.0  0.17401740454313688  0.9680499244382778  0.014723272148162152  1.0000
  O   O3        1.0  0.163820673294345  0.10193704786451688  0.8596666586528313  1.0000
  O   O4        1.0  0.16462526527698151  0.8425897747488358  0.8705354073372904  1.0000
  O   O5        1.0  0.0033380642827722765  0.10193844523801077  0.8596695792602842  1.0000
  O   O6        1.0  0.013534791585861466  0.968052393398228  0.014726138200865095  1.0000
  O   O7        1.0  0.9939459173770064  0.9764793255560045  0.7154804997018218  1.0000
  O   O8        1.0  0.004142576470335775  0.8425922021315515  0.8705371131929305  1.0000
