data_image0
_chemical_formula_structural       NC8NH4C6ClH5C10H5Zn2C4O8
_chemical_formula_sum              "N2 C28 H14 Cl1 Zn2 O8"
_cell_length_a       13.859017981522156
_cell_length_b       9.276545438789551
_cell_length_c       9.275153671780863
_cell_angle_alpha    85.73418776908572
_cell_angle_beta     89.40939788478961
_cell_angle_gamma    89.4096370293992

_space_group_name_H-M_alt    "P 1"
_space_group_IT_number       1

loop_
  _space_group_symop_operation_xyz
  'x, y, z'

loop_
  _atom_site_type_symbol
  _atom_site_label
  _atom_site_symmetry_multiplicity
  _atom_site_fract_x
  _atom_site_fract_y
  _atom_site_fract_z
  _atom_site_occupancy
  N   N1        1.0  0.9086997657160124  0.5739911210339383  0.4104247250771649  1.0000
  C   C1        1.0  0.8368178830323451  0.5668044054355208  0.34908739296240077  1.0000
  C   C2        1.0  0.7474010316488664  0.5578654438554431  0.2727917333174874  1.0000
  C   C3        1.0  0.7483651499358107  0.5404335933238731  0.1240114538226369  1.0000
  C   C4        1.0  0.6615035032354284  0.5317535611670636  0.049918563454789615  1.0000
  C   C5        1.0  0.5734998638167378  0.5404353148601131  0.12401120645669694  1.0000
  C   C6        1.0  0.5721707893144867  0.5578664165504816  0.2727915500410931  1.0000
  C   C7        1.0  0.6592127714538033  0.5665803684785231  0.34717053822051036  1.0000
  C   C8        1.0  0.48157806169197415  0.566805308480721  0.3490871529921323  1.0000
  N   N2        1.0  0.40875084853471655  0.5739914342447701  0.41042463162779974  1.0000
  H   H1        1.0  0.8161117983659061  0.5335740224377188  0.06546798309146686  1.0000
  H   H2        1.0  0.6623891491076487  0.5182884655642606  0.9349921994936046  1.0000
  H   H3        1.0  0.5066555101675536  0.533577118775417  0.06546756482393645  1.0000
  H   H4        1.0  0.6583253186345686  0.5800726142088952  0.4623305549643424  1.0000
  C   C9        1.0  0.161643665692441  0.15055554210465827  0.4101869786715562  1.0000
  C   C10       1.0  0.16292008831605181  0.23386641139583553  0.27709821894185027  1.0000
  C   C11       1.0  0.15539822860718067  0.16845382790649843  0.1469061614758027  1.0000
  C   C12       1.0  0.14641443622141814  0.018864966445824687  0.14779989089538748  1.0000
  C   C13       1.0  0.14664339184101752  0.9340094311442976  0.2784458044726812  1.0000
  C   C14       1.0  0.15581620302723587  0.9974160143355745  0.41067484550749356  1.0000
  Cl  Cl1       1.0  0.15577766698346274  0.27465395260960346  0.9822903568028473  1.0000
  H   H5        1.0  0.20944000478076322  0.4140947589989932  0.636884804672182  1.0000
  H   H6        1.0  0.1674608393589972  0.3505796741041165  0.2742434129234075  1.0000
  H   H7        1.0  0.14017309717524729  0.9678855899025605  0.0470755413556807  1.0000
  H   H8        1.0  0.14194430315218695  0.8177421768244921  0.27579435166697386  1.0000
  H   H9        1.0  0.1218744477056839  0.6992771300584582  0.6438366305549843  1.0000
  C   C15       1.0  0.1616577607713401  0.5729020711274615  0.9870006569437005  1.0000
  C   C16       1.0  0.18615033599380393  0.700335420603363  0.05081776767527391  1.0000
  C   C17       1.0  0.20161835334915318  0.82912599719756  0.9658995642760666  1.0000
  C   C18       1.0  0.19268317169463534  0.8320873420184425  0.8159607522734977  1.0000
  C   C19       1.0  0.17004405016007773  0.7062623093649067  0.7505261648355588  1.0000
  C   C20       1.0  0.15580211156085744  0.5750694231947533  0.8338611836052934  1.0000
  C   C21       1.0  0.22558428592811075  0.9589313560017393  0.03308340286368838  1.0000
  C   C22       1.0  0.24565092061586932  0.06760654549059097  0.08935769171170072  1.0000
  C   C23       1.0  0.2691479486336321  0.19486040612153932  0.15526046312466435  1.0000
  C   C24       1.0  0.2892107040804448  0.3035148174800324  0.21153208889490394  1.0000
  H   H10       1.0  0.19101696599929996  0.7004084294341557  0.1674332010667159  1.0000
  H   H11       1.0  0.20416383267544766  0.931500635610268  0.7493113455606317  1.0000
  H   H12       1.0  0.16591001144164963  0.7107770401981139  0.6336970896944116  1.0000
  H   H13       1.0  0.17033726403155636  0.22045144600835995  0.7571580737535393  1.0000
  H   H14       1.0  0.3068274425349436  0.3989222992677153  0.2609434991401809  1.0000
  Zn  Zn1       1.0  0.05300368145862456  0.5739873822334103  0.4104330188496885  1.0000
  Zn  Zn2       1.0  0.26444693487633675  0.5739834383499334  0.41042812884250424  1.0000
  C   C25       1.0  0.15694630753118566  0.5689154041205249  0.6737830771696414  1.0000
  C   C26       1.0  0.1605066042593657  0.5790572361492359  0.14707821304201985  1.0000
  C   C27       1.0  0.15695246297420296  0.8373266198349605  0.4048366741116698  1.0000
  C   C28       1.0  0.16050038805520012  0.3106442882213627  0.4160246919786508  1.0000
  O   O1        1.0  0.24036192163233228  0.5811151783752404  0.20079984383900218  1.0000
  O   O2        1.0  0.2375715373938916  0.5668533797252555  0.6200573192660384  1.0000
  O   O3        1.0  0.2375754159295369  0.7835988347951635  0.402881196845031  1.0000
  O   O4        1.0  0.24035797162201014  0.36436973334495937  0.41797585815346056  1.0000
  O   O5        1.0  0.07709257255778779  0.7836010872412802  0.4028852895328172  1.0000
  O   O6        1.0  0.07708868262812696  0.5668573643877055  0.6200613360692502  1.0000
  O   O7        1.0  0.07987907926366634  0.5811191083529406  0.2008021270050595  1.0000
  O   O8        1.0  0.07987512857285763  0.3643736532859285  0.41797824942015205  1.0000
