data_image0
_chemical_formula_structural       NC10NC3NH7C12ClH9C13F3H9Zn2C4O8
_chemical_formula_sum              "N3 C42 H25 Cl1 F3 Zn2 O8"
_cell_length_a       19.210446455230148
_cell_length_b       10.299768534541528
_cell_length_c       10.2985328690268
_cell_angle_alpha    85.58012551441328
_cell_angle_beta     89.99621934770114
_cell_angle_gamma    89.96529235611058

_space_group_name_H-M_alt    "P 1"
_space_group_IT_number       1

loop_
  _space_group_symop_operation_xyz
  'x, y, z'

loop_
  _atom_site_type_symbol
  _atom_site_label
  _atom_site_symmetry_multiplicity
  _atom_site_fract_x
  _atom_site_fract_y
  _atom_site_fract_z
  _atom_site_occupancy
  N   N1        1.0  0.6556341558915608  0.41972646764232574  0.5673139346185344  1.0000
  C   C1        1.0  0.595405819532273  0.4219339945599354  0.5675452485996242  1.0000
  C   C2        1.0  0.5206016440097826  0.4246709236324737  0.5678318179000872  1.0000
  C   C3        1.0  0.48500212171530505  0.5409028984377624  0.5829525364478774  1.0000
  C   C4        1.0  0.4123366515196722  0.5410544162318216  0.5828999456485962  1.0000
  C   C5        1.0  0.3754349581086941  0.42537989774869556  0.5679183551492508  1.0000
  C   C6        1.0  0.2981127001835697  0.4240234124063833  0.5677676607033737  1.0000
  C   C7        1.0  0.2603628541615024  0.5275726649941568  0.504408458177733  1.0000
  C   C8        1.0  0.1875843691878055  0.5261704379059775  0.5042992812903149  1.0000
  C   C9        1.0  0.1515543378085862  0.42147644638402104  0.5674983239841032  1.0000
  C   C10       1.0  0.0766246948637851  0.4201743577333674  0.5673613974751393  1.0000
  N   N2        1.0  0.01638674374092  0.41912743426087307  0.5672513434372719  1.0000
  C   C11       1.0  0.1885805354047636  0.31805287572619156  0.6308325248086881  1.0000
  C   C12       1.0  0.2613608492160042  0.31918085661551965  0.6309919324910349  1.0000
  C   C13       1.0  0.4136445213075999  0.31096821688066  0.5530859446148471  1.0000
  N   N3        1.0  0.4844146922019964  0.3134131774745479  0.5532516845185131  1.0000
  H   H1        1.0  0.5131117003576847  0.6303377420451044  0.5950078604358021  1.0000
  H   H2        1.0  0.385076566992483  0.6310715185336462  0.5963501298012823  1.0000
  H   H3        1.0  0.28709316559840853  0.6088089930965783  0.4534197694796982  1.0000
  H   H4        1.0  0.15944101866905613  0.6065794719117075  0.4546410228915161  1.0000
  H   H5        1.0  0.1612104639366171  0.23668044052012482  0.6803912263957342  1.0000
  H   H6        1.0  0.2888594471651937  0.23889142634662439  0.6820880255983588  1.0000
  H   H7        1.0  0.3873703343859313  0.22008820243550956  0.5395894517968816  1.0000
  C   C14       1.0  0.8359481216230306  0.03806167627451294  0.5672805292507828  1.0000
  C   C15       1.0  0.8405256227303041  0.04757733610959592  0.43080090689563466  1.0000
  C   C16       1.0  0.8429119996176538  0.9352595205930019  0.3616529746129986  1.0000
  C   C17       1.0  0.8406585717736701  0.8122894027234855  0.43081637490747227  1.0000
  C   C18       1.0  0.836079433108911  0.8007822165506172  0.5672959354925436  1.0000
  C   C19       1.0  0.8337503640949858  0.914225186471447  0.6347637261103904  1.0000
  C   C20       1.0  0.8477555397272047  0.9463799617061059  0.21726891149805172  1.0000
  C   C21       1.0  0.8081507539594825  0.039962644663843035  0.14280657712449263  1.0000
  C   C22       1.0  0.81277165379774  0.05023362534750153  0.006916168286619232  1.0000
  C   C23       1.0  0.8569300295043916  0.9674436435010072  0.9437961249210903  1.0000
  C   C24       1.0  0.8965233291241472  0.8741727540999785  0.016747131119381205  1.0000
  C   C25       1.0  0.8920260461313066  0.8635093214729501  0.15265216283450478  1.0000
  Cl  Cl1       1.0  0.8626500740382642  0.9805762864960275  0.7732977648684823  1.0000
  H   H8        1.0  0.8341681517910524  0.36188955005111784  0.619282736595699  1.0000
  H   H9        1.0  0.8432066045082497  0.1425688547494346  0.37806402604352884  1.0000
  H   H10       1.0  0.841522948493188  0.7254377157923806  0.3778662384776288  1.0000
  H   H11       1.0  0.8302183277312483  0.906116105395505  0.7400514723371215  1.0000
  H   H12       1.0  0.834362282895506  0.46894364960029566  0.6193059334856603  1.0000
  H   H13       1.0  0.7729577657805533  0.10401153587629253  0.1895595416388003  1.0000
  H   H14       1.0  0.7818625345815053  0.12238141696417969  0.9508057006071012  1.0000
  H   H15       1.0  0.9309399221022748  0.81007801156491  0.9683047007641117  1.0000
  H   H16       1.0  0.9238183980447003  0.7916529076968566  0.2072680636875488  1.0000
  C   C26       1.0  0.835993746111989  0.41930005700478  0.1858907736773039  1.0000
  C   C27       1.0  0.9057863749489768  0.3782932051864729  0.1880909463615823  1.0000
  C   C28       1.0  0.9411508432231109  0.3576333914880987  0.07203493735502754  1.0000
  C   C29       1.0  0.9058275134961173  0.3785487511710468  0.9527902678892501  1.0000
  C   C30       1.0  0.8360337979624362  0.41954390007421954  0.9486857459320285  1.0000
  C   C31       1.0  0.8015626278432093  0.43965258506049104  0.06573328609865658  1.0000
  C   C32       1.0  0.01493827392014069  0.31429155705544964  0.07529548213812243  1.0000
  C   C33       1.0  0.0630123730353056  0.3688116592184946  0.983746586441936  1.0000
  C   C34       1.0  0.13245625524403537  0.3281233020234686  0.9868366844652576  1.0000
  C   C35       1.0  0.15508948014119084  0.23069059023902927  0.08030228849148124  1.0000
  C   C36       1.0  0.10741863005912623  0.1779888459249077  0.17342847805664552  1.0000
  C   C37       1.0  0.03797928475752177  0.21871025023626922  0.17044930089756183  1.0000
  C   C38       1.0  0.23055354237962855  0.19027913350828646  0.08657190555190919  1.0000
  F   F1        1.0  0.26626568862097955  0.2695336288336907  0.16605200109368548  1.0000
  F   F2        1.0  0.26020028967359976  0.2014029663960492  0.9637097795053228  1.0000
  F   F3        1.0  0.2369779894943369  0.06214860339310425  0.13645428167051213  1.0000
  H   H17       1.0  0.7042444514886538  0.4976060539945917  0.38899518768329266  1.0000
  H   H18       1.0  0.9330437151416215  0.36408854169067073  0.2801649344495994  1.0000
  H   H19       1.0  0.9325579316702066  0.3611230150856988  0.8631545995385212  1.0000
  H   H20       1.0  0.7477718407297383  0.4712521278495647  0.0633044452993119  1.0000
  H   H21       1.0  0.7040213067033975  0.4962668140216959  0.7336609277762914  1.0000
  H   H22       1.0  0.047162957043399574  0.44460149202514854  0.9110215866553804  1.0000
  H   H23       1.0  0.16855269595613298  0.3732892143835997  0.9163460560855082  1.0000
  H   H24       1.0  0.12382505825471779  0.10508959554613861  0.24859631795827708  1.0000
  H   H25       1.0  0.0021337254132247642  0.1744979387246417  0.24195958213138005  1.0000
  Zn  Zn1       1.0  0.7597395590179743  0.4195501379249884  0.5673033717144274  1.0000
  Zn  Zn2       1.0  0.9122813234112589  0.41929318493136564  0.5672725427008966  1.0000
  C   C39       1.0  0.8360237855432953  0.4143241650769994  0.8045010504743786  1.0000
  C   C40       1.0  0.8359987629260459  0.4245207936181629  0.33007499111348815  1.0000
  C   C41       1.0  0.8360507518796305  0.6566101859171901  0.562117501676492  1.0000
  C   C42       1.0  0.8359717442728967  0.18223321260006323  0.5724586091341017  1.0000
  O   O1        1.0  0.8938892502484745  0.4261697425082069  0.3784528320594147  1.0000
  O   O2        1.0  0.8939089676309103  0.41247921497760354  0.7560994371266307  1.0000
  O   O3        1.0  0.8939299629906771  0.6081282426771832  0.5603730067535893  1.0000
  O   O4        1.0  0.8938682028330224  0.23052072415531422  0.5741791650612029  1.0000
  O   O5        1.0  0.778152627541193  0.6083225987901371  0.5603967493578097  1.0000
  O   O6        1.0  0.7781316324432223  0.41267513135756245  0.7561231105118138  1.0000
  O   O7        1.0  0.7781119150172952  0.42636561313342475  0.37847494392602754  1.0000
  O   O8        1.0  0.7780908676025106  0.23071658552294205  0.5742013743027585  1.0000
