data_image0
_chemical_formula_structural       NC5N2C2NH4C6ClH5C6ClH4Zn2C4O8
_chemical_formula_sum              "N4 C23 H13 Cl2 Zn2 O8"
_cell_length_a       13.87973921873968
_cell_length_b       9.276545438789551
_cell_length_c       9.276548810779733
_cell_angle_alpha    86.11252841497436
_cell_angle_beta     89.72476731639557
_cell_angle_gamma    89.40960813042831

_space_group_name_H-M_alt    "P 1"
_space_group_IT_number       1

loop_
  _space_group_symop_operation_xyz
  'x, y, z'

loop_
  _atom_site_type_symbol
  _atom_site_label
  _atom_site_symmetry_multiplicity
  _atom_site_fract_x
  _atom_site_fract_y
  _atom_site_fract_z
  _atom_site_occupancy
  N   N1        1.0  0.9015659131644277  0.5635564955416914  0.4114710567648714  1.0000
  C   C1        1.0  0.8284731031966948  0.5875722296676228  0.3548676380193624  1.0000
  C   C2        1.0  0.737694509792328  0.617402114153988  0.2845600750391315  1.0000
  C   C3        1.0  0.6512267118721404  0.587377807031499  0.3577136638601126  1.0000
  C   C4        1.0  0.5648151089540469  0.6174020498983464  0.2845601148896717  1.0000
  C   C5        1.0  0.4739959827944034  0.5875720840444054  0.354867534745386  1.0000
  N   N2        1.0  0.40087048222279537  0.5635564708214573  0.4114710457610536  1.0000
  N   N3        1.0  0.5665035183348178  0.6747690507643489  0.14588881618385963  1.0000
  C   C6        1.0  0.6513203094740851  0.7047560589339874  0.0767769976040695  1.0000
  C   C7        1.0  0.6514067017344685  0.7638614856813015  0.9231191490129125  1.0000
  N   N4        1.0  0.7361064172825373  0.674769004205064  0.14588882690352478  1.0000
  H   H1        1.0  0.6511875918247398  0.5414738898406763  0.4683758026855768  1.0000
  H   H2        1.0  0.7160144198690853  0.8315198799537978  0.9007711285670718  1.0000
  H   H3        1.0  0.6522633925803595  0.6732717546827969  0.8508720815480766  1.0000
  H   H4        1.0  0.5860096162662806  0.8315178095151489  0.9007703616198593  1.0000
  C   C8        1.0  0.1541313270991993  0.1401191618448514  0.4112335198629285  1.0000
  C   C9        1.0  0.1549221383941093  0.22255643924614477  0.2782323496021495  1.0000
  C   C10       1.0  0.1469383303302052  0.15628928449505297  0.14812597336454258  1.0000
  C   C11       1.0  0.13797119814326186  0.006706296347012143  0.14901911271367507  1.0000
  C   C12       1.0  0.13867463927425813  0.9227083170054952  0.2795790448387707  1.0000
  C   C13       1.0  0.1483143374318019  0.9869828408943265  0.4117210643990284  1.0000
  Cl  Cl1       1.0  0.1467189127152186  0.2614088753525745  0.983618506747097  1.0000
  H   H5        1.0  0.20268023478797859  0.40514638025393807  0.6377821601038736  1.0000
  H   H6        1.0  0.15944573483596125  0.33925095960095497  0.27537942335846854  1.0000
  H   H7        1.0  0.13137309824245302  0.9550657727724315  0.048361051199912845  1.0000
  H   H8        1.0  0.13397292929370241  0.8064236622312598  0.2769293360383631  1.0000
  H   H9        1.0  0.11527067116186007  0.6903744501363664  0.6447293924473565  1.0000
  C   C14       1.0  0.15260734746078297  0.5596879076346335  0.9883257081488827  1.0000
  C   C15       1.0  0.23304902274326667  0.6145008862466717  0.05746373553494233  1.0000
  C   C16       1.0  0.3080132310048187  0.680060978153761  0.9772690059511655  1.0000
  C   C17       1.0  0.3036592948748815  0.6919116001553652  0.8268363022094003  1.0000
  C   C18       1.0  0.22532383992254523  0.6360871685071576  0.7560485862214801  1.0000
  C   C19       1.0  0.14983826976801384  0.5674139965598799  0.8346288932416107  1.0000
  Cl  Cl2       1.0  0.40700097377485145  0.7494913934878167  0.06581344272907708  1.0000
  H   H10       1.0  0.036819464752164466  0.3982926632407791  0.2812349353872725  1.0000
  H   H11       1.0  0.36147680928886605  0.7432072330253309  0.7643765773226723  1.0000
  H   H12       1.0  0.22491892061254926  0.6436110444725343  0.63900462649761  1.0000
  H   H13       1.0  0.9954381845930634  0.5145489254419109  0.5580023609899616  1.0000
  Zn  Zn1       1.0  0.045654426585840284  0.5635527003867324  0.41147937533626244  1.0000
  Zn  Zn2       1.0  0.2567819969147398  0.5635485620622194  0.4114745328821121  1.0000
  C   C20       1.0  0.15039901108503373  0.5602092649117634  0.6746561378743059  1.0000
  C   C21       1.0  0.1520397049622133  0.5668938181573373  0.14829791277022242  1.0000
  C   C22       1.0  0.14942768244799898  0.8268551239269677  0.40588673549507803  1.0000
  C   C23       1.0  0.153010973204589  0.30024622742680723  0.41706739097815976  1.0000
  O   O1        1.0  0.23197105480374125  0.5693043263589519  0.20198420469765632  1.0000
  O   O2        1.0  0.2307086107928591  0.557794524235957  0.620965755205492  1.0000
  O   O3        1.0  0.22992316565152787  0.7731144412877169  0.4039325620840657  1.0000
  O   O4        1.0  0.23275642818419207  0.35398441863726626  0.41901728978366676  1.0000
  O   O5        1.0  0.06967992326892467  0.7731168438145986  0.4039366184287816  1.0000
  O   O6        1.0  0.07046535675745114  0.5577986584810771  0.6209697357155729  1.0000
  O   O7        1.0  0.07172780684608937  0.5693083945397663  0.20198645271153692  1.0000
  O   O8        1.0  0.07251317993995698  0.3539884774909192  0.4190196458270374  1.0000
