data_image0
_chemical_formula_structural       NC8NC6H8C6NCOCH9C8NH11Zn2C4O8
_chemical_formula_sum              "N4 C34 H28 O9 Zn2"
_cell_length_a       17.457602349358154
_cell_length_b       10.300268703208214
_cell_length_c       9.275652972338538
_cell_angle_alpha    85.93999847967777
_cell_angle_beta     93.30040864466163
_cell_angle_gamma    91.66828978603887

_space_group_name_H-M_alt    "P 1"
_space_group_IT_number       1

loop_
  _space_group_symop_operation_xyz
  'x, y, z'

loop_
  _atom_site_type_symbol
  _atom_site_label
  _atom_site_symmetry_multiplicity
  _atom_site_fract_x
  _atom_site_fract_y
  _atom_site_fract_z
  _atom_site_occupancy
  N   N1        1.0  0.7159762797146995  0.4433451694374116  0.475002372633106  1.0000
  C   C1        1.0  0.6548601921203075  0.39735067580686345  0.4632170814341199  1.0000
  C   C2        1.0  0.5788292376878487  0.3401393049005659  0.4485667732820964  1.0000
  C   C3        1.0  0.5206278486533007  0.38081004752902614  0.531723123251864  1.0000
  C   C4        1.0  0.44603729575999784  0.32572098735947275  0.5177549609306584  1.0000
  C   C5        1.0  0.3842643561080342  0.3686649315551802  0.6058206925199918  1.0000
  C   C6        1.0  0.3094641617585616  0.38675102456554594  0.5439071740398296  1.0000
  C   C7        1.0  0.2512632909956354  0.4272385923403464  0.6271833872503305  1.0000
  C   C8        1.0  0.17501489481093216  0.4459153584995184  0.5628100736621038  1.0000
  N   N2        1.0  0.11372410276682084  0.4609251002784819  0.511054097398908  1.0000
  C   C9        1.0  0.2673726797120641  0.4498866657646674  0.7729377094927835  1.0000
  C   C10       1.0  0.3413898264853671  0.4321921801116031  0.8352815605587844  1.0000
  C   C11       1.0  0.3995811055556001  0.3918877812431543  0.7525135413850367  1.0000
  C   C12       1.0  0.4309304984879751  0.22927402280972636  0.41903952431790026  1.0000
  C   C13       1.0  0.48912190392716315  0.1888846734200858  0.33632728287756564  1.0000
  C   C14       1.0  0.5629301313018125  0.24408985872033886  0.35090604026815364  1.0000
  H   H1        1.0  0.533254938536862  0.4564543039702345  0.6056999719043055  1.0000
  H   H2        1.0  0.2966652738858835  0.3710847361328564  0.4306318824751967  1.0000
  H   H3        1.0  0.2227689070878489  0.48116923871187334  0.8382611572401419  1.0000
  H   H4        1.0  0.3536730130477526  0.44941346838035906  0.948142390507317  1.0000
  H   H5        1.0  0.45627628747774124  0.3772120508077097  0.8037049446519213  1.0000
  H   H6        1.0  0.37440740657748456  0.18386890879407547  0.40721411882204434  1.0000
  H   H7        1.0  0.47700302848520953  0.11434861205599936  0.2610199356966998  1.0000
  H   H8        1.0  0.6075364149087201  0.21194114163047686  0.28615010526642476  1.0000
  C   C15       1.0  0.9149318646541399  0.07079113576182051  0.49304415516241845  1.0000
  C   C16       1.0  0.9272660728454404  0.07982660725608362  0.3443325901114539  1.0000
  C   C17       1.0  0.9345294739659213  0.9671273733825237  0.26979963849111677  1.0000
  C   C18       1.0  0.9270925953096809  0.8446596359117712  0.3443528241105336  1.0000
  C   C19       1.0  0.9147758912883213  0.8334695349084426  0.4930254326796552  1.0000
  C   C20       1.0  0.9090498277531875  0.9471494755672005  0.5666999871673848  1.0000
  N   N3        1.0  0.9459610882154225  0.9747328050917302  0.11707453875431327  1.0000
  C   C21       1.0  0.9907045751576301  0.07535504180161023  0.043681782393098834  1.0000
  O   O1        1.0  0.034308886167781605  0.15067564758873322  0.1141931707826771  1.0000
  C   C22       1.0  0.9900847503887138  0.08524830303816859  0.8821621786637922  1.0000
  H   H9        1.0  0.9091250369273661  0.3947531363348676  0.5491445989484913  1.0000
  H   H10       1.0  0.9297023118772137  0.17443296254256646  0.2859167180908735  1.0000
  H   H11       1.0  0.9316187434486254  0.7581447125844771  0.2857627221326304  1.0000
  H   H12       1.0  0.8995577635420315  0.9393723348660762  0.6814049376631677  1.0000
  H   H13       1.0  0.9089726394213972  0.5017931738672166  0.5489174962982206  1.0000
  H   H14       1.0  0.9245875011427829  0.8980178500920332  0.057223636196731764  1.0000
  H   H15       1.0  0.9311801138379501  0.06536543075405254  0.8359589019934393  1.0000
  H   H16       1.0  0.008942605977228185  0.18449045974921452  0.8418430012740838  1.0000
  H   H17       1.0  0.02953854401757705  0.013029381421286066  0.8460611456151899  1.0000
  C   C23       1.0  0.9131458173030571  0.4495238301887525  0.06960926222276242  1.0000
  C   C24       1.0  0.8633472489883248  0.5322685986622715  0.13124215482345325  1.0000
  C   C25       1.0  0.8196071011160786  0.6228589453664295  0.04457696203690121  1.0000
  C   C26       1.0  0.8246290685413615  0.6294076365031598  0.8942467373094378  1.0000
  C   C27       1.0  0.8727377767701799  0.5466459848051792  0.8310525986255719  1.0000
  C   C28       1.0  0.9165619751956524  0.454736828584595  0.9164603352509267  1.0000
  C   C29       1.0  0.765721872859247  0.7093203668885114  0.11223601577777796  1.0000
  C   C30       1.0  0.6868215409953686  0.6423831510573794  0.12587225371194055  1.0000
  N   N4        1.0  0.63474949213649  0.7278410899177932  0.18935982554791053  1.0000
  H   H18       1.0  0.9694403736155957  0.25907146135611075  0.37132017861645694  1.0000
  H   H19       1.0  0.8596972772544095  0.5284942772988688  0.24773887490576937  1.0000
  H   H20       1.0  0.7905829315150659  0.6978505410128123  0.8255771874812887  1.0000
  H   H21       1.0  0.8741222895580778  0.552284454073164  0.7141581833892143  1.0000
  H   H22       1.0  0.021837994157594125  0.34044959034620637  0.6555230951696136  1.0000
  H   H23       1.0  0.7897526752031594  0.7332006370214046  0.2211283252258742  1.0000
  H   H24       1.0  0.7595583577117451  0.8028037062026573  0.045367297617154634  1.0000
  H   H25       1.0  0.6628309190469082  0.6195480569181925  0.016566425591989734  1.0000
  H   H26       1.0  0.6922583297279501  0.5496148162805488  0.19455827272742618  1.0000
  H   H27       1.0  0.5805499628595174  0.6818366360434194  0.18885028680277682  1.0000
  H   H28       1.0  0.6527201111762244  0.7351351791169078  0.29810856610053027  1.0000
  Zn  Zn1       1.0  0.830757743950071  0.44841492650297443  0.4854144471109201  1.0000
  Zn  Zn2       1.0  0.9989426740795037  0.45584476875242147  0.5006538282442243  1.0000
  C   C31       1.0  0.9159155738056195  0.44857803326570944  0.7563873260249796  1.0000
  C   C32       1.0  0.9137866810339973  0.455683382507816  0.22968125722674967  1.0000
  C   C33       1.0  0.9147782553574318  0.6892715202268298  0.48728274732075905  1.0000
  C   C34       1.0  0.9149239427215734  0.21498833328324543  0.4987859076432332  1.0000
  O   O2        1.0  0.9778270663959662  0.46056450557307216  0.28918614688415967  1.0000
  O   O3        1.0  0.9795236574034638  0.4493350063388992  0.7084483589834473  1.0000
  O   O4        1.0  0.9786044040256219  0.643698012264508  0.4911444297248131  1.0000
  O   O5        1.0  0.9787462619456649  0.26620150573626683  0.5064899628294401  1.0000
  O   O6        1.0  0.8509540986906164  0.6380581869850559  0.47957830731766643  1.0000
  O   O7        1.0  0.8518733514357759  0.4436967407888226  0.6968821596560009  1.0000
  O   O8        1.0  0.8501767534954077  0.45492618410071173  0.27761821397351927  1.0000
  O   O9        1.0  0.8510959494799559  0.260563175641029  0.49492213802411705  1.0000
