data_image0
_chemical_formula_structural       NC10NC3NCH9C6SCOC6H10C7OC3NC3H11Zn2C4O8
_chemical_formula_sum              "N4 C44 H30 S1 O10 Zn2"
_cell_length_a       19.437513618241372
_cell_length_b       10.302038109246572
_cell_length_c       10.298749378158432
_cell_angle_alpha    85.56336078908822
_cell_angle_beta     90.35618214226261
_cell_angle_gamma    89.54061355658763

_space_group_name_H-M_alt    "P 1"
_space_group_IT_number       1

loop_
  _space_group_symop_operation_xyz
  'x, y, z'

loop_
  _atom_site_type_symbol
  _atom_site_label
  _atom_site_symmetry_multiplicity
  _atom_site_fract_x
  _atom_site_fract_y
  _atom_site_fract_z
  _atom_site_occupancy
  N   N1        1.0  0.6479672526332776  0.41025597939966985  0.5758048425268192  1.0000
  C   C1        1.0  0.5890364732515837  0.4272622149443037  0.5728321775639269  1.0000
  C   C2        1.0  0.5155991981324736  0.44850994574066877  0.5691423503370188  1.0000
  C   C3        1.0  0.4738179455936438  0.3473467764945195  0.5574606291834572  1.0000
  C   C4        1.0  0.3979288194414249  0.3574100747436786  0.5502407929728277  1.0000
  C   C5        1.0  0.35837663677714027  0.4382290614772389  0.6160060749326879  1.0000
  C   C6        1.0  0.2821918745274475  0.4296241601191537  0.6075594238307529  1.0000
  C   C7        1.0  0.24903575467379013  0.30830897566630266  0.6121774984056219  1.0000
  C   C8        1.0  0.1772990722530057  0.3019398435188809  0.6050074748947776  1.0000
  C   C9        1.0  0.1377478480706693  0.4164132751408127  0.5935815395262536  1.0000
  C   C10       1.0  0.0638966128043825  0.4097060717572456  0.5862433385673795  1.0000
  N   N2        1.0  0.004525317839462301  0.4043140700881627  0.580343883566413  1.0000
  C   C11       1.0  0.1701874136462121  0.537417854696244  0.5897087392808544  1.0000
  C   C12       1.0  0.2419085526617546  0.5440409056369  0.5969408433463399  1.0000
  C   C13       1.0  0.3870880811700492  0.5304773911187171  0.7059532868908514  1.0000
  N   N3        1.0  0.44408160559810017  0.5936773022653292  0.6855607304857112  1.0000
  C   C14       1.0  0.48790574749876964  0.5844359469091025  0.5724415089023109  1.0000
  H   H1        1.0  0.49618360372531684  0.2523161238935008  0.5453182478266281  1.0000
  H   H2        1.0  0.3731946728095548  0.28792423853958926  0.49190293211456493  1.0000
  H   H3        1.0  0.2784717080582106  0.21841785828827986  0.6231802422260306  1.0000
  H   H4        1.0  0.1526894218459174  0.20773649868446897  0.6088750173895097  1.0000
  H   H5        1.0  0.1400663687183121  0.6266538673781283  0.5810182027352804  1.0000
  H   H6        1.0  0.2660367519937024  0.6386569494493783  0.5930579271898915  1.0000
  H   H7        1.0  0.3570996390999833  0.5508447308483515  0.7903314905398486  1.0000
  H   H8        1.0  0.5306715062938365  0.6547299366738868  0.5782202992816985  1.0000
  H   H9        1.0  0.4582315910855978  0.6125518286627096  0.4817941196887776  1.0000
  C   C15       1.0  0.8261844171772978  0.026007594574036785  0.5780334315899402  1.0000
  C   C16       1.0  0.7673621062862334  0.03176361059870537  0.497758703812521  1.0000
  C   C17       1.0  0.7384181489927201  0.9176636999582145  0.4573374939057122  1.0000
  C   C18       1.0  0.767583391668946  0.7966273287885218  0.4977075103789654  1.0000
  C   C19       1.0  0.8263147699117472  0.7885523126780042  0.5781266726921379  1.0000
  C   C20       1.0  0.8553478007189909  0.903900120216923  0.6177880655123813  1.0000
  S   S1        1.0  0.6637533622830398  0.9264509014175141  0.3537697344209141  1.0000
  C   C21       1.0  0.7143228808248793  0.9341140403687596  0.2079798614912227  1.0000
  O   O1        1.0  0.730908046646045  0.8285735213214812  0.16183725628321688  1.0000
  C   C22       1.0  0.7370076642341106  0.05990727535910856  0.14276587375273686  1.0000
  C   C23       1.0  0.7856419548978947  0.06144395185200868  0.041870382553108376  1.0000
  C   C24       1.0  0.8077484662390233  0.17941652686352996  0.9804237926821638  1.0000
  C   C25       1.0  0.7815927559146276  0.29708632356405973  0.01859515886645658  1.0000
  C   C26       1.0  0.7331652612924482  0.2970188892790795  0.11814013079608741  1.0000
  C   C27       1.0  0.710829455047817  0.17935374818637317  0.17990399977035043  1.0000
  H   H10       1.0  0.9369779183504291  0.22246352042254872  0.7295096452223857  1.0000
  H   H11       1.0  0.7439523876652221  0.12467823622642893  0.4661824023524706  1.0000
  H   H12       1.0  0.744395279868866  0.7092647659368244  0.4656454600614217  1.0000
  H   H13       1.0  0.9006959542878656  0.8985423183445056  0.679671202355943  1.0000
  H   H14       1.0  0.8487643848095892  0.4581656944760021  0.6083814270345194  1.0000
  H   H15       1.0  0.80692190946753  0.9715272820592347  0.010841213671125113  1.0000
  H   H16       1.0  0.8452718093322239  0.1795507951657163  0.9031976820512151  1.0000
  H   H17       1.0  0.7987857177631379  0.3883080043544001  0.9709359294814552  1.0000
  H   H18       1.0  0.7127868434253095  0.38830356159023416  0.1474199822269071  1.0000
  H   H19       1.0  0.6729029951570263  0.18261399540198095  0.25599255045088687  1.0000
  C   C28       1.0  0.826217855310347  0.4073084745337314  0.1966785812573126  1.0000
  C   C29       1.0  0.8638185356657437  0.5235187495207878  0.18715159327295972  1.0000
  C   C30       1.0  0.8821415342944602  0.5830949115913264  0.06508671287731671  1.0000
  C   C31       1.0  0.8638212783346029  0.5235675535863666  0.9519076046324856  1.0000
  C   C32       1.0  0.8262812885452446  0.40725139845826464  0.9594814918023821  1.0000
  C   C33       1.0  0.8075597845789021  0.3500431432642841  0.08229029849013347  1.0000
  C   C34       1.0  0.9224053850644056  0.7051625967170021  0.0549338851051997  1.0000
  O   O2        1.0  0.9653978875550596  0.722784560424543  0.9641364793165224  1.0000
  C   C35       1.0  0.9138980375456388  0.8072308657931108  0.14772750917505406  1.0000
  C   C36       1.0  0.8495370516356185  0.8308720522377069  0.2036151544368423  1.0000
  C   C37       1.0  0.8418578404485731  0.9284787969024375  0.29022937479012945  1.0000
  N   N4        1.0  0.7763587168331422  0.9514167459671513  0.3470703300333897  1.0000
  C   C38       1.0  0.8986423954126724  0.0037654161652085306  0.320359085011104  1.0000
  C   C39       1.0  0.9624615571553455  0.98208344503222  0.2640054422204434  1.0000
  C   C40       1.0  0.97010117313752  0.8847889563858076  0.17776755985801107  1.0000
  H   H20       1.0  0.7560827157730249  0.18669963210137253  0.42213179893366054  1.0000
  H   H21       1.0  0.8795382754056021  0.567092132847856  0.27490312367807457  1.0000
  H   H22       1.0  0.8783387670435002  0.568836726726403  0.8576915679219752  1.0000
  H   H23       1.0  0.7785797201582108  0.26046354433864116  0.08888213832607006  1.0000
  H   H24       1.0  0.7555986114763504  0.18723053106564633  0.7665111947044032  1.0000
  H   H25       1.0  0.8051357511408265  0.7746183641410722  0.17900007363482917  1.0000
  H   H26       1.0  0.7336868153795991  0.8958692391525676  0.32529234654305883  1.0000
  H   H27       1.0  0.7700673798358978  0.02402267405952951  0.41148666803696  1.0000
  H   H28       1.0  0.8933687060161689  0.07944960556037373  0.3870340916069215  1.0000
  H   H29       1.0  0.006128285368129925  0.040808603930088345  0.28720482300046646  1.0000
  H   H30       1.0  0.020080363875137452  0.8693148625975169  0.13540158782170342  1.0000
  Zn  Zn1       1.0  0.7508622137107633  0.40853778378490313  0.577122220890826  1.0000
  Zn  Zn2       1.0  0.9016303620362489  0.4060215979177922  0.5790371746814267  1.0000
  C   C41       1.0  0.826266894250952  0.40208979518671684  0.8152947589249894  1.0000
  C   C42       1.0  0.8262273281701507  0.4124711972559039  0.34086478523608355  1.0000
  C   C43       1.0  0.8262861394205787  0.6444155663425133  0.5729333673384263  1.0000
  C   C44       1.0  0.8262080312930403  0.17014386702559398  0.5832262452230597  1.0000
  O   O3        1.0  0.883446232935031  0.4132433103591558  0.3899817067398521  1.0000
  O   O4        1.0  0.8834775253291234  0.3994069757716099  0.7676308690416047  1.0000
  O   O5        1.0  0.8834922948639629  0.5950881133787893  0.5719223209568205  1.0000
  O   O6        1.0  0.8834314119467216  0.2175621829058554  0.5856901567893509  1.0000
  O   O7        1.0  0.7690611123505204  0.5969971996569046  0.5704692381225904  1.0000
  O   O8        1.0  0.7690463430733944  0.40131762198430365  0.7661777171466513  1.0000
  O   O9        1.0  0.7690150505874334  0.4151539114427794  0.3885269933060278  1.0000
  O   O10       1.0  0.7690002296028237  0.21947277469566506  0.5842355407305018  1.0000
