data_image0
_chemical_formula_structural       NC5N2C2NH4C7NH5C6NCH7Zn2C4O8
_chemical_formula_sum              "N6 C25 H16 Zn2 O8"
_cell_length_a       13.87973921873968
_cell_length_b       9.275154477615127
_cell_length_c       9.274690524155613
_cell_angle_alpha    86.28222006600178
_cell_angle_beta     89.68736137004737
_cell_angle_gamma    89.4337086285363

_space_group_name_H-M_alt    "P 1"
_space_group_IT_number       1

loop_
  _space_group_symop_operation_xyz
  'x, y, z'

loop_
  _atom_site_type_symbol
  _atom_site_label
  _atom_site_symmetry_multiplicity
  _atom_site_fract_x
  _atom_site_fract_y
  _atom_site_fract_z
  _atom_site_occupancy
  N   N1        1.0  0.9026776109575517  0.5640762416170757  0.4163873566795302  1.0000
  C   C1        1.0  0.829615845386225  0.5881129938754925  0.3598520484632046  1.0000
  C   C2        1.0  0.7388758124087602  0.6179689851736547  0.28962908526747166  1.0000
  C   C3        1.0  0.6523681669961221  0.5879174345999207  0.36269807175089785  1.0000
  C   C4        1.0  0.565996411535824  0.6179689209069472  0.28962912491012727  1.0000
  C   C5        1.0  0.47513872498936693  0.5881128483055533  0.35985194467359927  1.0000
  N   N2        1.0  0.4019821800140103  0.5640762169032438  0.41638734558968293  1.0000
  N   N3        1.0  0.5677604788419176  0.6753875293112013  0.15111972798604323  1.0000
  C   C6        1.0  0.6526153542064317  0.7054001479174303  0.08209331477634318  1.0000
  C   C7        1.0  0.6527843749728931  0.7645631111744506  0.9285997953407263  1.0000
  N   N4        1.0  0.737363377772402  0.6753874827512472  0.15111973855090288  1.0000
  H   H1        1.0  0.6522686370622919  0.5419723434606629  0.47323059111633636  1.0000
  H   H2        1.0  0.7174200757618067  0.8322252186583289  0.9064751767949182  1.0000
  H   H3        1.0  0.6536479167528411  0.6740097627511152  0.8560301245874475  1.0000
  H   H4        1.0  0.5874152719320149  0.83222314869329  0.9064744026778243  1.0000
  C   C8        1.0  0.15512866802375735  0.14067237676614242  0.41471946487253564  1.0000
  C   C9        1.0  0.12915371056685676  0.22274310589562593  0.28763687632181734  1.0000
  C   C10       1.0  0.09531722498952999  0.15565503734033892  0.16728604185094564  1.0000
  C   C11       1.0  0.08689647480245032  0.005580862729820612  0.17260040389015052  1.0000
  C   C12       1.0  0.1137751078436946  0.9222771943606423  0.29678624605438864  1.0000
  C   C13       1.0  0.14954036556341888  0.987469097261108  0.41806771554249234  1.0000
  C   C14       1.0  0.06806615733607635  0.241294220287384  0.038671776707122074  1.0000
  N   N5        1.0  0.04616386802666739  0.31013250466099196  0.9352988517792489  1.0000
  H   H5        1.0  0.17249973193105728  0.22042908407999737  0.7685154399550722  1.0000
  H   H6        1.0  0.1331041917083533  0.33966520703910574  0.2833602485191007  1.0000
  H   H7        1.0  0.06037764579734084  0.9526475700158132  0.08010322896083233  1.0000
  H   H8        1.0  0.10871643261448982  0.8058084924343146  0.29665940045647377  1.0000
  H   H9        1.0  0.16532955544265526  0.6907663246618941  0.655121082503392  1.0000
  C   C15       1.0  0.15390154584357704  0.5603792316944602  0.9931316784389318  1.0000
  C   C16       1.0  0.23176589973053896  0.6227495196546629  0.06211566154741832  1.0000
  C   C17       1.0  0.30460365734900186  0.6960394604398565  0.981907651102262  1.0000
  C   C18       1.0  0.2988252877248575  0.7066897448604306  0.8310533010149048  1.0000
  C   C19       1.0  0.22302254313199607  0.6434604473375056  0.7608552362579348  1.0000
  C   C20       1.0  0.15076744683135623  0.5677622093372781  0.8396554169925738  1.0000
  N   N6        1.0  0.38434947438974365  0.7614709872182692  0.050888156848245325  1.0000
  C   C21       1.0  0.39745830337399135  0.756395457765578  0.2071496363476879  1.0000
  H   H10       1.0  0.045077898019125984  0.38658056677990116  0.2854432592725158  1.0000
  H   H11       1.0  0.35394774488087943  0.7631306211826587  0.7672179080784489  1.0000
  H   H12       1.0  0.22224310802683211  0.6508995764768537  0.6438119353726588  1.0000
  H   H13       1.0  0.4364126689143301  0.8154044248501908  0.9864672617016758  1.0000
  H   H14       1.0  0.46450679521419747  0.8135252911536801  0.2330538422515724  1.0000
  H   H15       1.0  0.4036026130757693  0.642410392504553  0.2509235947148256  1.0000
  H   H16       1.0  0.33565349004072975  0.8104484913755785  0.25856537492781473  1.0000
  Zn  Zn1       1.0  0.04676611974477285  0.5640724433941868  0.41639566434359154  1.0000
  Zn  Zn2       1.0  0.25789369105553117  0.5640683073558717  0.41639080679781193  1.0000
  C   C22       1.0  0.15139564319001209  0.5606227475195671  0.6796216258799945  1.0000
  C   C23       1.0  0.15326646058731327  0.5675198236495012  0.153164993870049  1.0000
  C   C24       1.0  0.15061297513258842  0.8273563787603129  0.4116911304375992  1.0000
  C   C25       1.0  0.15404906774908356  0.3007844607992205  0.4210955593091399  1.0000
  O   O1        1.0  0.23317517469698923  0.5699084117079773  0.20687176816646158  1.0000
  O   O2        1.0  0.2317278792600308  0.5582299289762529  0.6259107456053368  1.0000
  O   O3        1.0  0.23109477927644173  0.7736207226026124  0.40955498083550923  1.0000
  O   O4        1.0  0.2338082029690811  0.35451762745468507  0.42322742490755605  1.0000
  O   O5        1.0  0.07085153578376199  0.7736231232982882  0.40955904622792993  1.0000
  O   O6        1.0  0.07148462461554361  0.5582340612843784  0.6259147409951458  1.0000
  O   O7        1.0  0.07293192686389903  0.5699124786582532  0.206874030438692  1.0000
  O   O8        1.0  0.07356495480002745  0.3545216850348081  0.4232297952026025  1.0000
