data_image0
_chemical_formula_structural       NC5N2C2NH4C6ClH5C6FH2Zn2C4O8
_chemical_formula_sum              "N4 C23 H11 Cl1 F1 Zn2 O8"
_cell_length_a       13.87973921873968
_cell_length_b       9.276545438789551
_cell_length_c       9.275646106892307
_cell_angle_alpha    84.98577803735094
_cell_angle_beta     90.02253601323379
_cell_angle_gamma    89.40960813042831

_space_group_name_H-M_alt    "P 1"
_space_group_IT_number       1

loop_
  _space_group_symop_operation_xyz
  'x, y, z'

loop_
  _atom_site_type_symbol
  _atom_site_label
  _atom_site_symmetry_multiplicity
  _atom_site_fract_x
  _atom_site_fract_y
  _atom_site_fract_z
  _atom_site_occupancy
  N   N1        1.0  0.8958310629345554  0.5950010739775713  0.40889479511961657  1.0000
  C   C1        1.0  0.8225339053341358  0.6201372602350559  0.35219957746964026  1.0000
  C   C2        1.0  0.7315014900869655  0.6513588673514575  0.28177799032973017  1.0000
  C   C3        1.0  0.6452977886300197  0.6198865011480534  0.35505021896895017  1.0000
  C   C4        1.0  0.5586220893925512  0.6513588023069834  0.2817780302448998  1.0000
  C   C5        1.0  0.46805678455900857  0.6201371166561243  0.35219947402817464  1.0000
  N   N2        1.0  0.3951356319531974  0.5950010494751552  0.4088947840979536  1.0000
  N   N3        1.0  0.5598098726231684  0.711470770803276  0.14288183570091317  1.0000
  C   C6        1.0  0.6443771587531895  0.7428258321075034  0.0736579322087274  1.0000
  C   C7        1.0  0.6439088209584065  0.8049728819192822  0.919750882730483  1.0000
  N   N4        1.0  0.7294127716095877  0.7114707240317977  0.14288184643796353  1.0000
  H   H1        1.0  0.6456581770681172  0.5717920514403398  0.465891828634434  1.0000
  H   H2        1.0  0.7084358590709582  0.8730736503045  0.8973666184704095  1.0000
  H   H3        1.0  0.6445046880319496  0.7158132656123195  0.8473866456354155  1.0000
  H   H4        1.0  0.5784310526993481  0.8730715950474015  0.8973658502793693  1.0000
  C   C8        1.0  0.1483956193221212  0.17156844227107015  0.40865687298250863  1.0000
  C   C9        1.0  0.14870627456127194  0.2566384483665052  0.2754400026457715  1.0000
  C   C10       1.0  0.14025276112319007  0.19294672050331108  0.14512262108255713  1.0000
  C   C11       1.0  0.1312888533158989  0.0433460528597609  0.14601720891688033  1.0000
  C   C12       1.0  0.13246363723227406  0.956763668592055  0.27678888194035456  1.0000
  C   C13       1.0  0.14258038977052578  0.018422470484486204  0.4091452082138578  1.0000
  Cl  Cl1       1.0  0.13943944455108093  0.30132270021000584  0.9803483577671925  1.0000
  H   H5        1.0  0.1977624047883848  0.43211118054654984  0.6355729277267417  1.0000
  H   H6        1.0  0.15321957147109777  0.3733894417641408  0.27258244955252064  1.0000
  H   H7        1.0  0.12432736129077981  0.9936980333084476  0.045195901083768586  1.0000
  H   H8        1.0  0.12775236136802004  0.8405314642163857  0.27413487586655916  1.0000
  H   H9        1.0  0.11037792181136097  0.7172017315041467  0.6425314270278102  1.0000
  C   C14       1.0  0.14534487306635602  0.5995085544833655  0.9850631932649634  1.0000
  C   C15       1.0  0.2334569399473294  0.6145789170798814  0.057132737440900756  1.0000
  C   C16       1.0  0.3204677629324654  0.6161100838582101  0.9816878040700852  1.0000
  C   C17       1.0  0.3208956175973145  0.6024530554217344  0.833303674439966  1.0000
  C   C18       1.0  0.23427677815278947  0.5897869102820652  0.7593035576146985  1.0000
  C   C19       1.0  0.14563107556312005  0.5904823384247184  0.832738871413788  1.0000
  F   F1        1.0  0.40474998377954496  0.6291282685556308  0.05313052590121804  1.0000
  H   H10       1.0  0.9227448477096322  0.4823621023044156  0.09814854608781176  1.0000
  H   H11       1.0  0.3884527348125839  0.6030562731441844  0.7749886609675518  1.0000
  Zn  Zn1       1.0  0.03991960638737635  0.5949971141583352  0.4089031271819903  1.0000
  Zn  Zn2       1.0  0.2510471592342214  0.5949930716891291  0.4088982768743923  1.0000
  C   C20       1.0  0.1456143021977707  0.5864441529851587  0.6725067073755358  1.0000
  C   C21       1.0  0.14535475648467533  0.6035478506631589  0.14529483933798604  1.0000
  C   C22       1.0  0.14367267190171917  0.8584102427649773  0.4033014172488947  1.0000
  C   C23       1.0  0.14729632665982173  0.3315800276670031  0.4145002054163147  1.0000
  O   O1        1.0  0.22547992265225258  0.6048956506121903  0.19906819920041577  1.0000
  O   O2        1.0  0.22573007081129903  0.5850922015372556  0.6187292501373998  1.0000
  O   O3        1.0  0.224161100218472  0.8047082425553798  0.40134407457739935  1.0000
  O   O4        1.0  0.22704882109417346  0.38527962106267677  0.41645326654978954  1.0000
  O   O5        1.0  0.06391787247993874  0.8047105647878168  0.40134813750065734  1.0000
  O   O6        1.0  0.06548683114618559  0.5850962569890603  0.6187332371030352  1.0000
  O   O7        1.0  0.06523668281030015  0.6048996742940682  0.19907045086010466  1.0000
  O   O8        1.0  0.06680558135564163  0.38528363327897375  0.4164556264141699  1.0000
