data_image0
_chemical_formula_structural       NC8NC6H8C8NH5C7NC2NH7Zn2C4O8
_chemical_formula_sum              "N5 C35 H20 Zn2 O8"
_cell_length_a       17.457602349358154
_cell_length_b       9.274263428431858
_cell_length_c       9.27399911348925
_cell_angle_alpha    85.02669958396683
_cell_angle_beta     92.55204972901187
_cell_angle_gamma    92.30649601595262

_space_group_name_H-M_alt    "P 1"
_space_group_IT_number       1

loop_
  _space_group_symop_operation_xyz
  'x, y, z'

loop_
  _atom_site_type_symbol
  _atom_site_label
  _atom_site_symmetry_multiplicity
  _atom_site_fract_x
  _atom_site_fract_y
  _atom_site_fract_z
  _atom_site_occupancy
  N   N1        1.0  0.7365255089140592  0.6276213054930824  0.4736295291906188  1.0000
  C   C1        1.0  0.675192576207125  0.576703143890104  0.4618442338040991  1.0000
  C   C2        1.0  0.5988918275963868  0.5133672055131135  0.4471939270467073  1.0000
  C   C3        1.0  0.540354588148101  0.5572490593816795  0.5304029839067341  1.0000
  C   C4        1.0  0.4655032434233549  0.49626044984148204  0.516434923413549  1.0000
  C   C5        1.0  0.4033737846119406  0.5425908745191195  0.604556497338403  1.0000
  C   C6        1.0  0.3291415736021796  0.5636585182472134  0.5425947606543968  1.0000
  C   C7        1.0  0.2706027789310146  0.6073349681928626  0.6259238015991035  1.0000
  C   C8        1.0  0.1949440912232488  0.6290975366119884  0.5615003778511769  1.0000
  N   N2        1.0  0.13412738165163032  0.6465875523144777  0.5097041143248342  1.0000
  C   C9        1.0  0.28580378599725403  0.630208894280005  0.7717795331143611  1.0000
  C   C10       1.0  0.35925240206327086  0.6095695950419997  0.8341718415273318  1.0000
  C   C11       1.0  0.41777912278335233  0.5660886757655972  0.7513513288606015  1.0000
  C   C12       1.0  0.4504785278967722  0.39065149165933977  0.4176658564889746  1.0000
  C   C13       1.0  0.5090044119952354  0.3470753097743353  0.33490117773613837  1.0000
  C   C14       1.0  0.583069765467668  0.40818335066027833  0.3494802541801878  1.0000
  H   H1        1.0  0.5529423009540633  0.6401332983472461  0.6044193979482979  1.0000
  H   H2        1.0  0.317061368302034  0.5480316363339388  0.4292402981721184  1.0000
  H   H3        1.0  0.2409318063251816  0.6639399439140974  0.8371445083951041  1.0000
  H   H4        1.0  0.3708301337618596  0.626930708622688  0.9471112535133873  1.0000
  H   H5        1.0  0.4740065129811404  0.5489786408490702  0.8025825483232951  1.0000
  H   H6        1.0  0.39374275596696706  0.34038880486587697  0.40584030836646057  1.0000
  H   H7        1.0  0.49694184901683847  0.26544325987555806  0.25955309544949445  1.0000
  H   H8        1.0  0.6279344462281009  0.37348103490837614  0.2846833635917887  1.0000
  C   C15       1.0  0.9329013478715259  0.21340261056104293  0.49175352043437776  1.0000
  C   C16       1.0  0.9234052588795936  0.2974593423276348  0.358981454350517  1.0000
  C   C17       1.0  0.9214302349501706  0.23359337932367796  0.22808586020753932  1.0000
  C   C18       1.0  0.9295261008241884  0.08421551169044483  0.226781242524321  1.0000
  C   C19       1.0  0.9369660391889225  0.9985638088453027  0.35848198167487144  1.0000
  C   C20       1.0  0.9377587759825846  0.060795395574457116  0.4915932899061526  1.0000
  C   C21       1.0  0.9262517741832871  0.015299230590640308  0.08565595563979866  1.0000
  C   C22       1.0  0.8467522362020591  0.972850294717519  0.04636425880210714  1.0000
  N   N3        1.0  0.784004915672962  0.9393448241399753  0.015361702255275445  1.0000
  H   H9        1.0  0.9980486071118932  0.2918759231906334  0.830432887997264  1.0000
  H   H10       1.0  0.9191716856753718  0.4138969031023496  0.35623337016112977  1.0000
  H   H11       1.0  0.9143033896699024  0.30105332172020005  0.1274128888433641  1.0000
  H   H12       1.0  0.9616798574683022  0.9178252263986187  0.09445603492530652  1.0000
  H   H13       1.0  0.9491949182488224  0.0919897052897376  0.9979152379430842  1.0000
  C   C23       1.0  0.9366762438464468  0.6408548967276295  0.06794152836805467  1.0000
  C   C24       1.0  0.9965045842138551  0.5746384433937357  0.15190330450295453  1.0000
  C   C25       1.0  0.05119557726191261  0.49790779862494694  0.08826955799046932  1.0000
  C   C26       1.0  0.047524673608595476  0.4847242307730685  0.938649328829953  1.0000
  C   C27       1.0  0.9888649495963736  0.5534323700852108  0.8532332097174562  1.0000
  C   C28       1.0  0.9339838742823031  0.6333430689649346  0.9154052174888916  1.0000
  C   C29       1.0  0.1059086148311168  0.40124010752316486  0.8733121759624005  1.0000
  N   N4        1.0  0.16986553869566512  0.35389133066430134  0.9471895862130665  1.0000
  C   C30       1.0  0.2065914326485536  0.2834689456348367  0.851249943682082  1.0000
  C   C31       1.0  0.16472554599825798  0.2886606670586318  0.7219042567271826  1.0000
  N   N5        1.0  0.1014028820183912  0.36266246296472104  0.7359373875128803  1.0000
  H   H14       1.0  0.8560533430341554  0.8190763376675063  0.3270746019902593  1.0000
  H   H15       1.0  4.5428822752490085e-06  0.5790978881658237  0.26836896415003  1.0000
  H   H16       1.0  0.09588269947452083  0.4469010110296217  0.1570894613155991  1.0000
  H   H17       1.0  0.8147474107181671  0.7090668143636005  0.6187669466748176  1.0000
  H   H18       1.0  0.26054857374955  0.23114281775301881  0.8745528872528556  1.0000
  H   H19       1.0  0.17917555606080163  0.24118485774298162  0.6245568037088978  1.0000
  H   H20       1.0  0.058125452585206405  0.3824618717231141  0.6562898949384386  1.0000
  Zn  Zn1       1.0  0.8512647720970301  0.633090611491445  0.4840482073462409  1.0000
  Zn  Zn2       1.0  0.019387998876734713  0.6411063118442888  0.49929725200869246  1.0000
  C   C32       1.0  0.9344581290211288  0.6290149091575048  0.7552174002493726  1.0000
  C   C33       1.0  0.936196487838633  0.6451839209649477  0.22812836690596286  1.0000
  C   C34       1.0  0.9368549331915843  0.900670864621232  0.4858731649252699  1.0000
  C   C35       1.0  0.9337996161182993  0.3735262285836569  0.4974726742842046  1.0000
  O   O1        1.0  0.9998373296389186  0.6496724029005121  0.2876754674128541  1.0000
  O   O2        1.0  0.9984189213202541  0.6306090735264933  0.707243556634915  1.0000
  O   O3        1.0  0.000353506152974469  0.8499746388161826  0.48974610266008134  1.0000
  O   O4        1.0  0.9979026878400141  0.4303068461560657  0.5051728079910986  1.0000
  O   O5        1.0  0.8727500257615778  0.8438900744459417  0.47817264615249405  1.0000
  O   O6        1.0  0.8708154511065623  0.6245262433400882  0.6956700228618489  1.0000
  O   O7        1.0  0.8722338646995893  0.6435895378145089  0.2761001988108345  1.0000
  O   O8        1.0  0.8702992224946954  0.4242239697910925  0.49359764757432806  1.0000
