data_image0
_chemical_formula_structural       NC8NC6H8C6H4C8H8Zn2C4O8
_chemical_formula_sum              "N2 C32 H20 Zn2 O8"
_cell_length_a       17.457602349358154
_cell_length_b       10.681118228259551
_cell_length_c       9.275657083861812
_cell_angle_alpha    85.85420768060796
_cell_angle_beta     92.37146316173272
_cell_angle_gamma    91.68806569353352

_space_group_name_H-M_alt    "P 1"
_space_group_IT_number       1

loop_
  _space_group_symop_operation_xyz
  'x, y, z'

loop_
  _atom_site_type_symbol
  _atom_site_label
  _atom_site_symmetry_multiplicity
  _atom_site_fract_x
  _atom_site_fract_y
  _atom_site_fract_z
  _atom_site_occupancy
  N   N1        1.0  0.7294602489063641  0.3944453820115701  0.4760564097219135  1.0000
  C   C1        1.0  0.6684366938450851  0.3501102324455825  0.464277859008426  1.0000
  C   C2        1.0  0.5925207594395643  0.29496286180544784  0.44963592908665007  1.0000
  C   C3        1.0  0.5336084873180346  0.3340445723456005  0.5327377388535289  1.0000
  C   C4        1.0  0.45912748829104005  0.2809427142332923  0.5187775513404838  1.0000
  C   C5        1.0  0.396601670335088  0.32220837309372685  0.6067855196391396  1.0000
  C   C6        1.0  0.3223406382887572  0.33975336966684466  0.5449137979776771  1.0000
  C   C7        1.0  0.2634278103706504  0.3786582345473808  0.6281353864245367  1.0000
  C   C8        1.0  0.1877399710359525  0.3967769653997903  0.5638055270787332  1.0000
  N   N2        1.0  0.1268998639447279  0.41133827388231675  0.512084487757501  1.0000
  C   C9        1.0  0.2782812470510456  0.40025496565952867  0.7737929160573747  1.0000
  C   C10       1.0  0.3517555897112302  0.38308689604119966  0.8360946925139701  1.0000
  C   C11       1.0  0.410654468157125  0.3443578197655907  0.7533809631842631  1.0000
  C   C12       1.0  0.4448547469654871  0.18809914292575056  0.4201256754229214  1.0000
  C   C13       1.0  0.5037532520273226  0.1492880510861683  0.33746768448382736  1.0000
  C   C14       1.0  0.5774466684320385  0.20250087259967597  0.3520380621043916  1.0000
  H   H1        1.0  0.5456112276801645  0.40686842308987575  0.6066670382408823  1.0000
  H   H2        1.0  0.3105182287577826  0.32483516877354446  0.43171377790912935  1.0000
  H   H3        1.0  0.23311890431985152  0.43031302784963693  0.8390735033798271  1.0000
  H   H4        1.0  0.3630662000710187  0.3995053577546612  0.948880566020569  1.0000
  H   H5        1.0  0.4669039161409719  0.330119560807772  0.8045378148009223  1.0000
  H   H6        1.0  0.38842465490244626  0.14433242985831038  0.4083070516967702  1.0000
  H   H7        1.0  0.49227045946779363  0.07753511751976516  0.26220880245819966  1.0000
  H   H8        1.0  0.6226064370191584  0.1716065926890713  0.28732458718814824  1.0000
  C   C15       1.0  0.928183703218026  0.035141991950475855  0.49407698166732517  1.0000
  C   C16       1.0  0.9613213585417084  0.9625477579760366  0.6115634828093455  1.0000
  C   C17       1.0  0.9613213471210473  0.8316655190208999  0.6115634158672786  1.0000
  C   C18       1.0  0.9281836900547052  0.7706323956257043  0.4940770427901522  1.0000
  C   C19       1.0  0.8950734669470501  0.8432168177014713  0.37668763380966275  1.0000
  C   C20       1.0  0.8950734783634599  0.9741090765464773  0.37668769335148844  1.0000
  H   H9        1.0  0.9872962618240958  0.006827607894621447  0.7036549066143905  1.0000
  H   H10       1.0  0.9872961676538804  0.7783235751826871  0.7036548726139908  1.0000
  H   H11       1.0  0.8690951769738502  0.7989823146347872  0.28458418614716896  1.0000
  H   H12       1.0  0.8690951569258942  0.02740675276428494  0.2845841726082252  1.0000
  C   C21       1.0  0.9301371509102727  0.4010823820026792  0.07093421377795028  1.0000
  C   C22       1.0  0.9698629434110656  0.49823375102220585  0.13947576106284054  1.0000
  C   C23       1.0  0.002817116992683613  0.6004571901424249  0.058724492178032994  1.0000
  C   C24       1.0  0.9971836861989845  0.6047232694722892  0.907574932994564  1.0000
  C   C25       1.0  0.9591142754483443  0.5082029942735982  0.837730933642244  1.0000
  C   C26       1.0  0.9262302293566567  0.4046919600272855  0.9172198363865677  1.0000
  C   C27       1.0  0.04608848674890753  0.7027202855875101  0.13384696598161194  1.0000
  C   C28       1.0  0.13032477251404395  0.6705658878108001  0.15932763340653008  1.0000
  H   H13       1.0  0.8957134955110785  0.1998381347858296  0.3656407338229543  1.0000
  H   H14       1.0  0.023037820232380678  0.6823626330549939  0.8435323952148165  1.0000
  H   H15       1.0  0.8356825662722839  0.2565139529441301  0.6411772468049247  1.0000
  H   H16       1.0  0.04188857285543124  0.7934554829688978  0.06762593928774673  1.0000
  H   H17       1.0  0.02058137868936383  0.7158191417691497  0.23941123112221252  1.0000
  H   H18       1.0  0.13578420396102797  0.5817104870077501  0.2285707126568972  1.0000
  H   H19       1.0  0.15731268391237874  0.660187412310608  0.05459928561392369  1.0000
  H   H20       1.0  0.1611651349179724  0.7470513038637403  0.2146899390004784  1.0000
  Zn  Zn1       1.0  0.8441526982617356  0.3993169828517184  0.4864616546192255  1.0000
  Zn  Zn2       1.0  0.012207345877506267  0.40645645577991724  0.5016910400385226  1.0000
  C   C29       1.0  0.9269670123041716  0.39902068748941194  0.7572535544335087  1.0000
  C   C30       1.0  0.9293948663336352  0.4067544098117526  0.23089944795748396  1.0000
  C   C31       1.0  0.9282062459914554  0.6315843687825822  0.4883346292338619  1.0000
  C   C32       1.0  0.9281555749464365  0.17418922182681862  0.499818444783084  1.0000
  O   O1        1.0  0.9929216117950577  0.4113619235133188  0.29036471424616805  1.0000
  O   O2        1.0  0.9909898577782227  0.3998309220389791  0.709346624498117  1.0000
  O   O3        1.0  0.9919896880068562  0.5876290057190403  0.49219261184231433  1.0000
  O   O4        1.0  0.9919217247195322  0.22356384589468442  0.5075186136644483  1.0000
  O   O5        1.0  0.8644382620709408  0.5822095903019304  0.4806340757886783  1.0000
  O   O6        1.0  0.8634384321934542  0.39441301087861236  0.6977880116139066  1.0000
  O   O7        1.0  0.8653701942591473  0.40594396132607535  0.27880436893525173  1.0000
  O   O8        1.0  0.8643703066817457  0.21814587521099327  0.49595837638643275  1.0000
