data_image0
_chemical_formula_structural       NC8NC6H8C12ClH9C13NH12Zn2C4O8
_chemical_formula_sum              "N3 C43 H29 Cl1 Zn2 O8"
_cell_length_a       17.457602349358154
_cell_length_b       10.299768534541528
_cell_length_c       10.299780419254978
_cell_angle_alpha    85.57457807328838
_cell_angle_beta     92.86230706440831
_cell_angle_gamma    91.7063886151948

_space_group_name_H-M_alt    "P 1"
_space_group_IT_number       1

loop_
  _space_group_symop_operation_xyz
  'x, y, z'

loop_
  _atom_site_type_symbol
  _atom_site_label
  _atom_site_symmetry_multiplicity
  _atom_site_fract_x
  _atom_site_fract_y
  _atom_site_fract_z
  _atom_site_occupancy
  N   N1        1.0  0.7228886716995244  0.45252781707826406  0.6266249310314742  1.0000
  C   C1        1.0  0.6618034793336599  0.40660064349058644  0.6160080825073448  1.0000
  C   C2        1.0  0.5858109167750544  0.3494729559340001  0.6028102646415314  1.0000
  C   C3        1.0  0.5272796525683884  0.38965059143000014  0.6777057210694892  1.0000
  C   C4        1.0  0.45272549050521776  0.3346412836237125  0.6651223870206053  1.0000
  C   C5        1.0  0.3906031501064392  0.3770630004890436  0.7444395113274022  1.0000
  C   C6        1.0  0.3160676253028  0.39551931736027784  0.6886793864380716  1.0000
  C   C7        1.0  0.2575363085781915  0.4355130518096557  0.7636827846946248  1.0000
  C   C8        1.0  0.18156304673517032  0.4545747424961353  0.7057073287435667  1.0000
  N   N2        1.0  0.12049345948965183  0.4698939621877096  0.6590952129711074  1.0000
  C   C9        1.0  0.27304833045662263  0.4572937182104128  0.8949548092952657  1.0000
  C   C10       1.0  0.3467991719782555  0.4392264684263994  0.9511025272807441  1.0000
  C   C11       1.0  0.4053188552720853  0.3994128851848424  0.8765568344152865  1.0000
  C   C12       1.0  0.43799130615848464  0.23877661835797537  0.5762107226186688  1.0000
  C   C13       1.0  0.496510850321206  0.19887774668354605  0.5017152599364356  1.0000
  C   C14       1.0  0.5702801927466191  0.2539995472275731  0.5148485209374918  1.0000
  H   H1        1.0  0.5396288354115995  0.46485869045760536  0.7443358673182205  1.0000
  H   H2        1.0  0.3037337532335644  0.3805272714904333  0.586659354991443  1.0000
  H   H3        1.0  0.22818516186408178  0.4881888884978769  0.9537888758413464  1.0000
  H   H4        1.0  0.3586196796474072  0.4557760839207948  0.05274937215774167  1.0000
  H   H5        1.0  0.4617953124908307  0.3844310635922752  0.9226604981453796  1.0000
  H   H6        1.0  0.3814995086338081  0.193439101091244  0.5655577800646399  1.0000
  H   H7        1.0  0.4846758531612812  0.12478584458766528  0.4338868909444223  1.0000
  H   H8        1.0  0.6151431702669417  0.22223479458622952  0.456525523264278  1.0000
  C   C15       1.0  0.921622372413613  0.07984247905946583  0.6428523408000629  1.0000
  C   C16       1.0  0.9266940692217789  0.08960052045948008  0.5068031961078163  1.0000
  C   C17       1.0  0.9293376937542343  0.9774088534101477  0.4378794242673183  1.0000
  C   C18       1.0  0.9268405964809636  0.8543192061637644  0.506830651532848  1.0000
  C   C19       1.0  0.9217670948448823  0.8425695568838178  0.6428795867871988  1.0000
  C   C20       1.0  0.9191869596984966  0.95588940981163  0.7101286026212161  1.0000
  C   C21       1.0  0.9347041462641905  0.9887857601038506  0.2939508540988154  1.0000
  C   C22       1.0  0.8910680931911499  0.08040403663290308  0.21592658273556434  1.0000
  C   C23       1.0  0.8961875072854142  0.0909194978101664  0.08047048896967723  1.0000
  C   C24       1.0  0.9448691182106105  0.010335229773655863  0.021340846757889942  1.0000
  C   C25       1.0  0.9884928062022563  0.91902833455952  0.09785294985832227  1.0000
  C   C26       1.0  0.9835096340158488  0.9081265758847693  0.23333481244145984  1.0000
  Cl  Cl1       1.0  0.951206700532137  0.0237707478065261  0.8513804054839205  1.0000
  H   H9        1.0  0.9196504417463202  0.4035762152227895  0.6946872944449738  1.0000
  H   H10       1.0  0.9296591966077521  0.18473112383914955  0.45431491785074885  1.0000
  H   H11       1.0  0.9278035875278194  0.7675161614536091  0.4539653228925682  1.0000
  H   H12       1.0  0.9152736020849789  0.9475933074088204  0.8150841915720992  1.0000
  H   H13       1.0  0.9198643995313704  0.5106399798490134  0.6947279951784342  1.0000
  H   H14       1.0  0.8522709052238155  0.14269541120172732  0.2594997693653543  1.0000
  H   H15       1.0  0.8621318396942859  0.16153397833463812  0.021579887366573347  1.0000
  H   H16       1.0  0.026434616491681995  0.8566526235733384  0.05252050046001577  1.0000
  H   H17       1.0  0.01853905089491704  0.8378476152644786  0.29081069118834835  1.0000
  C   C27       1.0  0.9217469552877039  0.4611234470513914  0.26151609531331266  1.0000
  C   C28       1.0  0.9773122739817499  0.562578597060797  0.2573942608745112  1.0000
  C   C29       1.0  0.005408523547992379  0.6140794262521869  0.13815694710007875  1.0000
  C   C30       1.0  0.9772069367981979  0.5627462273151826  0.02208548617139061  1.0000
  C   C31       1.0  0.9216425290560789  0.4612885977711694  0.02421584159929946  1.0000
  C   C32       1.0  0.8942215740505748  0.4110486754786428  0.14441075028568573  1.0000
  C   C33       1.0  0.06419444596231783  0.7214078011820384  0.13488818787361567  1.0000
  C   C34       1.0  0.059028002194640106  0.8257588325767997  0.03864209622588044  1.0000
  C   C35       1.0  0.11438350568298829  0.9266922813857456  0.03565316834622224  1.0000
  C   C36       1.0  0.1755389949728503  0.9256602981091159  0.12932181078305227  1.0000
  C   C37       1.0  0.1814408536768093  0.8210625525054284  0.2245711817060405  1.0000
  C   C38       1.0  0.12610120851622994  0.7201050975880119  0.22773417482120006  1.0000
  C   C39       1.0  0.23614221156981377  0.0325240474934305  0.12381763068182174  1.0000
  N   N3        1.0  0.29494942190283524  0.002440938461954367  0.03574156287677965  1.0000
  H   H18       1.0  0.9006051377860768  0.42241878356292495  0.5905460705366501  1.0000
  H   H19       1.0  0.9981163588796207  0.6029927431753752  0.34696390204287764  1.0000
  H   H20       1.0  0.9994546501324508  0.6008725791970666  0.9300955953218676  1.0000
  H   H21       1.0  0.8513557162263068  0.3327796116455115  0.14682201463440325  1.0000
  H   H22       1.0  0.011713508384709526  0.8300386399035762  0.9664765961817454  1.0000
  H   H23       1.0  0.10945724263026203  0.005876465089670968  0.9604132162726635  1.0000
  H   H24       1.0  0.22904035584891702  0.8174474465403703  0.2962334457246754  1.0000
  H   H25       1.0  0.13236442791118916  0.6399621595449205  0.30161740085050637  1.0000
  H   H26       1.0  0.20965100251549942  0.12639259695531901  0.0883756274444456  1.0000
  H   H27       1.0  0.2626019760863145  0.04498995812652628  0.22283537328769779  1.0000
  H   H28       1.0  0.3336791775435902  0.08182326071398727  0.02896648015404169  1.0000
  H   H29       1.0  0.3257134920362644  0.9234820113646494  0.07902474249215197  1.0000
  Zn  Zn1       1.0  0.8376288230642555  0.4575358303522301  0.6360026509724228  1.0000
  Zn  Zn2       1.0  0.005753290398710975  0.4648753034066462  0.6497281246462501  1.0000
  C   C40       1.0  0.9216595532847071  0.4560836602001804  0.880048961851223  1.0000
  C   C41       1.0  0.9217243963856591  0.4663291923511437  0.4056820911679191  1.0000
  C   C42       1.0  0.9217364925225489  0.6983966453465522  0.6376992371665977  1.0000
  C   C43       1.0  0.9216473994731654  0.22401464441422214  0.6480318803483469  1.0000
  O   O1        1.0  0.9855191835024777  0.4708559140669491  0.4592742618749464  1.0000
  O   O2        1.0  0.9854673466046814  0.4571264489062961  0.8368737342143467  1.0000
  O   O3        1.0  0.985528615741024  0.6527972116233267  0.6411745466979175  1.0000
  O   O4        1.0  0.9854578570117403  0.275185158114579  0.6549733473383234  1.0000
  O   O5        1.0  0.8579241990785981  0.6472259731411081  0.6307574235896886  1.0000
  O   O6        1.0  0.857862930244279  0.4515567707114374  0.8264565419196542  1.0000
  O   O7        1.0  0.8579147673983366  0.465286190280245  0.44885550826000187  1.0000
  O   O8        1.0  0.8578534408893657  0.2696154250600251  0.6445546910857696  1.0000
