data_image0
_chemical_formula_structural       NC8NH4C6NH7C6ClH3Zn2C4O8
_chemical_formula_sum              "N3 C24 H14 Cl1 Zn2 O8"
_cell_length_a       11.048855714531884
_cell_length_b       9.274771166103582
_cell_length_c       9.276548810779733
_cell_angle_alpha    85.98017888068892
_cell_angle_beta     89.72476913812324
_cell_angle_gamma    90.59705445283097

_space_group_name_H-M_alt    "P 1"
_space_group_IT_number       1

loop_
  _space_group_symop_operation_xyz
  'x, y, z'

loop_
  _atom_site_type_symbol
  _atom_site_label
  _atom_site_symmetry_multiplicity
  _atom_site_fract_x
  _atom_site_fract_y
  _atom_site_fract_z
  _atom_site_occupancy
  N   N1        1.0  0.15978422594911715  0.5641181052267541  0.4076938276844248  1.0000
  C   C1        1.0  0.10510132936002692  0.5053789692842295  0.3228395445523571  1.0000
  C   C2        1.0  0.03687392310664306  0.4320892713974642  0.21696534947010312  1.0000
  C   C3        1.0  0.9091571656490937  0.43208908170157123  0.2169654515083974  1.0000
  C   C4        1.0  0.8461751590573812  0.3596389471331105  0.11230437784494371  1.0000
  C   C5        1.0  0.9093908558046582  0.28776189285631637  0.008471092913825416  1.0000
  C   C6        1.0  0.03579706717032472  0.28776178290981963  0.008471115771796038  1.0000
  C   C7        1.0  0.09943269884549699  0.3596390453418481  0.1123043499578331  1.0000
  C   C8        1.0  0.8413579089898867  0.505379044117237  0.3228395312871488  1.0000
  N   N2        1.0  0.7870181123480805  0.5641181481722353  0.4076938563884595  1.0000
  H   H1        1.0  0.7481102708142409  0.35873169734455645  0.11099312791764081  1.0000
  H   H2        1.0  0.860330167520599  0.23201237679861264  0.9279361953527426  1.0000
  H   H3        1.0  0.08453220970825215  0.23201248624459406  0.9279361945441885  1.0000
  H   H4        1.0  0.19749228105982453  0.35873165079693536  0.11099340303744287  1.0000
  C   C9        1.0  0.46968812163393614  0.14052873037123614  0.40847924776677624  1.0000
  C   C10       1.0  0.44234682889926763  0.22266065251570955  0.2796216263600635  1.0000
  C   C11       1.0  0.4263088812372129  0.15642697122421523  0.14994645960679054  1.0000
  C   C12       1.0  0.43767938834557835  0.00667531682431743  0.14818966491910612  1.0000
  C   C13       1.0  0.4627896252292967  0.9232078003689125  0.2752771592905947  1.0000
  C   C14       1.0  0.4771257032538687  0.9876965375912016  0.40692094247313243  1.0000
  N   N3        1.0  0.39971678593367743  0.2416454573277367  0.01967261831191158  1.0000
  H   H5        1.0  0.6046510331644561  0.22306911038236346  0.7238334929933244  1.0000
  H   H6        1.0  0.4362465326640497  0.3392483054462996  0.27906811963232947  1.0000
  H   H7        1.0  0.425912635396754  0.9542768981730179  0.048417707083192804  1.0000
  H   H8        1.0  0.4681397308905294  0.8070060960463773  0.2711503700200677  1.0000
  H   H9        1.0  0.563114709822433  0.692589688588281  0.6214734857567941  1.0000
  H   H10       1.0  0.3913781514513384  0.35371893099730944  0.019625816497634615  1.0000
  H   H11       1.0  0.38805460850458073  0.19328588839214889  0.9222703631790372  1.0000
  C   C15       1.0  0.4750789057400369  0.5602481543711753  0.9845578349598764  1.0000
  C   C16       1.0  0.5770853160419007  0.6150808262395819  0.053563447490894575  1.0000
  C   C17       1.0  0.6723979706760314  0.680664470403912  0.9732103397799445  1.0000
  C   C18       1.0  0.667134824965462  0.6925193478239065  0.8227490069368577  1.0000
  C   C19       1.0  0.5677566697204968  0.636674859900665  0.7520961493734356  1.0000
  C   C20       1.0  0.4717348696926812  0.5679770176509988  0.8308423551294042  1.0000
  Cl  Cl1       1.0  0.7979567390667437  0.750119830454985  0.06158704940601844  1.0000
  H   H12       1.0  0.3268143224214049  0.39879493646351705  0.2778569588113178  1.0000
  H   H13       1.0  0.7406591815821528  0.7438334084011669  0.7601653635467586  1.0000
  H   H14       1.0  0.276854704747  0.5150929450551063  0.5543435289724163  1.0000
  Zn  Zn1       1.0  0.34079032409075993  0.5641143238413753  0.40770216121754643  1.0000
  Zn  Zn2       1.0  0.606011890868266  0.5641102062038039  0.40769733724958523  1.0000
  C   C21       1.0  0.47231383777004377  0.560769698649737  0.6708870050930811  1.0000
  C   C22       1.0  0.47449128882002245  0.5674566526696646  0.1445126314020131  1.0000
  C   C23       1.0  0.4757362866887195  0.8275113172301193  0.40147343525175766  1.0000
  C   C24       1.0  0.47106873388127896  0.3007133017520459  0.41392628125554853  1.0000
  O   O1        1.0  0.5749442263438087  0.5698680349438963  0.19819310319812852  1.0000
  O   O2        1.0  0.5731579247065528  0.558354099210209  0.617202459223237  1.0000
  O   O3        1.0  0.57592023275793  0.7737513433267007  0.39964909269641946  1.0000
  O   O4        1.0  0.5721818283077789  0.3544708001608221  0.41574636166698703  1.0000
  O   O5        1.0  0.3746202961441864  0.7737537298872634  0.39965313679420866  1.0000
  O   O6        1.0  0.371858003605817  0.5583582181109152  0.6172064233028776  1.0000
  O   O7        1.0  0.37364431172777757  0.5698720877565726  0.19819533494116826  1.0000
  O   O8        1.0  0.3708819131693395  0.3544748436429877  0.4157487014620498  1.0000
