data_image0
_chemical_formula_structural       NC9NC3NH7C12H9C8NH11Zn2C4O8
_chemical_formula_sum              "N4 C36 H27 Zn2 O8"
_cell_length_a       16.053384444249904
_cell_length_b       10.299137764757564
_cell_length_c       9.275652972338538
_cell_angle_alpha    85.91964994455579
_cell_angle_beta     90.23845156290304
_cell_angle_gamma    89.19348198390439

_space_group_name_H-M_alt    "P 1"
_space_group_IT_number       1

loop_
  _space_group_symop_operation_xyz
  'x, y, z'

loop_
  _atom_site_type_symbol
  _atom_site_label
  _atom_site_symmetry_multiplicity
  _atom_site_fract_x
  _atom_site_fract_y
  _atom_site_fract_z
  _atom_site_occupancy
  N   N1        1.0  0.7777623142618729  0.3946719906189686  0.4063157393299526  1.0000
  C   C1        1.0  0.7266426797011439  0.37336913762762536  0.3232566290610517  1.0000
  C   C2        1.0  0.6631151231597536  0.3469002423111162  0.2200769685133086  1.0000
  C   C3        1.0  0.6761005652636485  0.3339670661740579  0.07499174009452991  1.0000
  C   C4        1.0  0.5992196627349277  0.3082965864947429  0.017009712317618723  1.0000
  C   C5        1.0  0.5426132514979625  0.3069965219875246  0.12984750011140034  1.0000
  C   C6        1.0  0.45190662344223653  0.2831064979679834  0.11848481332374394  1.0000
  C   C7        1.0  0.3964714804342349  0.32643610823621877  0.22268760077709485  1.0000
  C   C8        1.0  0.3108710818331581  0.30377801776705016  0.21180420564000632  1.0000
  C   C9        1.0  0.2546676437755186  0.3488681127631441  0.3186386899833582  1.0000
  N   N2        1.0  0.2094966686692686  0.38511418088539284  0.40451688441512346  1.0000
  C   C10       1.0  0.2799798394541833  0.2376784147699389  0.09673328292388805  1.0000
  C   C11       1.0  0.3344074739423338  0.1944698106093885  0.9927653621804305  1.0000
  C   C12       1.0  0.4197999638213032  0.21695957109777406  0.0032086878073778187  1.0000
  N   N3        1.0  0.5823435647561511  0.3306995459257744  0.25364411164539746  1.0000
  H   H1        1.0  0.7345883223121366  0.34226530923960197  0.01770398544899666  1.0000
  H   H2        1.0  0.5864694429310795  0.29386083503407967  0.9047289317243621  1.0000
  H   H3        1.0  0.4191840895762036  0.3794201362503802  0.31122860225031346  1.0000
  H   H4        1.0  0.2139133072461556  0.21965534824308253  0.08738178339369607  1.0000
  H   H5        1.0  0.3104037388131758  0.143126128741057  0.9039641806741404  1.0000
  H   H6        1.0  0.4605593294389561  0.18103402209890815  0.9219309534762816  1.0000
  H   H7        1.0  0.5566266007298144  0.33367379332696023  0.3565889886985761  1.0000
  C   C13       1.0  0.9935539761170195  0.008495816070239528  0.40557374562536563  1.0000
  C   C14       1.0  0.9928518703365826  0.017456394108612994  0.2538063544524949  1.0000
  C   C15       1.0  0.9925775390046231  0.904865294148276  0.17669846691629076  1.0000
  C   C16       1.0  0.9930147533536842  0.7821952268387214  0.25340931685092905  1.0000
  C   C17       1.0  0.9937130050894772  0.7712802938887346  0.405271309030857  1.0000
  C   C18       1.0  0.9939797143635474  0.8849425723745145  0.4804185915045321  1.0000
  C   C19       1.0  0.9918337938705413  0.9153896358141  0.016143565582638308  1.0000
  C   C20       1.0  0.04173679849538736  0.8315063074528959  0.9383959471400904  1.0000
  C   C21       1.0  0.040933180742757314  0.8416654745452714  0.7872672591989437  1.0000
  C   C22       1.0  0.9904280554965439  0.9353204113165081  0.7121768262667049  1.0000
  C   C23       1.0  0.9406212143864684  0.01907614008083079  0.7880626697748447  1.0000
  C   C24       1.0  0.9412153700576186  0.009416512738342073  0.9391932044331979  1.0000
  H   H8        1.0  0.9936695286871086  0.11221433992633732  0.19520168654499392  1.0000
  H   H9        1.0  0.9916583458173558  0.695104105913671  0.19454015344179765  1.0000
  H   H10       1.0  0.9945189840502094  0.8773155939017141  0.5974802723879962  1.0000
  H   H11       1.0  0.9945012037144008  0.5433990912510266  0.6919050605555834  1.0000
  H   H12       1.0  0.08213568954019501  0.759283819279742  0.9944099811405791  1.0000
  H   H13       1.0  0.07967887812064678  0.7770473019905492  0.7283354028683307  1.0000
  H   H14       1.0  0.9898871378956704  0.9429910549011449  0.5951925380970406  1.0000
  H   H15       1.0  0.9013334003829861  0.09138206436340644  0.7297480984501332  1.0000
  H   H16       1.0  0.901337756335858  0.07425349405287429  0.9958352362353535  1.0000
  C   C25       1.0  0.991778387454552  0.3873977834412677  0.9821605132316771  1.0000
  C   C26       1.0  0.9377612278970912  0.4735508578594758  0.04849909651541397  1.0000
  C   C27       1.0  0.8903234272604756  0.5671371030049206  0.9659600944399945  1.0000
  C   C28       1.0  0.8957772323660834  0.5733439455176242  0.8151494907969186  1.0000
  C   C29       1.0  0.9479601625462718  0.4872892914610542  0.7474104497870768  1.0000
  C   C30       1.0  0.9954886263148535  0.3923783366357933  0.8286845150216977  1.0000
  C   C31       1.0  0.8318720909434082  0.657286144303364  0.03871220908624308  1.0000
  C   C32       1.0  0.7462026155932088  0.5957242255478725  0.059881625296134056  1.0000
  N   N4        1.0  0.6897189236857544  0.684745938330287  0.12829013593456162  1.0000
  H   H17       1.0  0.052800110546378676  0.1930803810368216  0.27858984539449483  1.0000
  H   H18       1.0  0.9337978201812966  0.4700251157932271  0.16534457081651624  1.0000
  H   H19       1.0  0.8588520522086803  0.6441185164781331  0.7496924656340894  1.0000
  H   H20       1.0  0.9494653792929934  0.49283399579672443  0.6303820976266064  1.0000
  H   H21       1.0  0.10970900722537658  0.2708934030967555  0.5577755307061583  1.0000
  H   H22       1.0  0.857966086039501  0.6795296886797871  0.14530875864252416  1.0000
  H   H23       1.0  0.8252222795821875  0.7512017449569401  0.9723933201062465  1.0000
  H   H24       1.0  0.7201526833690681  0.5745232463204164  0.9528673249201597  1.0000
  H   H25       1.0  0.7520639252702322  0.5025733062832793  0.12808667959725017  1.0000
  H   H26       1.0  0.6308694118645103  0.6424339701389039  0.1329554223388365  1.0000
  H   H27       1.0  0.7092278837234991  0.690814735547122  0.23532620621970746  1.0000
  Zn  Zn1       1.0  0.9023515564243485  0.3919103983324115  0.4058049459531326  1.0000
  Zn  Zn2       1.0  0.08490745247213227  0.3878652612946933  0.40503946220281906  1.0000
  C   C33       1.0  0.9947843526417165  0.38626287692296785  0.6686754188131817  1.0000
  C   C34       1.0  0.9924766507211806  0.3935143781049504  0.14216912180247526  1.0000
  C   C35       1.0  0.9936534892697416  0.6270640938877101  0.39958481935765405  1.0000
  C   C36       1.0  0.9936074518110495  0.15271160255421434  0.4112597989823765  1.0000
  O   O1        1.0  0.061990004222898694  0.39402638856336053  0.1955789776883399  1.0000
  O   O2        1.0  0.06382669816157316  0.382679718814634  0.6146841639486758  1.0000
  O   O3        1.0  0.06291258434148261  0.577129776372441  0.3973916044083256  1.0000
  O   O4        1.0  0.0629040552773017  0.19957634104095698  0.41287142941501154  1.0000
  O   O5        1.0  0.9243548913217782  0.5801993199679238  0.3979729789945801  1.0000
  O   O6        1.0  0.9252690051265735  0.38575082237788577  0.6152654610641963  1.0000
  O   O7        1.0  0.9234323036386908  0.3970974366703856  0.1961585419021881  1.0000
  O   O8        1.0  0.9243463551613803  0.2026473804943545  0.4134511016961786  1.0000
