data_image0
_chemical_formula_structural       NC9NC3NH7C6NO2H5C7F3H4Zn2C4O8
_chemical_formula_sum              "N4 C29 H16 O10 F3 Zn2"
_cell_length_a       16.053384444249904
_cell_length_b       9.273392599741053
_cell_length_c       9.272721663655245
_cell_angle_alpha    86.00529282621046
_cell_angle_beta     90.31938989593549
_cell_angle_gamma    88.5803697124526

_space_group_name_H-M_alt    "P 1"
_space_group_IT_number       1

loop_
  _space_group_symop_operation_xyz
  'x, y, z'

loop_
  _atom_site_type_symbol
  _atom_site_label
  _atom_site_symmetry_multiplicity
  _atom_site_fract_x
  _atom_site_fract_y
  _atom_site_fract_z
  _atom_site_occupancy
  N   N1        1.0  0.7668744349927029  0.550790220003786  0.40960672371939766  1.0000
  C   C1        1.0  0.7158316699580924  0.527224638742722  0.32645421411484954  1.0000
  C   C2        1.0  0.6523996422155145  0.49794426827874405  0.22315851315676882  1.0000
  C   C3        1.0  0.6653529268338567  0.483744797707101  0.07797856698529436  1.0000
  C   C4        1.0  0.5885997173113575  0.4552998856111625  0.01990090005681267  1.0000
  C   C5        1.0  0.5320961819196189  0.453727917282106  0.13278033791035693  1.0000
  C   C6        1.0  0.4415438628901592  0.42720754508336034  0.12134575212722587  1.0000
  C   C7        1.0  0.3858984593552847  0.47521297529612183  0.22571251408742743  1.0000
  C   C8        1.0  0.3004443237404502  0.4500602964821485  0.2147608847323612  1.0000
  C   C9        1.0  0.2440207481639513  0.5000180084944945  0.3217653625039847  1.0000
  N   N2        1.0  0.1986728122158302  0.5401769550886735  0.40778020698369116  1.0000
  C   C10       1.0  0.2699103846953113  0.37677788676896007  0.09945744401449529  1.0000
  C   C11       1.0  0.3245476457692364  0.32890658448636967  0.9953259841490358  1.0000
  C   C12       1.0  0.409794660139155  0.3538728083701972  0.005836892815994423  1.0000
  N   N3        1.0  0.5717670953982514  0.47991299578515023  0.2566934735702988  1.0000
  H   H1        1.0  0.7237360923509104  0.49302619335493847  0.020691195454790805  1.0000
  H   H2        1.0  0.5758549578012945  0.43939436110554375  0.9075343404856264  1.0000
  H   H3        1.0  0.4083215828529145  0.5339587837880474  0.3144384121877082  1.0000
  H   H4        1.0  0.203959617075854  0.3567713223906195  0.0900513896294497  1.0000
  H   H5        1.0  0.3008219347091458  0.27198290886872356  0.906344424971908  1.0000
  H   H6        1.0  0.4507326203233615  0.3140646226737156  0.9244252593379633  1.0000
  H   H7        1.0  0.5461154677743715  0.48309948614068227  0.3596880752775541  1.0000
  C   C13       1.0  0.9853127972078151  0.12188752048245588  0.4077759648272103  1.0000
  C   C14       1.0  0.9740211370896814  0.20477187355649384  0.27610371131842215  1.0000
  C   C15       1.0  0.9554013603666347  0.1394210284325301  0.14924199655839177  1.0000
  C   C16       1.0  0.9474602688297192  0.989207129440563  0.1505142868661309  1.0000
  C   C17       1.0  0.960046383798695  0.9051169456615488  0.28117554849695003  1.0000
  C   C18       1.0  0.9802425368169614  0.9690684338381934  0.4096233254396483  1.0000
  N   N4        1.0  0.9275221255226413  0.9224475233452529  0.01943000305149623  1.0000
  O   O1        1.0  0.9159274407544159  0.00511184635046314  0.8914636168972211  1.0000
  O   O2        1.0  0.920186243136756  0.7886958746634639  0.019691235897970394  1.0000
  H   H8        1.0  0.9701759832566372  0.20072716755282108  0.7617439189310511  1.0000
  H   H9        1.0  0.9776414553342186  0.32150134192028823  0.2718281507671432  1.0000
  H   H10       1.0  0.9463752859051573  0.20700360751225722  0.05017583511415879  1.0000
  H   H11       1.0  0.956027306859847  0.7886193457817567  0.28221896892125575  1.0000
  H   H12       1.0  0.9728942891420929  0.6725072278043402  0.648837089180359  1.0000
  C   C19       1.0  0.9805871667818296  0.5431925611043824  0.985260658722518  1.0000
  C   C20       1.0  0.016754086932377454  0.42433410438647345  0.06757570888003127  1.0000
  C   C21       1.0  0.06017234286518125  0.3138763569976466  0.001251235169303918  1.0000
  C   C22       1.0  0.0648824883923005  0.32040209439186235  0.85009580877217  1.0000
  C   C23       1.0  0.02823974760913095  0.4362694119165376  0.7668079963773824  1.0000
  C   C24       1.0  0.9849681845045327  0.5477634484336625  0.8321386400203121  1.0000
  C   C25       1.0  0.09659348195757023  0.18547320020142077  0.09116966537905902  1.0000
  F   F1        1.0  0.12440191631586163  0.22670754100773238  0.2233753431462009  1.0000
  F   F2        1.0  0.16336545424586224  0.1241755725450444  0.021638702020327697  1.0000
  F   F3        1.0  0.03604500103674191  0.08314653846632614  0.1142377103645682  1.0000
  H   H13       1.0  0.012624471355743962  0.4193116530505514  0.1844277655739568  1.0000
  H   H14       1.0  0.09618554662221057  0.23490866131337193  0.7958729004549279  1.0000
  H   H15       1.0  0.031807299716281934  0.4366430049074026  0.6501392822881604  1.0000
  H   H16       1.0  0.8339925500628664  0.7947357371855077  0.7120108124074762  1.0000
  Zn  Zn1       1.0  0.8914821830924669  0.5477236588842409  0.40908794145369476  1.0000
  Zn  Zn2       1.0  0.07406517195577278  0.5432318278997655  0.4083107487642238  1.0000
  C   C26       1.0  0.9841725948904932  0.5411529465099083  0.6720480621777692  1.0000
  C   C27       1.0  0.9813767437976602  0.5498043120431764  0.14535076504980804  1.0000
  C   C28       1.0  0.9811669085981256  0.8089023271933713  0.40352811567879865  1.0000
  C   C29       1.0  0.984382378557078  0.28205320024018393  0.4138707849113721  1.0000
  O   O3        1.0  0.05093106345466159  0.5503123565270146  0.1987835128762434  1.0000
  O   O4        1.0  0.05319454346341046  0.5372346158000438  0.6180250256238222  1.0000
  O   O5        1.0  0.05076648747371393  0.7534456579266355  0.40119327624940526  1.0000
  O   O6        1.0  0.053359056520096315  0.3341013256685248  0.4156151544219706  1.0000
  O   O7        1.0  0.9121882362214814  0.7568541626498516  0.40178353605358486  1.0000
  O   O8        1.0  0.914616281437466  0.5406448531771599  0.6186152123230455  1.0000
  O   O9        1.0  0.91235279281663  0.5537225342788117  0.19937196582157268  1.0000
  O   O10       1.0  0.9147807864996645  0.33751149368659084  0.4162037154536263  1.0000
