data_image0
_chemical_formula_structural       NC8NH4C12H8C6NH5Zn2C4O8
_chemical_formula_sum              "N3 C30 H17 Zn2 O8"
_cell_length_a       14.927258825633057
_cell_length_b       14.994056859933256
_cell_length_c       9.274774538082514
_cell_angle_alpha    85.07848573505835
_cell_angle_beta     90.34966621466518
_cell_angle_gamma    89.97996473582496

_space_group_name_H-M_alt    "P 1"
_space_group_IT_number       1

loop_
  _space_group_symop_operation_xyz
  'x, y, z'

loop_
  _atom_site_type_symbol
  _atom_site_label
  _atom_site_symmetry_multiplicity
  _atom_site_fract_x
  _atom_site_fract_y
  _atom_site_fract_z
  _atom_site_occupancy
  N   N1        1.0  0.8371878061768575  0.9848557608887037  0.40847726256774397  1.0000
  C   C1        1.0  0.7596613818716913  0.9848557444741626  0.40847727222487706  1.0000
  C   C2        1.0  0.6632287403352125  0.9848557439980274  0.4084773273752303  1.0000
  C   C3        1.0  0.6158546543009265  0.9307094960275347  0.3186024316044367  1.0000
  C   C4        1.0  0.5221433426562969  0.9307094406126618  0.3186024030801842  1.0000
  C   C5        1.0  0.4754127425814054  0.9848557772829325  0.4084772394616698  1.0000
  C   C6        1.0  0.522786828206658  0.03900203221645615  0.4983520270302313  1.0000
  C   C7        1.0  0.6164982068428468  0.039002087629462556  0.49835205556041484  1.0000
  C   C8        1.0  0.3789801006502747  0.9848557171930439  0.40847718442868497  1.0000
  N   N2        1.0  0.3014536763307269  0.9848557673552873  0.40847719606692356  1.0000
  H   H1        1.0  0.6513004295726816  0.8885805377555174  0.2486747375253302  1.0000
  H   H2        1.0  0.4861967740642962  0.8885805225870285  0.24867483487139563  1.0000
  H   H3        1.0  0.48734105293490293  0.08113099048847325  0.568279721109338  1.0000
  H   H4        1.0  0.6524447088523218  0.0811309986939315  0.5682797319655047  1.0000
  C   C9        1.0  0.0694088966873061  0.7228923040947374  0.40837399748991954  1.0000
  C   C10       1.0  0.11055733539722357  0.681209986615297  0.2959136449209083  1.0000
  C   C11       1.0  0.1105488131714385  0.5879848480155102  0.29599420557196976  1.0000
  C   C12       1.0  0.06934009310018907  0.5343918217707074  0.4084343205315687  1.0000
  C   C13       1.0  0.028176653980956482  0.5761777833092014  0.5208161235950396  1.0000
  C   C14       1.0  0.028249796731562922  0.6694030519520408  0.5207998593582395  1.0000
  C   C15       1.0  0.06929215501977336  0.4353146778395695  0.40849685067847996  1.0000
  C   C16       1.0  0.9925412516712067  0.38549310933257414  0.45010074090995444  1.0000
  C   C17       1.0  0.9924906099129104  0.29227243617152865  0.4500974133945406  1.0000
  C   C18       1.0  0.06924123949962138  0.24681228971836172  0.4085930021173778  1.0000
  C   C19       1.0  0.14597316704256702  0.29652682885724996  0.36706430533771234  1.0000
  C   C20       1.0  0.14599831743913017  0.3897571889180264  0.36695235441290497  1.0000
  H   H5        1.0  0.1426252264520893  0.7206225107321504  0.20749739109659096  1.0000
  H   H6        1.0  0.14179227120852556  0.5578678588156059  0.2069218071530448  1.0000
  H   H7        1.0  0.99690143576095  0.5366946021920291  0.6099289358613122  1.0000
  H   H8        1.0  0.9962098584029861  0.6994915962183734  0.609187818951654  1.0000
  H   H9        1.0  0.9320328696541434  0.41871548866645836  0.480847396360095  1.0000
  H   H10       1.0  0.9322082248459407  0.25585381556822956  0.48228177193627575  1.0000
  H   H11       1.0  0.20623246080123714  0.26344379995787576  0.33491830624262264  1.0000
  H   H12       1.0  0.2065377840114342  0.4261350108255327  0.3361637682437486  1.0000
  C   C21       1.0  0.06771661499661127  0.9871338957366129  0.9846681244151365  1.0000
  C   C22       1.0  0.13117725821512827  0.039776885391409805  0.05142662942253075  1.0000
  C   C23       1.0  0.19865926169729464  0.08507148996338781  0.9706806365022583  1.0000
  C   C24       1.0  0.20322721767234306  0.07792853224440499  0.8217002354582217  1.0000
  C   C25       1.0  0.1400533578813874  0.027250692712364584  0.7532399891993702  1.0000
  C   C26       1.0  0.0709334997621318  0.9825706469843639  0.8322988432654485  1.0000
  N   N3        1.0  0.2631483751305559  0.13759037259711826  0.04044433468427511  1.0000
  H   H13       1.0  0.9338662723135922  0.8127490555605742  0.11051556766482995  1.0000
  H   H14       1.0  0.2553285553695921  0.11239470524940764  0.7581838646425276  1.0000
  H   H15       1.0  0.9780284268426312  0.8678320573126808  0.5661691159578974  1.0000
  H   H16       1.0  0.26054516260508276  0.14318453869892234  0.15181659591104357  1.0000
  H   H17       1.0  0.31395691501767353  0.17135503475295688  0.9812163554437725  1.0000
  Zn  Zn1       1.0  0.9711649486553681  0.984853322725287  0.4084855852120425  1.0000
  Zn  Zn2       1.0  0.16747659426689698  0.9848508182980078  0.4084807215074221  1.0000
  C   C27       1.0  0.07032458363651542  0.9798794031967019  0.6720770040266361  1.0000
  C   C28       1.0  0.06831910318019531  0.9898258626091714  0.14488944476365243  1.0000
  C   C29       1.0  0.06924648170483304  0.14781119933357534  0.40280041244349074  1.0000
  C   C30       1.0  0.06939713875945364  0.8218929942825756  0.41416611284540705  1.0000
  O   O1        1.0  0.14302055138673975  0.9907244690517989  0.19865933613528775  1.0000
  O   O2        1.0  0.1446191307454976  0.9789782252141107  0.6183030054792757  1.0000
  O   O3        1.0  0.14374755121104  0.1145852663159632  0.4008602530118881  1.0000
  O   O4        1.0  0.1438920635206049  0.8551174349148433  0.4161019803945123  1.0000
  O   O5        1.0  0.9947494124101012  0.11458670611031829  0.4008643263190208  1.0000
  O   O6        1.0  0.9956209913054231  0.9789807372000536  0.6183070022818682  1.0000
  O   O7        1.0  0.9940224054308936  0.9907269592926661  0.19866159773995223  1.0000
  O   O8        1.0  0.9948939179737918  0.8551199181926799  0.41610435020140923  1.0000
