data_image0
_chemical_formula_structural       NC5NC4H6C6NH7C9H9Zn2C4O8
_chemical_formula_sum              "N3 C28 H22 Zn2 O8"
_cell_length_a       13.854160002989762
_cell_length_b       9.274771166103582
_cell_length_c       9.273585224739811
_cell_angle_alpha    86.03363261937257
_cell_angle_beta     90.10207527117831
_cell_angle_gamma    90.59704847255895

_space_group_name_H-M_alt    "P 1"
_space_group_IT_number       1

loop_
  _space_group_symop_operation_xyz
  'x, y, z'

loop_
  _atom_site_type_symbol
  _atom_site_label
  _atom_site_symmetry_multiplicity
  _atom_site_fract_x
  _atom_site_fract_y
  _atom_site_fract_z
  _atom_site_occupancy
  N   N1        1.0  0.9179095099150566  0.5625174865500694  0.4073123342231124  1.0000
  C   C1        1.0  0.8456781062458367  0.5871355446408446  0.3482312501784717  1.0000
  C   C2        1.0  0.7558212237641082  0.6177610699439614  0.2747321199453161  1.0000
  C   C3        1.0  0.6681349499303476  0.5889993678743681  0.34649540235762527  1.0000
  C   C4        1.0  0.5806788114635386  0.6177610840411094  0.27473209675101984  1.0000
  C   C5        1.0  0.4905699639696223  0.5871353982242165  0.3482313420516312  1.0000
  N   N2        1.0  0.4181359388742328  0.5625174230412635  0.40731233425232105  1.0000
  C   C6        1.0  0.58094583472777  0.6758911893678192  0.1312233934905529  1.0000
  C   C7        1.0  0.6686142422152578  0.7068023402751058  0.05935276852843142  1.0000
  C   C8        1.0  0.6688357896343775  0.7650572298895585  0.9043568264233534  1.0000
  C   C9        1.0  0.7560229236401768  0.6758911871276596  0.13122330323202824  1.0000
  H   H1        1.0  0.6679528076855261  0.5438964838790639  0.45756870653602283  1.0000
  H   H2        1.0  0.5131545429417349  0.6971176456398182  0.07554471953393138  1.0000
  H   H3        1.0  0.7341354341578725  0.832988677075269  0.8804503840416431  1.0000
  H   H4        1.0  0.6044269565944889  0.8329886796118224  0.8804504491105929  1.0000
  H   H5        1.0  0.6681140577753543  0.673792284753273  0.8329815236535714  1.0000
  H   H6        1.0  0.8239775027004111  0.6971177572774176  0.07554463391871136  1.0000
  C   C10       1.0  0.1650649837493038  0.13892886217361866  0.40809794876293415  1.0000
  C   C11       1.0  0.1426909100529505  0.22093126924608164  0.2792094524869906  1.0000
  C   C12       1.0  0.12932777661631076  0.15456724972282526  0.14950321520914556  1.0000
  C   C13       1.0  0.1383881314055981  0.004813828088139787  0.14774599982311898  1.0000
  C   C14       1.0  0.15897509442526447  0.9214740477795791  0.27486394489584565  1.0000
  C   C15       1.0  0.17098966074457617  0.9860951021607602  0.4065392702494737  1.0000
  N   N3        1.0  0.10754494227299233  0.23965479717668914  0.019198159733581743  1.0000
  H   H7        1.0  0.27409218604971275  0.2217861968567909  0.7235277556707049  1.0000
  H   H8        1.0  0.13782340754999645  0.33751836659819257  0.27865581301548237  1.0000
  H   H9        1.0  0.12856338686919888  0.9523151272453455  0.047950136364856455  1.0000
  H   H10       1.0  0.16322364163338893  0.8052681948294214  0.27073616695390634  1.0000
  H   H11       1.0  0.2405144291164223  0.6912038952915673  0.6211432221122266  1.0000
  H   H12       1.0  0.10089457641566674  0.35172822485296235  0.019151346536854016  1.0000
  H   H13       1.0  0.09781406320661579  0.19119732789295887  0.9217725667617916  1.0000
  C   C16       1.0  0.1674920434454299  0.5582221898625497  0.9840749643961911  1.0000
  C   C17       1.0  0.253407000673443  0.5260955252159045  0.06009085675122195  1.0000
  C   C18       1.0  0.3407190488704738  0.5069515633105979  0.9878657152244377  1.0000
  C   C19       1.0  0.3413368756610127  0.5207452630026499  0.8357811103353332  1.0000
  C   C20       1.0  0.25643448794508683  0.5501598650553479  0.7587664886317889  1.0000
  C   C21       1.0  0.16856259075011928  0.5668017299230512  0.8305622195657745  1.0000
  C   C22       1.0  0.42995222420084955  0.4738722663455251  0.07944179332637313  1.0000
  C   C23       1.0  0.5047358980698116  0.3749008249379391  0.01938595738927029  1.0000
  C   C24       1.0  0.5258756754534235  0.5361843241680608  0.02299309472894561  1.0000
  H   H14       1.0  0.008040032612794292  0.5393846548760837  0.26539382784100485  1.0000
  H   H15       1.0  0.2528985546339706  0.5191341984894224  0.17727317361867612  1.0000
  H   H16       1.0  0.4067119195040698  0.507711925100381  0.7748707702845719  1.0000
  H   H17       1.0  0.025697747553331526  0.6692932408840919  0.5417035114075541  1.0000
  H   H18       1.0  0.4235431540752779  0.46456934255399057  0.19922075823541907  1.0000
  H   H19       1.0  0.49149377231354885  0.33778238447987985  0.9098764146439517  1.0000
  H   H20       1.0  0.5443227840823099  0.3073645937730831  0.10303151680293232  1.0000
  H   H21       1.0  0.5254292917947125  0.5968592190054793  0.9156623089300338  1.0000
  H   H22       1.0  0.5778090184714926  0.562937336567511  0.10875136760854831  1.0000
  Zn  Zn1       1.0  0.062264040909630884  0.5625136907800992  0.40732067341545175  1.0000
  Zn  Zn2       1.0  0.27378134147430844  0.5625095349431601  0.4073158536581949  1.0000
  C   C25       1.0  0.1683178884415597  0.5594335837237214  0.6705685791019411  1.0000
  C   C26       1.0  0.16772981661198158  0.5655914634121304  0.14406808603279808  1.0000
  C   C27       1.0  0.16985752697965317  0.8259044065278385  0.4010904577759902  1.0000
  C   C28       1.0  0.16619009387499206  0.29911890835121224  0.41354628739013055  1.0000
  O   O1        1.0  0.2480792846814419  0.56805678884451  0.1977614217149959  1.0000
  O   O2        1.0  0.24850514918857536  0.5569640117187  0.6168711724429363  1.0000
  O   O3        1.0  0.24974734660067455  0.7721425863273532  0.39926568013488706  1.0000
  O   O4        1.0  0.24683701502830957  0.3528782234606725  0.4153668059391935  1.0000
  O   O5        1.0  0.0892082951751576  0.772145002265499  0.3992697211285141  1.0000
  O   O6        1.0  0.08796610978148234  0.5569681599165579  0.6168751333992422  1.0000
  O   O7        1.0  0.08754024279550032  0.5680608692131155  0.19776364991963247  1.0000
  O   O8        1.0  0.08629797320292851  0.35288229460737375  0.4153691422217429  1.0000
