data_image0
_chemical_formula_structural       NC8NH4C6ClH5C10H5Zn2C4O8
_chemical_formula_sum              "N2 C28 H14 Cl1 Zn2 O8"
_cell_length_a       11.048855714531884
_cell_length_b       9.276545438789551
_cell_length_c       9.275153671780862
_cell_angle_alpha    85.73418776908572
_cell_angle_beta     89.40940558656271
_cell_angle_gamma    89.40961225544244

_space_group_name_H-M_alt    "P 1"
_space_group_IT_number       1

loop_
  _space_group_symop_operation_xyz
  'x, y, z'

loop_
  _atom_site_type_symbol
  _atom_site_label
  _atom_site_symmetry_multiplicity
  _atom_site_fract_x
  _atom_site_fract_y
  _atom_site_fract_z
  _atom_site_occupancy
  N   N1        1.0  0.13981816345782216  0.5739905171115398  0.4104249524717434  1.0000
  C   C1        1.0  0.08654594274422187  0.51583074810572  0.3253728423075921  1.0000
  C   C2        1.0  0.02007865895199301  0.44326393656697216  0.21925181532395177  1.0000
  C   C3        1.0  0.8923619043320203  0.4432637462719706  0.21925191697103744  1.0000
  C   C4        1.0  0.831119855960019  0.3715282151931778  0.1143468391566913  1.0000
  C   C5        1.0  0.8960617482293805  0.3003601124203803  0.010271480093932969  1.0000
  C   C6        1.0  0.022467961405451934  0.30036000236496063  0.010271502701266975  1.0000
  C   C7        1.0  0.08437739416513224  0.3715283135482716  0.1143468114885402  1.0000
  C   C8        1.0  0.8228025211313891  0.5158308229978056  0.32537282921448485  1.0000
  N   N2        1.0  0.7670520489777044  0.5739905598523853  0.41042498129846106  1.0000
  H   H1        1.0  0.7330767591071173  0.37062991817293844  0.11303253328840923  1.0000
  H   H2        1.0  0.8483399345568443  0.24516047161077506  0.9295488246074869  1.0000
  H   H3        1.0  0.07254197484207282  0.24516058102104044  0.9295488240628803  1.0000
  H   H4        1.0  0.1824587689064454  0.37062986983569823  0.11303280847690966  1.0000
  C   C9        1.0  0.4570957312602271  0.15055477007559515  0.41018726936324756  1.0000
  C   C10       1.0  0.4586967987915843  0.2338656385184614  0.27709850995295593  1.0000
  C   C11       1.0  0.4492618317731908  0.1684530600281564  0.14690645060462537  1.0000
  C   C12       1.0  0.43799310460458885  0.018864204538116203  0.14780017777609133  1.0000
  C   C13       1.0  0.4382802927207208  0.934008669084425  0.2784460914106792  1.0000
  C   C14       1.0  0.44978611366894383  0.997415246179446  0.4106751347409108  1.0000
  Cl  Cl1       1.0  0.4497377763805479  0.2746531844790867  0.982290646026621  1.0000
  H   H5        1.0  0.5170485754174301  0.414093955204455  0.6368851073245112  1.0000
  H   H6        1.0  0.4643924429523504  0.3505788982089557  0.27424370507079887  1.0000
  H   H7        1.0  0.4301643454505482  0.9678848321428495  0.04707582667454014  1.0000
  H   H8        1.0  0.4323860393696063  0.8177414178876368  0.2757946374290634  1.0000
  H   H9        1.0  0.4072116235295493  0.6992763844600404  0.6438369112947593  1.0000
  C   C15       1.0  0.4571134112768297  0.5729012990890306  0.987000947638919  1.0000
  C   C16       1.0  0.487835419977277  0.700334632287152  0.050818064499556385  1.0000
  C   C17       1.0  0.5072375677487309  0.8291251986012954  0.9658998649710924  1.0000
  C   C18       1.0  0.4960298149486742  0.832086549360505  0.8159610507325681  1.0000
  C   C19       1.0  0.4676326667338446  0.7062615317529426  0.7505264576293769  1.0000
  C   C20       1.0  0.44976843818366896  0.5750686550479902  0.8338614728351845  1.0000
  C   C21       1.0  0.5372989876899773  0.9589305414777023  0.03308370955599015  1.0000
  C   C22       1.0  0.5624693636045759  0.06760571763025647  0.08935800342551148  1.0000
  C   C23       1.0  0.5919426179536846  0.19485956264506576  0.15526078071841098  1.0000
  C   C24       1.0  0.6171081279824792  0.30351396066984065  0.211532411509189  1.0000
  H   H10       1.0  0.49393982704810063  0.7004076378835795  0.16743349910883243  1.0000
  H   H11       1.0  0.5104304634446271  0.9314998353222774  0.7493116468926431  1.0000
  H   H12       1.0  0.46244717797564183  0.7107762653336351  0.6336973814537217  1.0000
  H   H13       1.0  0.4680004565243772  0.2204506682015257  0.7571583666207315  1.0000
  H   H14       1.0  0.6392055018664723  0.39892143074942865  0.2609438261629087  1.0000
  Zn  Zn1       1.0  0.32082428938315877  0.5739866824065449  0.41043328235512555  1.0000
  Zn  Zn2       1.0  0.5860459499128297  0.5739825979977569  0.410428445259861  1.0000
  C   C25       1.0  0.451203648578499  0.5689146352133285  0.6737833666858584  1.0000
  C   C26       1.0  0.45566946999849434  0.579056464875864  0.14707850344917128  1.0000
  C   C27       1.0  0.45121136959485686  0.837325850923673  0.4048369636294269  1.0000
  C   C28       1.0  0.45566167276701797  0.31064351695212217  0.4160249823842468  1.0000
  O   O1        1.0  0.5558351623695894  0.5811143540299777  0.20080015422928477  1.0000
  O   O2        1.0  0.5523350727272254  0.5668525572344842  0.62005762895805  1.0000
  O   O3        1.0  0.5523399377283434  0.7835980123018149  0.40288150653801313  1.0000
  O   O4        1.0  0.5558302077149491  0.3643689090023223  0.41797616854275454  1.0000
  O   O5        1.0  0.35103994107395586  0.7836003714049229  0.4028855590662994  1.0000
  O   O6        1.0  0.35103506178087174  0.5668566485539337  0.6200616056017587  1.0000
  O   O7        1.0  0.3545351669734085  0.5811183906646697  0.20080239723584192  1.0000
  O   O8        1.0  0.35453021146520647  0.36437293560028317  0.4179785196499459  1.0000
