data_image0
_chemical_formula_structural       NC11NC3H8C7OC3FC3H8C6NCOC6H11Zn2C4O8
_chemical_formula_sum              "N3 C44 H27 O10 F1 Zn2"
_cell_length_a       17.807433833752565
_cell_length_b       10.29937835083307
_cell_length_c       10.299662537453274
_cell_angle_alpha    85.53091033731847
_cell_angle_beta     88.51134067563713
_cell_angle_gamma    90.70491928007121

_space_group_name_H-M_alt    "P 1"
_space_group_IT_number       1

loop_
  _space_group_symop_operation_xyz
  'x, y, z'

loop_
  _atom_site_type_symbol
  _atom_site_label
  _atom_site_symmetry_multiplicity
  _atom_site_fract_x
  _atom_site_fract_y
  _atom_site_fract_z
  _atom_site_occupancy
  N   N1        1.0  0.707908657463414  0.4390889400629965  0.534413443975015  1.0000
  C   C1        1.0  0.6570730276412203  0.4043357619257462  0.600982180498826  1.0000
  C   C2        1.0  0.5938283802531527  0.3611056741006986  0.6837851938658426  1.0000
  C   C3        1.0  0.605525815216516  0.2975067119766195  0.8065153177778543  1.0000
  C   C4        1.0  0.5441892167883057  0.25595732859514  0.8870341101845665  1.0000
  C   C5        1.0  0.4710006846248652  0.2776933850596017  0.8454636326819532  1.0000
  C   C6        1.0  0.45832655025892405  0.34144707769221383  0.7222732803050025  1.0000
  C   C7        1.0  0.3805704488535697  0.36451435314488356  0.6779219034067632  1.0000
  C   C8        1.0  0.3618007700814744  0.34768984255951146  0.548341706636214  1.0000
  C   C9        1.0  0.28858229326542917  0.36938718580136776  0.5067271625830869  1.0000
  C   C10       1.0  0.23319059783762286  0.4082278881026297  0.5938724788607861  1.0000
  C   C11       1.0  0.1578357193850723  0.4305842348173868  0.5508965177303782  1.0000
  N   N2        1.0  0.0972557697863231  0.44855707670707634  0.5163469727684984  1.0000
  C   C12       1.0  0.2512688282533487  0.425263183659696  0.7229215005665046  1.0000
  C   C13       1.0  0.3244345017727623  0.40353081334257257  0.7647914837684073  1.0000
  C   C14       1.0  0.5205204574179438  0.3829918898005142  0.6417709047040163  1.0000
  H   H1        1.0  0.6619835022319326  0.28007898857272284  0.8398840571432427  1.0000
  H   H2        1.0  0.5533643031433553  0.20646744180492682  0.9817793357055263  1.0000
  H   H3        1.0  0.4243457132983577  0.2431121099627709  0.9089090032950369  1.0000
  H   H4        1.0  0.40348177451284145  0.3160723395192198  0.4796286642662524  1.0000
  H   H5        1.0  0.2751513637167615  0.3555432719509961  0.4066928966618246  1.0000
  H   H6        1.0  0.20887085522988888  0.4556577997907252  0.7911199473632646  1.0000
  H   H7        1.0  0.3373373447275572  0.41892027134344717  0.8646427617543776  1.0000
  H   H8        1.0  0.5120441002802125  0.43384410022013253  0.5472597964668566  1.0000
  C   C15       1.0  0.9025066101101388  0.06243617458907869  0.5254477094513712  1.0000
  C   C16       1.0  0.8241246071311762  0.06054386066360241  0.5130597169336595  1.0000
  C   C17       1.0  0.7844953035752276  0.9422987288059473  0.5082933696029426  1.0000
  C   C18       1.0  0.8243083056455498  0.8253043222961877  0.513058068314471  1.0000
  C   C19       1.0  0.9026649777478946  0.8252000435308974  0.5253235650195835  1.0000
  C   C20       1.0  0.941287525787317  0.9442743203297935  0.5317904308727943  1.0000
  C   C21       1.0  0.7018223374716999  0.9402657384018543  0.49383496392835813  1.0000
  O   O1        1.0  0.6728132527188804  0.8548953721850376  0.42851881354989924  1.0000
  C   C22       1.0  0.6520584469976393  0.03498121441528014  0.553484088045036  1.0000
  C   C23       1.0  0.5851448944238883  0.07337654265855154  0.4928069903004244  1.0000
  C   C24       1.0  0.5374143930071507  0.16145203308210385  0.5490836813778861  1.0000
  F   F1        1.0  0.4733214164754541  0.19860762023920334  0.489337082822136  1.0000
  C   C25       1.0  0.5556836510453248  0.21114770562342877  0.6668432155629542  1.0000
  C   C26       1.0  0.6215184965272849  0.17247333283525393  0.728784952953929  1.0000
  C   C27       1.0  0.6694042854252366  0.08447307182578466  0.6729057758464492  1.0000
  H   H9        1.0  0.79389764424521  0.15132360753137153  0.5056490136743785  1.0000
  H   H10       1.0  0.7938953808915221  0.73409846895947  0.5084168702715062  1.0000
  H   H11       1.0  0.0017142253000201864  0.9449291506967226  0.5413399103899632  1.0000
  H   H12       1.0  0.9328368877655905  0.4977902977768944  0.5289360352241828  1.0000
  H   H13       1.0  0.5701891269039783  0.03604624694988389  0.40134089451541427  1.0000
  H   H14       1.0  0.5187143965916511  0.2792206855751156  0.7104384181595387  1.0000
  H   H15       1.0  0.6353127837456858  0.21026246516065658  0.8205185180750937  1.0000
  H   H16       1.0  0.7194647118237347  0.054108202228708484  0.7237360137856457  1.0000
  C   C28       1.0  0.9026375461070154  0.4439598871157089  0.14400722912876573  1.0000
  C   C29       1.0  0.9793347782656989  0.47820087935828304  0.13662937411787213  1.0000
  C   C30       1.0  0.018191918920753777  0.4935714625677073  0.016219447679627796  1.0000
  C   C31       1.0  0.9792032549096229  0.47788759523800756  0.9014922279901515  1.0000
  C   C32       1.0  0.9025340784888635  0.4436762907178209  0.906764029611341  1.0000
  C   C33       1.0  0.8647481375742729  0.4264625911384139  0.028566899771722113  1.0000
  N   N3        1.0  0.09643098003523187  0.5305610671033303  0.012100042322721775  1.0000
  C   C34       1.0  0.1495934065530115  0.4920022291418653  0.9154262936610906  1.0000
  O   O2        1.0  0.13587053462425613  0.3931063428637198  0.8545266394069532  1.0000
  C   C35       1.0  0.22173817923723196  0.5640881811518843  0.8897174189747838  1.0000
  C   C36       1.0  0.2308282639746695  0.692384636102072  0.9256298204690143  1.0000
  C   C37       1.0  0.298996774884259  0.7596005312276151  0.9002660279249888  1.0000
  C   C38       1.0  0.3586217130119371  0.700021016500636  0.8385338174994694  1.0000
  C   C39       1.0  0.3501415442844462  0.5731858348984671  0.8015869252108284  1.0000
  C   C40       1.0  0.2821010319317543  0.5055160019121399  0.826615768873599  1.0000
  H   H17       1.0  0.7577880207267107  0.3805719098110496  0.3651025808411428  1.0000
  H   H18       1.0  0.00943752448835844  0.4921526208367317  0.2246508948398649  1.0000
  H   H19       1.0  0.008304865428665922  0.49455985231831734  0.8080262069519818  1.0000
  H   H20       1.0  0.8056255875253681  0.4000497506006673  0.03339017480932682  1.0000
  H   H21       1.0  0.872881575993621  0.43222773185295443  0.5812180368841995  1.0000
  H   H22       1.0  0.11694404933332934  0.5782656285178818  0.09006355541373812  1.0000
  H   H23       1.0  0.18519046138793227  0.7418120787688973  0.971513623584443  1.0000
  H   H24       1.0  0.30548000639849593  0.8582417087118366  0.9280659662867912  1.0000
  H   H25       1.0  0.41130991591858335  0.752282475706412  0.8189636525681377  1.0000
  H   H26       1.0  0.3963353688727053  0.5271893618556591  0.7534798174916886  1.0000
  H   H27       1.0  0.2769051847763835  0.4071287610582956  0.7973810217024009  1.0000
  Zn  Zn1       1.0  0.8202658217810255  0.4418177621899622  0.5292073359127432  1.0000
  Zn  Zn2       1.0  0.9848985870666157  0.44581763055121515  0.521563668836327  1.0000
  C   C41       1.0  0.9025508664747357  0.43855594445756335  0.7625875888789304  1.0000
  C   C42       1.0  0.9026153404805511  0.4490811306115765  0.2881834596044339  1.0000
  C   C43       1.0  0.9026318897157958  0.6810232447071245  0.5201719046306947  1.0000
  C   C44       1.0  0.902534260728441  0.2066122685951808  0.5305992159552455  1.0000
  O   O3        1.0  0.9650851633279703  0.4523121299007278  0.3336695887202299  1.0000
  O   O4        1.0  0.9650335029834796  0.43835977307420454  0.7112997196186857  1.0000
  O   O5        1.0  0.9650980878685212  0.6341551634787794  0.5155473783410687  1.0000
  O   O6        1.0  0.9650205222800594  0.2565167474581329  0.5294218352275089  1.0000
  O   O7        1.0  0.8401438303865003  0.6311186439195022  0.521349172123138  1.0000
  O   O8        1.0  0.8400792458314273  0.43532481391821887  0.7171014438997554  1.0000
  O   O9        1.0  0.8401309064283414  0.4492771260683761  0.33946975156680526  1.0000
  O   O10       1.0  0.8400662653622184  0.2534817343002589  0.5352220954459994  1.0000
