data_image0
_chemical_formula_structural       NC9NC5H8C6NCOC6H11C6NCOC6H11Zn2C4O8
_chemical_formula_sum              "N4 C44 H30 O10 Zn2"
_cell_length_a       17.807436237873137
_cell_length_b       10.29965916528486
_cell_length_c       10.299662537453274
_cell_angle_alpha    85.55779495060091
_cell_angle_beta     89.37814808442572
_cell_angle_gamma    88.40731929758992

_space_group_name_H-M_alt    "P 1"
_space_group_IT_number       1

loop_
  _space_group_symop_operation_xyz
  'x, y, z'

loop_
  _atom_site_type_symbol
  _atom_site_label
  _atom_site_symmetry_multiplicity
  _atom_site_fract_x
  _atom_site_fract_y
  _atom_site_fract_z
  _atom_site_occupancy
  N   N1        1.0  0.7078480254904953  0.3882432197663103  0.5575359536925935  1.0000
  C   C1        1.0  0.6472559089992517  0.3530586649555713  0.5465006953937734  1.0000
  C   C2        1.0  0.5718859757241993  0.3092929535031608  0.5327740322828127  1.0000
  C   C3        1.0  0.553796514886764  0.23791883248527343  0.42774637417361944  1.0000
  C   C4        1.0  0.48061619086918234  0.1953142370095732  0.414336003785734  1.0000
  C   C5        1.0  0.4244765482833535  0.2237062567621828  0.5059207200586151  1.0000
  C   C6        1.0  0.3467047371158258  0.1785434271684938  0.4917510816215694  1.0000
  C   C7        1.0  0.284538996149213  0.26028745867876574  0.5177163489052914  1.0000
  C   C8        1.0  0.211216330273452  0.21747982647663577  0.5043195958862301  1.0000
  C   C9        1.0  0.1480009156882956  0.3019149910441725  0.5306496229905016  1.0000
  N   N2        1.0  0.0971887097427766  0.369795021391915  0.5518182364360305  1.0000
  C   C10       1.0  0.19947581932656  0.09267020028819584  0.4649321438986992  1.0000
  C   C11       1.0  0.2607841892174808  0.010912320009034618  0.4389584823645281  1.0000
  C   C12       1.0  0.3339873824344656  0.05332549824073074  0.4521525681237313  1.0000
  C   C13       1.0  0.4432574692659734  0.2955746477939374  0.6111677685337644  1.0000
  C   C14       1.0  0.5164906528920599  0.3379889122300097  0.6244224247030679  1.0000
  H   H1        1.0  0.5961973193904427  0.2154607374503157  0.3560249608387716  1.0000
  H   H2        1.0  0.46770565206669995  0.14166420834955717  0.33139680517083736  1.0000
  H   H3        1.0  0.2930493894371693  0.35773861340291907  0.5466247485254132  1.0000
  H   H4        1.0  0.1430063494162983  0.05863913475105598  0.45432629828156884  1.0000
  H   H5        1.0  0.2515757567728918  0.9142816809247695  0.4088499038587725  1.0000
  H   H6        1.0  0.3806194366395623  0.9875895695161641  0.43308302284787814  1.0000
  H   H7        1.0  0.4015732753786879  0.3174932337822304  0.6841835385274577  1.0000
  H   H8        1.0  0.5299298943931243  0.3928598714984479  0.7063203586877898  1.0000
  C   C15       1.0  0.9024558901838159  0.9976614513518263  0.5545625554518614  1.0000
  C   C16       1.0  0.9029851687549091  0.006968638161945597  0.41773827247434747  1.0000
  C   C17       1.0  0.9043595917139157  0.8947687733430604  0.3488822327904151  1.0000
  C   C18       1.0  0.9031266753422217  0.7717715291612289  0.418032579797444  1.0000
  C   C19       1.0  0.90258800481533  0.7603664493141487  0.5548027768924595  1.0000
  C   C20       1.0  0.9025200094494438  0.8739068902975942  0.6222918967082365  1.0000
  N   N3        1.0  0.9037466235644105  0.9079231538595472  0.20882457380801703  1.0000
  C   C21       1.0  0.9389726799864206  0.8151550784868725  0.12858084890984212  1.0000
  O   O1        1.0  0.9907917921254703  0.7398634487641682  0.1747980756215899  1.0000
  C   C22       1.0  0.9171551152534068  0.8100441866082589  0.9905345069153332  1.0000
  C   C23       1.0  0.8476939606147156  0.8632101682768522  0.945208642285384  1.0000
  C   C24       1.0  0.8275807972435206  0.8571988315602471  0.8149809076474203  1.0000
  C   C25       1.0  0.876229186233555  0.7978388297492008  0.7288095535386341  1.0000
  C   C26       1.0  0.9450291974261394  0.7439171707323667  0.7727689032655363  1.0000
  C   C27       1.0  0.9654291737152176  0.749558624073023  0.902887950953104  1.0000
  H   H9        1.0  0.9007404492780807  0.18740293986788847  0.8126675432593581  1.0000
  H   H10       1.0  0.9029060821563805  0.10160190042945347  0.36391626102348096  1.0000
  H   H11       1.0  0.9012682006071631  0.685088819892908  0.36525436365496633  1.0000
  H   H12       1.0  0.9021220408287178  0.8658662355767587  0.7277678312245567  1.0000
  H   H13       1.0  0.9013818951218513  0.4285897374655909  0.6072821477050874  1.0000
  H   H14       1.0  0.882317442572443  0.9950887305502852  0.16319870016125448  1.0000
  H   H15       1.0  0.8083176060456602  0.9077485337186266  0.010269460061092195  1.0000
  H   H16       1.0  0.7740455378678109  0.8981818861014652  0.7809812509775216  1.0000
  H   H17       1.0  0.860510312187748  0.7932642727231924  0.6280825870399714  1.0000
  H   H18       1.0  0.9826282836227974  0.6976679064225225  0.7059704609550761  1.0000
  H   H19       1.0  0.019152863308183436  0.7073813551061774  0.9346661254690664  1.0000
  C   C28       1.0  0.9025736927982964  0.37915203968527206  0.17330598018606191  1.0000
  C   C29       1.0  0.9792685437006635  0.4078918035366352  0.16837596984227512  1.0000
  C   C30       1.0  0.018124545981725637  0.420475420827532  0.049205264218294964  1.0000
  C   C31       1.0  0.9791370331897523  0.4075879689715256  0.933234506118482  1.0000
  C   C32       1.0  0.9024702365635511  0.37887587943331796  0.936059366576664  1.0000
  C   C33       1.0  0.8646854806612833  0.364372456724263  0.05665611030065887  1.0000
  N   N4        1.0  0.09636110705926404  0.4518530787110473  0.04758388274594162  1.0000
  C   C34       1.0  0.14952402702065326  0.40948495844457944  0.9525775002328252  1.0000
  O   O2        1.0  0.13580477410087385  0.31157913810729454  0.8911961631201383  1.0000
  C   C35       1.0  0.22166518728663998  0.4763937333629881  0.9291899634524232  1.0000
  C   C36       1.0  0.23075071375293163  0.6040304584334815  0.9654510156780454  1.0000
  C   C37       1.0  0.29891584221717804  0.6663545725799709  0.9422801977805363  1.0000
  C   C38       1.0  0.3585418959372515  0.6025037291256858  0.8824103458323439  1.0000
  C   C39       1.0  0.35006622562208245  0.47628445625617627  0.8451348288835381  1.0000
  C   C40       1.0  0.2820291093311824  0.4134972551497435  0.867974542266694  1.0000
  H   H20       1.0  0.7577286206049973  0.3261535405307172  0.3897789628183168  1.0000
  H   H21       1.0  0.009370337667295338  0.4196843467847737  0.257358481808436  1.0000
  H   H22       1.0  0.008237613517279696  0.42217263877680855  0.8406990167348587  1.0000
  H   H23       1.0  0.8055647668369071  0.34220027425726807  0.05959244022262134  1.0000
  H   H24       1.0  0.8728185931088925  0.3695540811381799  0.6095678371041751  1.0000
  H   H25       1.0  0.11687221277549087  0.4980839101393026  0.12622024560898693  1.0000
  H   H26       1.0  0.1851119256464755  0.656727000853234  0.009911144144049143  1.0000
  H   H27       1.0  0.3053955770191636  0.7645247733680385  0.9703321637055988  1.0000
  H   H28       1.0  0.4112274738602289  0.6509842569578289  0.8645353013214794  1.0000
  H   H29       1.0  0.3962609089231448  0.42697880390482235  0.7984706411731213  1.0000
  H   H30       1.0  0.2768367299596197  0.3154886713033569  0.838528704137679  1.0000
  Zn  Zn1       1.0  0.8202033339318271  0.3829160003168055  0.5558934538559663  1.0000
  Zn  Zn2       1.0  0.9848333798219594  0.3751116511186344  0.5534714097680495  1.0000
  C   C41       1.0  0.9024872005188528  0.37375464805383113  0.7918810456782367  1.0000
  C   C42       1.0  0.9025513112564794  0.38427455668277843  0.3174839194823187  1.0000
  C   C43       1.0  0.9025598772205824  0.6162010540953584  0.5495821679985138  1.0000
  C   C44       1.0  0.9024785780983385  0.14182659302335507  0.559782866737094  1.0000
  O   O3        1.0  0.9650200432637264  0.38302634476196995  0.3649521980985096  1.0000
  O   O4        1.0  0.9649688639432576  0.36907855995572825  0.7425741174793442  1.0000
  O   O5        1.0  0.9650267089061653  0.5648571384239174  0.5469160722643482  1.0000
  O   O6        1.0  0.964962142138556  0.1872477782820745  0.5606101467662565  1.0000
  O   O7        1.0  0.8400745154350764  0.5707798758180231  0.5487547176774534  1.0000
  O   O8        1.0  0.8400166707484259  0.3750028576323877  0.7444126941370912  1.0000
  O   O9        1.0  0.8400678503228522  0.3889505977469445  0.36678921330871717  1.0000
  O   O10       1.0  0.8400099491797905  0.19317202194341299  0.5624472593434071  1.0000
