data_image0
_chemical_formula_structural       NC5NC3H4C7NH5C6IH3Zn2C4O8
_chemical_formula_sum              "N3 C25 H12 I1 Zn2 O8"
_cell_length_a       13.859018345313864
_cell_length_b       9.275154477615127
_cell_length_c       9.275433903346869
_cell_angle_alpha    86.39417635758981
_cell_angle_beta     89.96562363921994
_cell_angle_gamma    89.43370600770291

_space_group_name_H-M_alt    "P 1"
_space_group_IT_number       1

loop_
  _space_group_symop_operation_xyz
  'x, y, z'

loop_
  _atom_site_type_symbol
  _atom_site_label
  _atom_site_symmetry_multiplicity
  _atom_site_fract_x
  _atom_site_fract_y
  _atom_site_fract_z
  _atom_site_occupancy
  N   N1        1.0  0.8989002020935967  0.5610503709625665  0.4167306549778416  1.0000
  C   C1        1.0  0.8267830638157396  0.5220609111851542  0.4678124122457614  1.0000
  C   C2        1.0  0.7370735605121215  0.4735632460482995  0.5313513237184797  1.0000
  C   C3        1.0  0.6491705365574586  0.5208427931346005  0.4694086673551197  1.0000
  C   C4        1.0  0.5618432580222966  0.4735629543244844  0.5313511970546535  1.0000
  C   C5        1.0  0.4715431849820806  0.5220607974852687  0.4678123145163087  1.0000
  N   N2        1.0  0.3989512997928945  0.5610503363368331  0.4167305858380881  1.0000
  C   C6        1.0  0.5626015680557792  0.3789895874413976  0.6552549167502546  1.0000
  C   C7        1.0  0.6503209425992517  0.33189204154526375  0.7169592031372294  1.0000
  C   C8        1.0  0.7374669095603958  0.37898988471151146  0.6552551215152547  1.0000
  H   H1        1.0  0.6487247905110993  0.5940451590324074  0.37350385573319356  1.0000
  H   H2        1.0  0.495532674187259  0.3417757424740129  0.7040095867746903  1.0000
  H   H3        1.0  0.6507657208234112  0.2588382917283519  0.8126695021516566  1.0000
  H   H4        1.0  0.8049889321478954  0.34177627685102596  0.7040100140515149  1.0000
  C   C9        1.0  0.15172330361916828  0.13764330310964823  0.4150631069261519  1.0000
  C   C10       1.0  0.12529807475485866  0.21947121686202276  0.2880080745300193  1.0000
  C   C11       1.0  0.09102135821638724  0.15215319581315945  0.16768333717743067  1.0000
  C   C12       1.0  0.08260522349981957  0.00208917590722635  0.172996547541874  1.0000
  C   C13       1.0  0.10992610070046505  0.9190227880363081  0.2971554615661811  1.0000
  C   C14       1.0  0.14613748609885335  0.9844464214737098  0.4184106320171439  1.0000
  C   C15       1.0  0.06331315234528545  0.23754663688623023  0.03909696037992649  1.0000
  N   N3        1.0  0.04104344188409413  0.30618740773934033  0.9357464505389151  1.0000
  H   H5        1.0  0.17026577016595668  0.21807600822107376  0.7687823699889362  1.0000
  H   H6        1.0  0.12924061655488225  0.33638514638857303  0.28373237371495796  1.0000
  H   H7        1.0  0.05574728181104936  0.9489791502925854  0.08051942992334782  1.0000
  H   H8        1.0  0.10485945148203647  0.8025538440695107  0.29702864382949046  1.0000
  H   H9        1.0  0.1627177539341349  0.6881965863618874  0.6554125994488114  1.0000
  C   C16       1.0  0.14912943678624946  0.5565446292131861  0.993566730132359  1.0000
  C   C17       1.0  0.2380296685853498  0.5538453377255683  0.06701091632657419  1.0000
  C   C18       1.0  0.3248843511611983  0.5644325009270563  0.9909340185373868  1.0000
  C   C19       1.0  0.3242289505826351  0.5780555751665175  0.8404422280756143  1.0000
  C   C20       1.0  0.23697793924542473  0.5785754630710424  0.7654689049195573  1.0000
  C   C21       1.0  0.14873133795899562  0.5655450261801972  0.8399069329012359  1.0000
  I   I1        1.0  0.457063616300573  0.5625184313520957  0.10371083249121993  1.0000
  H   H10       1.0  0.9185565028100546  0.6419642308271366  0.09139403381259203  1.0000
  H   H11       1.0  0.39146628348305  0.586869427760621  0.7812661316145739  1.0000
  H   H12       1.0  0.9930543772914588  0.6169915161259478  0.555634793966739  1.0000
  Zn  Zn1       1.0  0.04320416722402953  0.5610465793915967  0.4167389506351675  1.0000
  Zn  Zn2       1.0  0.2546473836216516  0.5610424205599487  0.4167340791889429  1.0000
  C   C22       1.0  0.14884233046897188  0.5580998233646262  0.6799078315528382  1.0000
  C   C23       1.0  0.14901151726313097  0.5639909972897298  0.1535653468475291  1.0000
  C   C24       1.0  0.14719105485758988  0.824321519146171  0.4120354294209094  1.0000
  C   C25       1.0  0.15066273211443093  0.29776757003239585  0.4214378189609796  1.0000
  O   O1        1.0  0.22921358256422647  0.5664821979104063  0.20726047066813535  1.0000
  O   O2        1.0  0.22912078132077607  0.5556043741585064  0.6262085912947644  1.0000
  O   O3        1.0  0.22778627298143128  0.7705817762909772  0.4098997372829445  1.0000
  O   O4        1.0  0.23054801873510966  0.35150480494459635  0.4235692166746497  1.0000
  O   O5        1.0  0.0673034599553719  0.7705841950098575  0.4099038131435495  1.0000
  O   O6        1.0  0.06863795689959984  0.5556085243560827  0.6262125971679362  1.0000
  O   O7        1.0  0.06873075935358286  0.5664862794386596  0.20726274379950718  1.0000
  O   O8        1.0  0.0700651955377285  0.3515088773090971  0.42357159780541576  1.0000
