data_image0
_chemical_formula_structural       NC8NC6H8C7F3H5C7OCH10Zn2C4O8
_chemical_formula_sum              "N2 C33 H23 F3 O9 Zn2"
_cell_length_a       17.457602349358154
_cell_length_b       9.272718291674593
_cell_length_c       10.300835455316063
_cell_angle_alpha    86.00164586726821
_cell_angle_beta     92.89337507241441
_cell_angle_gamma    91.24279848523653

_space_group_name_H-M_alt    "P 1"
_space_group_IT_number       1

loop_
  _space_group_symop_operation_xyz
  'x, y, z'

loop_
  _atom_site_type_symbol
  _atom_site_label
  _atom_site_symmetry_multiplicity
  _atom_site_fract_x
  _atom_site_fract_y
  _atom_site_fract_z
  _atom_site_occupancy
  N   N1        1.0  0.7158131412240213  0.6122954283697013  0.6370975615339165  1.0000
  C   C1        1.0  0.6549343781277421  0.5613186861049282  0.6261535137581409  1.0000
  C   C2        1.0  0.5791985905170696  0.4979099632973698  0.612548700150368  1.0000
  C   C3        1.0  0.5205077306470643  0.54250248391184  0.6877256199913495  1.0000
  C   C4        1.0  0.4462008619563682  0.48144504615991324  0.6747503731059536  1.0000
  C   C5        1.0  0.38391008813340943  0.5285282278836121  0.754364664328354  1.0000
  C   C6        1.0  0.3092724021179935  0.5490160884679687  0.6987403961172789  1.0000
  C   C7        1.0  0.2505823644491653  0.5934044827937042  0.7740239366707401  1.0000
  C   C8        1.0  0.1745034668484919  0.6145643674991801  0.7161888216630845  1.0000
  N   N2        1.0  0.1133489776484555  0.6315698336971325  0.6696894944404568  1.0000
  C   C9        1.0  0.2660368779658825  0.6175749924171361  0.9054419469567819  1.0000
  C   C10       1.0  0.3398882271899546  0.5975189642835452  0.9614565584364168  1.0000
  C   C11       1.0  0.39856595481879786  0.5533305122131829  0.8866319764491186  1.0000
  C   C12       1.0  0.4318762044874455  0.3750429014881165  0.5851605970270632  1.0000
  C   C13       1.0  0.4905541987110024  0.3307597810469083  0.510385632511994  1.0000
  C   C14       1.0  0.564075909770158  0.39194205954654265  0.5239115696556935  1.0000
  H   H1        1.0  0.532534630710183  0.6259776057448116  0.7548879881784323  1.0000
  H   H2        1.0  0.29697438258038045  0.5323795192382759  0.5966207286878864  1.0000
  H   H3        1.0  0.2210513834117563  0.6518650040322604  0.9644923584482622  1.0000
  H   H4        1.0  0.35166564690470065  0.6158843820689269  0.06321418925857536  1.0000
  H   H5        1.0  0.4551256098527539  0.5366995628046739  0.9326252980334033  1.0000
  H   H6        1.0  0.37558813073874997  0.3247206533316787  0.5741846686596497  1.0000
  H   H7        1.0  0.479036001425418  0.24852363530367177  0.44203309968392146  1.0000
  H   H8        1.0  0.6090653496030629  0.356686829806686  0.4653659800463974  1.0000
  C   C15       1.0  0.916254710340158  0.19863038459429697  0.6506623964658157  1.0000
  C   C16       1.0  0.8694806141536214  0.2776534681018241  0.5570923039105504  1.0000
  C   C17       1.0  0.8172807985659324  0.20757165514506462  0.47332278099166514  1.0000
  C   C18       1.0  0.8138875168575069  0.05612029750893455  0.48063593779346503  1.0000
  C   C19       1.0  0.8607184427579055  0.9761402238944754  0.5714009223439913  1.0000
  C   C20       1.0  0.9129147715200355  0.04522410300078916  0.6561364585937297  1.0000
  C   C21       1.0  0.7691099510448389  0.2941223470161561  0.3713774484740162  1.0000
  F   F1        1.0  0.7494082325717483  0.4245977710247078  0.4169529449532303  1.0000
  F   F2        1.0  0.7021463331365335  0.21946864459507798  0.338758903778283  1.0000
  F   F3        1.0  0.810469022498804  0.32088225249540936  0.26102733413350565  1.0000
  H   H9        1.0  0.0073845692268332775  0.28180976284533205  0.9383614781328716  1.0000
  H   H10       1.0  0.8725413374623828  0.3947692334613173  0.5512997593243298  1.0000
  H   H11       1.0  0.7755349997382307  0.9991530712367099  0.4150507815501856  1.0000
  H   H12       1.0  0.8575880278510949  0.8592197802977806  0.572891303177824  1.0000
  H   H13       1.0  0.07761283019600729  0.9373335214715749  0.8259220701042396  1.0000
  C   C22       1.0  0.9145153380871813  0.6218503220605036  0.2720766778142203  1.0000
  C   C23       1.0  0.9846306687180615  0.6990118523404187  0.2723894020669495  1.0000
  C   C24       1.0  0.019494064320854557  0.7393800865683634  0.15529702675154655  1.0000
  C   C25       1.0  0.9848131186061745  0.6992122860513335  0.037106875758870166  1.0000
  C   C26       1.0  0.9146541720146815  0.6220041559257574  0.03472216250706461  1.0000
  C   C27       1.0  0.8798305285895399  0.584081784969716  0.15267027975571623  1.0000
  C   C28       1.0  0.0955986990401767  0.8182179610900607  0.15708130655782623  1.0000
  O   O1        1.0  0.15463625144631488  0.7158453483949185  0.1687152191801824  1.0000
  C   C29       1.0  0.22641622736238431  0.7885249687531812  0.17052993002201666  1.0000
  H   H14       1.0  0.8880949838062381  0.5908245300332351  0.5994850866687573  1.0000
  H   H15       1.0  0.01242132912357353  0.7280044831101591  0.3635939797161094  1.0000
  H   H16       1.0  0.01272891082681693  0.7283438225391919  0.9471477842881243  1.0000
  H   H17       1.0  0.8257582754012852  0.5245607341348791  0.15166698911421528  1.0000
  H   H18       1.0  0.7827360886166165  0.47494123857621195  0.8230992298032398  1.0000
  H   H19       1.0  0.09938041393955932  0.8887750598354328  0.2405516865877428  1.0000
  H   H20       1.0  0.09955806128485639  0.8888056639151276  0.0654523523458823  1.0000
  H   H21       1.0  0.27218982659615154  0.7067916334674328  0.17969034682992913  1.0000
  H   H22       1.0  0.23391164635533435  0.8558336755611431  0.25574175671476573  1.0000
  H   H23       1.0  0.2340987067853595  0.8559028839287771  0.07824648501740872  1.0000
  Zn  Zn1       1.0  0.8305334130168964  0.617853741265963  0.6465103619116646  1.0000
  Zn  Zn2       1.0  0.9986287401667564  0.625999704342671  0.6602872488841857  1.0000
  C   C30       1.0  0.9146488600425061  0.6162324574620948  0.8905285430529314  1.0000
  C   C31       1.0  0.914515121584705  0.6276228959202119  0.4162693573973195  1.0000
  C   C32       1.0  0.9135412116264495  0.8851986400248745  0.649926842709297  1.0000
  C   C33       1.0  0.9156227194866193  0.3586549787258169  0.6568711110719745  1.0000
  O   O2        1.0  0.9783063743515457  0.6326452862561656  0.46988995402656414  1.0000
  O   O3        1.0  0.9784380753433856  0.6173915770931308  0.8473639040282338  1.0000
  O   O4        1.0  0.9775427755478195  0.8345851296537126  0.6530762679147455  1.0000
  O   O5        1.0  0.9792016167291598  0.4154517412080078  0.664177488142734  1.0000
  O   O6        1.0  0.8499604790918006  0.8284017016223773  0.6426201179449209  1.0000
  O   O7        1.0  0.8508557720388151  0.6112098809151609  0.8369076960191929  1.0000
  O   O8        1.0  0.8507240710119893  0.6264635395336269  0.45943218448531287  1.0000
  O   O9        1.0  0.8516193134448622  0.4092699841947962  0.6537198158906066  1.0000
