data_image0
_chemical_formula_structural       NC9NC5H8C9H8C7NH5Zn2C4O8
_chemical_formula_sum              "N3 C34 H21 Zn2 O8"
_cell_length_a       17.807436237873137
_cell_length_b       9.275152443626249
_cell_length_c       10.302823150593484
_cell_angle_alpha    85.36323106840959
_cell_angle_beta     89.3921433004221
_cell_angle_gamma    88.96355956710403

_space_group_name_H-M_alt    "P 1"
_space_group_IT_number       1

loop_
  _space_group_symop_operation_xyz
  'x, y, z'

loop_
  _atom_site_type_symbol
  _atom_site_label
  _atom_site_symmetry_multiplicity
  _atom_site_fract_x
  _atom_site_fract_y
  _atom_site_fract_z
  _atom_site_occupancy
  N   N1        1.0  0.7154742480204084  0.541130080197476  0.5526657379913151  1.0000
  C   C1        1.0  0.6546822947863618  0.5020515263822956  0.5417700312497089  1.0000
  C   C2        1.0  0.5790637866081233  0.4534421089918012  0.528216954913451  1.0000
  C   C3        1.0  0.5605575660649735  0.3741355389714171  0.4235003725364226  1.0000
  C   C4        1.0  0.4871352553105763  0.32681572311779683  0.4102589998340909  1.0000
  C   C5        1.0  0.4311682534013592  0.3583832260994855  0.5017031062856341  1.0000
  C   C6        1.0  0.3531399314986947  0.3082220646430487  0.4877125975957066  1.0000
  C   C7        1.0  0.2914385148857435  0.3990131284692647  0.5133535349358673  1.0000
  C   C8        1.0  0.21787271973337652  0.35146783617166055  0.5001265587248429  1.0000
  C   C9        1.0  0.1551368482682139  0.4452476775824769  0.526121744425246  1.0000
  N   N2        1.0  0.10471016196271259  0.5206401820051443  0.547021168179052  1.0000
  C   C10       1.0  0.2054232976517032  0.21284499025473932  0.4612342178519469  1.0000
  C   C11       1.0  0.2662672639747908  0.12203854333901452  0.4355849425611083  1.0000
  C   C12       1.0  0.33971133522915536  0.16914569431244253  0.4486108427610354  1.0000
  C   C13       1.0  0.4503687502435458  0.43823879461914894  0.6066370968206949  1.0000
  C   C14       1.0  0.5238428263686856  0.48534717622394785  0.6197235427259018  1.0000
  H   H1        1.0  0.6028219111695381  0.3491659261728929  0.35188993706256677  1.0000
  H   H2        1.0  0.4739108996081662  0.2672014783932774  0.3275549806918883  1.0000
  H   H3        1.0  0.3005021707897282  0.507248881055631  0.5418759774887576  1.0000
  H   H4        1.0  0.1487605517514466  0.17504761363604351  0.4507633258346424  1.0000
  H   H5        1.0  0.2565100285031353  0.014713529819021737  0.4058595603202491  1.0000
  H   H6        1.0  0.3859702440013676  0.09613516031974909  0.4298014999719504  1.0000
  H   H7        1.0  0.4088181530237936  0.4626097773664936  0.679543533160339  1.0000
  H   H8        1.0  0.5376026231730923  0.5463169037211231  0.7013819369938596  1.0000
  C   C15       1.0  0.9078801928331922  0.10736929889578882  0.5512010157889091  1.0000
  C   C16       1.0  0.8807861970790997  0.19153496303875883  0.44129699791954674  1.0000
  C   C17       1.0  0.8606736638916523  0.12715236857326517  0.32922670440520685  1.0000
  C   C18       1.0  0.8673393219768084  0.9774595409915355  0.32484027483879263  1.0000
  C   C19       1.0  0.8929646263140284  0.8916830437808736  0.43383343912850014  1.0000
  C   C20       1.0  0.9123113383515701  0.9543895566239944  0.5484970588435327  1.0000
  C   C21       1.0  0.8469908569626577  0.9113812032473408  0.20877748662431062  1.0000
  C   C22       1.0  0.8299537724747134  0.8560227045431829  0.11159307616110638  1.0000
  C   C23       1.0  0.8092826380803437  0.7888429397082152  0.9936768327822927  1.0000
  H   H9        1.0  0.015801425307776062  0.18333963286245505  0.8089215606897778  1.0000
  H   H10       1.0  0.8768298316694252  0.30826071701053315  0.4409459879739879  1.0000
  H   H11       1.0  0.8405929213144728  0.1944492103010604  0.2454334429077301  1.0000
  H   H12       1.0  0.8961268515868432  0.7752065504729926  0.4301658064469198  1.0000
  H   H13       1.0  0.9825638013389442  0.6553919759650418  0.724820913889747  1.0000
  H   H14       1.0  0.8230128613837466  0.6713983343042934  0.005606635294094441  1.0000
  H   H15       1.0  0.7481527811854343  0.804643456886371  0.976789687270196  1.0000
  H   H16       1.0  0.8410005656840088  0.8395218041238465  0.9091798171637477  1.0000
  C   C24       1.0  0.9100957724552826  0.5308794293100905  0.16860097543572983  1.0000
  C   C25       1.0  0.8314460219965183  0.5454756717374365  0.1678794865590936  1.0000
  C   C26       1.0  0.7923170291571324  0.5527373215429783  0.05041803167105918  1.0000
  C   C27       1.0  0.8314460068995088  0.5454755783333101  0.9325784932229593  1.0000
  C   C28       1.0  0.9100957719676335  0.5308794218411874  0.9310971420810779  1.0000
  C   C29       1.0  0.9490097100928124  0.5236575312042768  0.04966105323638592  1.0000
  C   C30       1.0  0.7116895297700672  0.5677003747538792  0.05080749575383781  1.0000
  N   N3        1.0  0.6468913653937579  0.5797259569261838  0.051120462377821196  1.0000
  H   H17       1.0  0.9398866646121105  0.5253510361795161  0.4961964856917758  1.0000
  H   H18       1.0  0.8004275616246784  0.5512322425768086  0.25845357896804666  1.0000
  H   H19       1.0  0.8004275908565516  0.5512321348210034  0.8423040423773243  1.0000
  H   H20       1.0  0.009661564778903342  0.5124014593865566  0.04936809640456508  1.0000
  H   H21       1.0  0.9398866382370425  0.5253508059903568  0.6032137864881459  1.0000
  Zn  Zn1       1.0  0.8277993035006002  0.5352132899350119  0.5510443577701585  1.0000
  Zn  Zn2       1.0  0.992385026783681  0.5265452161688442  0.5486532591580167  1.0000
  C   C31       1.0  0.9100640228216486  0.5251340427887506  0.7869873963982457  1.0000
  C   C32       1.0  0.9101221142533251  0.5366261883705734  0.31271031603624766  1.0000
  C   C33       1.0  0.9114698868917924  0.7942848737615096  0.5438347148817515  1.0000
  C   C34       1.0  0.9087161849568506  0.2674736276172054  0.5558630731167318  1.0000
  O   O1        1.0  0.9725903461259462  0.5352590725011699  0.36016733782032717  1.0000
  O   O2        1.0  0.9725125409746995  0.5199212032393228  0.7377152158394098  1.0000
  O   O3        1.0  0.9736469520079691  0.7372639474704761  0.5413677126146625  1.0000
  O   O4        1.0  0.9714558789846934  0.3179163415447723  0.5565147444842455  1.0000
  O   O5        1.0  0.8487283951345659  0.743842167518642  0.5431828732530599  1.0000
  O   O6        1.0  0.8475939931626056  0.5265011560276556  0.7395303017229491  1.0000
  O   O7        1.0  0.8476717981009263  0.5418389750295498  0.3619808629576189  1.0000
  O   O8        1.0  0.8465373309026352  0.3244962337579542  0.5583283669914973  1.0000
