data_image0
_chemical_formula_structural       NC11NC3H8C7OC3OC4H12C7OC3NC3H11Zn2C4O8
_chemical_formula_sum              "N3 C45 H31 O11 Zn2"
_cell_length_a       17.807433833752565
_cell_length_b       10.299371110280156
_cell_length_c       10.298749378158433
_cell_angle_alpha    85.57454226300094
_cell_angle_beta     88.5335258425568
_cell_angle_gamma    90.69823053252263

_space_group_name_H-M_alt    "P 1"
_space_group_IT_number       1

loop_
  _space_group_symop_operation_xyz
  'x, y, z'

loop_
  _atom_site_type_symbol
  _atom_site_label
  _atom_site_symmetry_multiplicity
  _atom_site_fract_x
  _atom_site_fract_y
  _atom_site_fract_z
  _atom_site_occupancy
  N   N1        1.0  0.7074691046162566  0.4385945827194618  0.5350121352539428  1.0000
  C   C1        1.0  0.6566511508044746  0.403862712873982  0.6015681387424527  1.0000
  C   C2        1.0  0.5934284902350445  0.36065912990347776  0.6843553130972282  1.0000
  C   C3        1.0  0.6051584783037887  0.2970994352784879  0.8070621855650011  1.0000
  C   C4        1.0  0.5438432236597809  0.255575807308255  0.8875658064863144  1.0000
  C   C5        1.0  0.47064365076762305  0.27729855603090714  0.8460032963032422  1.0000
  C   C6        1.0  0.4579368474878957  0.34101283705010366  0.722836242995442  1.0000
  C   C7        1.0  0.38016897595817295  0.3640659191246785  0.6784933083740994  1.0000
  C   C8        1.0  0.3613712062690815  0.3472030930714198  0.5488979942155334  1.0000
  C   C9        1.0  0.2881416816383539  0.368887116776575  0.5072913967566026  1.0000
  C   C10       1.0  0.23276681967066543  0.40775255652014436  0.5944598822405993  1.0000
  C   C11       1.0  0.157400535775251  0.4300951498531223  0.5514921036690044  1.0000
  N   N2        1.0  0.0968114170330521  0.44805693502609545  0.5169491368729298  1.0000
  C   C12       1.0  0.2508730049346097  0.4248260000092543  0.7235240915121768  1.0000
  C   C13       1.0  0.3240497867429727  0.40310702731238046  0.7653861257080845  1.0000
  C   C14       1.0  0.5201094149228179  0.3825318988523634  0.6423490376288912  1.0000
  H   H1        1.0  0.6616250262574322  0.27968239329253297  0.840424538926747  1.0000
  H   H2        1.0  0.5530434697353657  0.20611624895313255  0.9822928968298439  1.0000
  H   H3        1.0  0.4240056351777646  0.24273764406266296  0.9094358422604722  1.0000
  H   H4        1.0  0.403039011900356  0.3155661219932586  0.4801662145753954  1.0000
  H   H5        1.0  0.2746891302366408  0.35501365590306966  0.4072450562397263  1.0000
  H   H6        1.0  0.20848820560068052  0.4552399752977765  0.791740669447776  1.0000
  H   H7        1.0  0.336974094537025  0.41852591947869255  0.8652501982364362  1.0000
  H   H8        1.0  0.5116078492224125  0.43335380019941216  0.5478567210470264  1.0000
  C   C15       1.0  0.9020931908697526  0.0619532233767206  0.5258679843885381  1.0000
  C   C16       1.0  0.8934249882766585  0.0710426546373013  0.39027553220904104  1.0000
  C   C17       1.0  0.8882043961934761  0.9584195540369063  0.32209402144949073  1.0000
  C   C18       1.0  0.8934623062042486  0.8357756517689559  0.3905849085900115  1.0000
  C   C19       1.0  0.9021945167050208  0.8246884844598196  0.5261041525792534  1.0000
  C   C20       1.0  0.9062627421549042  0.938368464111011  0.5930083300082947  1.0000
  C   C21       1.0  0.879834834870108  0.9679083832113397  0.1787252567295956  1.0000
  O   O1        1.0  0.9106249054134257  0.8836239368712394  0.11326937693903584  1.0000
  C   C22       1.0  0.8365271319376373  0.07293164919298167  0.1096186604331908  1.0000
  C   C23       1.0  0.8575146349622267  0.1186137061484036  0.9814935377167435  1.0000
  C   C24       1.0  0.8168732864017773  0.2166457874398171  0.9139933988314888  1.0000
  O   O2        1.0  0.840847416835116  0.2590476885181674  0.7867744987988156  1.0000
  C   C25       1.0  0.8050296850300389  0.3576699565641875  0.7069955430997905  1.0000
  C   C26       1.0  0.7538583395698994  0.26896760624716487  0.9754090716208396  1.0000
  C   C27       1.0  0.7320994090921893  0.22297710547012572  0.1020528188639982  1.0000
  C   C28       1.0  0.7728740095479192  0.12522963416256117  0.16879454556812123  1.0000
  H   H9        1.0  0.919597401928651  0.25216785025136645  0.7814667648422461  1.0000
  H   H10       1.0  0.8915600068248716  0.1659367687209723  0.33732863617584674  1.0000
  H   H11       1.0  0.8900034436161611  0.7488362170657654  0.33801924843430364  1.0000
  H   H12       1.0  0.912945774751962  0.9305573891365065  0.6975401530363212  1.0000
  H   H13       1.0  0.906173920231186  0.492997194306143  0.5780100357918896  1.0000
  H   H14       1.0  0.9060843433932101  0.07890236650627647  0.9338641967044571  1.0000
  H   H15       1.0  0.8356673586889579  0.3715145863713964  0.611696706483321  1.0000
  H   H16       1.0  0.8061407233892931  0.4511492144640119  0.753966340418986  1.0000
  H   H17       1.0  0.7461527666875961  0.32800758358504195  0.6899614647311001  1.0000
  H   H18       1.0  0.7212216642892926  0.3446784600252253  0.9260311872108655  1.0000
  H   H19       1.0  0.6832456576268313  0.2628430619721289  0.14847352019895133  1.0000
  H   H20       1.0  0.7541417979547596  0.08961702173646624  0.2660490096503163  1.0000
  C   C29       1.0  0.9021092048633363  0.4433480108289321  0.14458661926716432  1.0000
  C   C30       1.0  0.9431608507901581  0.5612110730741973  0.13269930048678158  1.0000
  C   C31       1.0  0.9631653637198266  0.6215933610602729  0.009484803348589919  1.0000
  C   C32       1.0  0.9431638430113587  0.5612600074765051  0.8974551476752266  1.0000
  C   C33       1.0  0.90217847356653  0.44329366166342976  0.9073854976884946  1.0000
  C   C34       1.0  0.8817386872324722  0.3852626365925431  0.03136965046261064  1.0000
  C   C35       1.0  0.007124731678841424  0.7454303210388842  0.9968039973148084  1.0000
  O   O3        1.0  0.05406925355147596  0.7649141287148904  0.903284944152539  1.0000
  C   C36       1.0  0.9978296847581296  0.8471557652199497  0.09015711001983663  1.0000
  C   C37       1.0  0.9275497254797275  0.8680218487764582  0.15012905634599405  1.0000
  C   C38       1.0  0.9191591981423037  0.9653204678237739  0.23724938808879117  1.0000
  N   N3        1.0  0.8476364923346336  0.9854339681209593  0.2982466474497385  1.0000
  C   C39       1.0  0.9811607894842408  0.043078825515921355  0.26379465570316696  1.0000
  C   C40       1.0  0.05084900097956124  0.024149021849150906  0.20339144462588243  1.0000
  C   C41       1.0  0.05919627572478393  0.9271610237557772  0.11665002258727752  1.0000
  H   H21       1.0  0.8255373153804685  0.2196553536121546  0.3744417108729159  1.0000
  H   H22       1.0  0.9603236072200282  0.6054742231312875  0.2194630524026933  1.0000
  H   H23       1.0  0.9590137156842311  0.6071674130789739  0.8023278751255966  1.0000
  H   H24       1.0  0.8500988523443094  0.2944091778492468  0.0397806713390747  1.0000
  H   H25       1.0  0.8250086713357595  0.22016546469207388  0.7188518975565081  1.0000
  H   H26       1.0  0.8790689498096363  0.8098360790651667  0.12831726166250967  1.0000
  H   H27       1.0  0.801044088184982  0.9280292728271123  0.2791624696599655  1.0000
  H   H28       1.0  0.8407627919969513  0.05778567375390153  0.3630761672574374  1.0000
  H   H29       1.0  0.9753981393687706  0.11855350825907252  0.3308189494102276  1.0000
  H   H30       1.0  0.09852753089323874  0.08477512311849589  0.22383459125156135  1.0000
  H   H31       1.0  0.1137716595574001  0.9138426211961621  0.07111297959455176  1.0000
  Zn  Zn1       1.0  0.8198248857400439  0.44132173799147756  0.5298070281455565  1.0000
  Zn  Zn2       1.0  0.9844556206996888  0.44531915930514177  0.5221648275542361  1.0000
  C   C42       1.0  0.9021630332680858  0.43813018480784005  0.763198653766036  1.0000
  C   C43       1.0  0.9021192711634015  0.44851239476690474  0.2887732464651551  1.0000
  C   C44       1.0  0.9021710205809119  0.6805155497530448  0.5208840909028749  1.0000
  C   C45       1.0  0.9021112274726374  0.20612546813500443  0.5310878806971471  1.0000
  O   O4        1.0  0.9645991546899425  0.4517569439531084  0.3342634186629756  1.0000
  O   O5        1.0  0.9646340681159069  0.43791860619929035  0.7119078539685952  1.0000
  O   O6        1.0  0.9646396758815171  0.6336478332277882  0.5162371695552626  1.0000
  O   O7        1.0  0.9645934907394021  0.2560277248578089  0.5299340083044879  1.0000
  O   O8        1.0  0.8396869595199402  0.6306131710761014  0.5220378499963809  1.0000
  O   O9        1.0  0.8396813519518772  0.4348855043715898  0.7177084656419597  1.0000
  O   O10       1.0  0.8396464384280233  0.4487237969814249  0.34006246879434526  1.0000
  O   O11       1.0  0.8396407744820226  0.25299456859021796  0.5357331558087546  1.0000
