data_image0
_chemical_formula_structural       NC8NC6H8C8H6C7ONH7Zn2C4O8
_chemical_formula_sum              "N3 C33 H21 O9 Zn2"
_cell_length_a       17.457602349358154
_cell_length_b       9.27514070457351
_cell_length_c       10.297855452804892
_cell_angle_alpha    85.67857769171053
_cell_angle_beta     92.86875916188056
_cell_angle_gamma    92.27341969939751

_space_group_name_H-M_alt    "P 1"
_space_group_IT_number       1

loop_
  _space_group_symop_operation_xyz
  'x, y, z'

loop_
  _atom_site_type_symbol
  _atom_site_label
  _atom_site_symmetry_multiplicity
  _atom_site_fract_x
  _atom_site_fract_y
  _atom_site_fract_z
  _atom_site_occupancy
  N   N1        1.0  0.7314166305520596  0.6140501576003621  0.6304595935982424  1.0000
  C   C1        1.0  0.6700588407113292  0.5630493667622549  0.6197088787029034  1.0000
  C   C2        1.0  0.5937272012724883  0.49961072574128457  0.6063445496526414  1.0000
  C   C3        1.0  0.5354379944742561  0.5441861227368407  0.6813724337706777  1.0000
  C   C4        1.0  0.4605573358436184  0.4830998034237033  0.6686287922291592  1.0000
  C   C5        1.0  0.39869058575938554  0.5301647664039817  0.748085796522608  1.0000
  C   C6        1.0  0.32426132624941334  0.5506972064380101  0.6923654506569521  1.0000
  C   C7        1.0  0.2659709836249639  0.5950682933364349  0.7675007757092978  1.0000
  C   C8        1.0  0.19010745149712652  0.616274444455973  0.7095663133263068  1.0000
  N   N2        1.0  0.12912604916568074  0.6333171045647754  0.6629871381671364  1.0000
  C   C9        1.0  0.2816191828156421  0.6191767803847756  0.8988657627002121  1.0000
  C   C10       1.0  0.35526608459245146  0.5990762033922314  0.9549749052004544  1.0000
  C   C11       1.0  0.413545885801346  0.5549049110736535  0.8802979077881417  1.0000
  C   C12       1.0  0.44525050519703324  0.3766862882607805  0.5794221192501772  1.0000
  C   C13       1.0  0.503529664874416  0.33242024222722866  0.5047951197591982  1.0000
  C   C14       1.0  0.5776262001958705  0.3936311564455999  0.5180891384805217  1.0000
  H   H1        1.0  0.5482362611923856  0.6276719816161174  0.7482332919542093  1.0000
  H   H2        1.0  0.3118330832900799  0.534110112465866  0.5902787080500318  1.0000
  H   H3        1.0  0.236942215637207  0.6534529020462938  0.9578019514666616  1.0000
  H   H4        1.0  0.3671901679186628  0.6173933880028701  0.056692829951345274  1.0000
  H   H5        1.0  0.4699361286551144  0.5382372855389461  0.9263694773980451  1.0000
  H   H6        1.0  0.3884896006376723  0.32634040056981783  0.5686369887703353  1.0000
  H   H7        1.0  0.4912521293531161  0.25017479095278716  0.43673895222738235  1.0000
  H   H8        1.0  0.622297853878266  0.35838894712987673  0.45966165024591515  1.0000
  C   C15       1.0  0.9279438796913424  0.2001304161431712  0.6456246239771098  1.0000
  C   C16       1.0  0.9389117080412079  0.28414228796950436  0.5280345826437127  1.0000
  C   C17       1.0  0.956571553108936  0.21972034913016855  0.4156472976208178  1.0000
  C   C18       1.0  0.9636859900704906  0.07013428426647872  0.41869849203619974  1.0000
  C   C19       1.0  0.9517354908681096  0.984494662842685  0.5340793591335438  1.0000
  C   C20       1.0  0.9326060524693535  0.04722606625702076  0.6478339425446217  1.0000
  C   C21       1.0  0.9823931208864657  0.004013369109269423  0.3027661713912386  1.0000
  C   C22       1.0  0.9980563071358947  0.9486383660005383  0.20570606336091446  1.0000
  H   H9        1.0  0.9404697250585695  0.2771384073109888  0.9658094469188576  1.0000
  H   H10       1.0  0.9356121771181627  0.4008086148611476  0.5237861964824655  1.0000
  H   H11       1.0  0.9654291275670852  0.2869196759508057  0.3265761019652067  1.0000
  H   H12       1.0  0.9556040232759123  0.8680748935198692  0.5342352985145848  1.0000
  H   H13       1.0  0.9380942066650979  0.7488955179797769  0.8633201490010595  1.0000
  H   H14       1.0  0.01180522298432196  0.9000290443719059  0.12050766549677316  1.0000
  C   C23       1.0  0.9303058686018703  0.6238230783476248  0.26529009288521355  1.0000
  C   C24       1.0  0.8520007939135326  0.6547922785867584  0.2555716540456918  1.0000
  C   C25       1.0  0.8121084025645116  0.6692495090171164  0.13362758564998756  1.0000
  C   C26       1.0  0.8519056985718286  0.6544632987534367  0.020330263735812704  1.0000
  C   C27       1.0  0.93024407352073  0.6235333594317582  0.02816842523941276  1.0000
  C   C28       1.0  0.9688831363867666  0.6080807155112031  0.15106267271938378  1.0000
  C   C29       1.0  0.7294621468094653  0.7023044626765109  0.12594420767353798  1.0000
  O   O1        1.0  0.701403254039454  0.7624733704789917  0.2175916822173447  1.0000
  N   N3        1.0  0.6801917022997477  0.665820570522075  0.01721688028153534  1.0000
  H   H15       1.0  0.07836566266170512  0.5658111780666635  0.49089611483978873  1.0000
  H   H16       1.0  0.8217309608014159  0.666472361084561  0.3432820500535845  1.0000
  H   H17       1.0  0.8225188530624726  0.6696665989030639  0.9255714695565973  1.0000
  H   H18       1.0  0.02923312894533248  0.5842087909800255  0.1577993188213045  1.0000
  H   H19       1.0  0.07860541127658016  0.567360724573649  0.8355776916943588  1.0000
  H   H20       1.0  0.6230752865307272  0.6960828454547503  0.011530381696500894  1.0000
  H   H21       1.0  0.698068637611137  0.6009030158141146  0.9468493347549956  1.0000
  Zn  Zn1       1.0  0.8461869559044246  0.6196063115220278  0.6398538300893064  1.0000
  Zn  Zn2       1.0  0.014355643617050445  0.6277491209952359  0.6536035053203191  1.0000
  C   C30       1.0  0.93022242401322  0.6178421192920749  0.8839529729467227  1.0000
  C   C31       1.0  0.9303220219108701  0.62951522196862  0.409504644845224  1.0000
  C   C32       1.0  0.9317212871015746  0.8871087304338303  0.6422398608453916  1.0000
  C   C33       1.0  0.9288230918953021  0.3602468751292849  0.6512178169866265  1.0000
  O   O2        1.0  0.994146549045416  0.6345094186772091  0.4631222795811755  1.0000
  O   O3        1.0  0.9940340337357056  0.6190270386110572  0.8407706468125467  1.0000
  O   O4        1.0  0.9952435242133335  0.8364631902794974  0.645585532200526  1.0000
  O   O5        1.0  0.9929370012478812  0.41707327458500476  0.6583072921356659  1.0000
  O   O6        1.0  0.8676055408858828  0.830282155155091  0.6351500385750417  1.0000
  O   O7        1.0  0.8663960599477584  0.612847736407062  0.830335088448073  1.0000
  O   O8        1.0  0.8665085751583621  0.6283300668068037  0.45268515940144405  1.0000
  O   O9        1.0  0.8652990272930235  0.41089391236119494  0.6478702693145472  1.0000
