data_image0
_chemical_formula_structural       NC6NCNCH5C6BrH5C9H8Zn2C4O8
_chemical_formula_sum              "N3 C27 H18 Br1 Zn2 O8"
_cell_length_a       14.933214217465613
_cell_length_b       9.276564384272257
_cell_length_c       9.275155815604963
_cell_angle_alpha    86.0004437210585
_cell_angle_beta     90.32327604629522
_cell_angle_gamma    90.62004099175812

_space_group_name_H-M_alt    "P 1"
_space_group_IT_number       1

loop_
  _space_group_symop_operation_xyz
  'x, y, z'

loop_
  _atom_site_type_symbol
  _atom_site_label
  _atom_site_symmetry_multiplicity
  _atom_site_fract_x
  _atom_site_fract_y
  _atom_site_fract_z
  _atom_site_occupancy
  N   N1        1.0  0.8470073163952243  0.5653988321176902  0.4080493055853247  1.0000
  C   C1        1.0  0.7695194902538836  0.5663870057986418  0.4070581153195387  1.0000
  C   C2        1.0  0.6731240834248046  0.5676190048294276  0.4058222236705975  1.0000
  C   C3        1.0  0.6250659165660072  0.4726736815625014  0.501076832145875  1.0000
  C   C4        1.0  0.5315351353652177  0.47374730881133253  0.4999997373230589  1.0000
  C   C5        1.0  0.48516003314896866  0.5697118604670768  0.40372261726658  1.0000
  C   C6        1.0  0.38857935798962834  0.567621143716568  0.405820151340081  1.0000
  N   N2        1.0  0.3110894205244565  0.5658770208325736  0.4075695850295815  1.0000
  C   C7        1.0  0.5333199183647015  0.6658560853686836  0.3072653308337985  1.0000
  N   N3        1.0  0.4882538309877779  0.7656001219969494  0.20719665087983286  1.0000
  C   C8        1.0  0.6273286996756192  0.6638245760809013  0.3093035750517086  1.0000
  H   H1        1.0  0.6598791881534481  0.3978156790929024  0.5761786419146837  1.0000
  H   H2        1.0  0.4952689511016598  0.3995190224195144  0.5744696508800731  1.0000
  H   H3        1.0  0.5247828662968449  0.8360489436995029  0.13651830045145097  1.0000
  H   H4        1.0  0.41852542284459815  0.7709073559091426  0.2018722006110767  1.0000
  H   H5        1.0  0.6647174807956233  0.7373060023816695  0.23558278884470574  1.0000
  C   C9        1.0  0.07635612800743298  0.14215734323092089  0.40818079537779894  1.0000
  C   C10       1.0  0.0643625468592919  0.22450977637969505  0.27646788449684734  1.0000
  C   C11       1.0  0.06070767499147725  0.15839324023318024  0.14597673462923022  1.0000
  C   C12       1.0  0.06901674647997916  0.008983896895825128  0.14472069679016683  1.0000
  C   C13       1.0  0.07942493564358566  0.9249193456972903  0.27444333729951764  1.0000
  C   C14       1.0  0.08174915033337182  0.9891074609560667  0.4074505458251274  1.0000
  Br  Br1       1.0  0.0646730413407186  0.9190794581106881  0.9656633456820694  1.0000
  H   H6        1.0  0.05101818508716674  0.4067016699222367  0.6425184502562937  1.0000
  H   H7        1.0  0.05993368696030265  0.34114035541549453  0.2740050994427621  1.0000
  H   H8        1.0  0.05226596840773867  0.223740148778488  0.045594639837774675  1.0000
  H   H9        1.0  0.08355601232171027  0.8086568577598133  0.2713317776185637  1.0000
  H   H10       1.0  0.13203080272734247  0.6931598686486962  0.6318675857233658  1.0000
  C   C15       1.0  0.0773886889791256  0.5619855949955219  0.9845892985774674  1.0000
  C   C16       1.0  0.0077830276367012495  0.632181136280549  0.052415995703645635  1.0000
  C   C17       1.0  0.9442363885011317  0.711967014593013  0.9711285898560952  1.0000
  C   C18       1.0  0.9491181559879885  0.7232282385622155  0.8205321158845263  1.0000
  C   C19       1.0  0.016916856355575934  0.652256033485529  0.7509995845899713  1.0000
  C   C20       1.0  0.08071656691647089  0.5692791934981949  0.8310420470126401  1.0000
  C   C21       1.0  0.8837828457928079  0.8063813769743289  0.7369310579072472  1.0000
  C   C22       1.0  0.8290763166058024  0.8760107776895457  0.6668999360366512  1.0000
  C   C23       1.0  0.7626997854312824  0.9604942830792009  0.5819175333726676  1.0000
  H   H11       1.0  0.28449874510986106  0.44584982134168366  0.09743261999562525  1.0000
  H   H12       1.0  0.003734432817172448  0.628179496067101  0.16921513868255486  1.0000
  H   H13       1.0  0.891737359498995  0.7661149391307442  0.025949509719531916  1.0000
  H   H14       1.0  0.018614589065261804  0.6590388882121517  0.6338457320930075  1.0000
  H   H15       1.0  0.21887105792589356  0.48590966111359624  0.5573883118753775  1.0000
  H   H16       1.0  0.7809231557970344  0.964656419153688  0.46589616445208465  1.0000
  H   H17       1.0  0.6956787312308984  0.9090729872978407  0.5970570246784725  1.0000
  H   H18       1.0  0.7611425482936015  0.07184459611302696  0.6183285992012179  1.0000
  Zn  Zn1       1.0  0.9809313956444647  0.5655330293596983  0.4079192033851753  1.0000
  Zn  Zn2       1.0  0.17716529781287382  0.5657310950140735  0.4077115328557268  1.0000
  C   C24       1.0  0.08004896127584044  0.5621556117508616  0.6710493431489322  1.0000
  C   C25       1.0  0.07804988719194106  0.569110335564692  0.14458153071211607  1.0000
  C   C26       1.0  0.08070256221513189  0.8289663910215574  0.40184544514639753  1.0000
  C   C27       1.0  0.07739620856140039  0.3022978242934433  0.41378550711725537  1.0000
  O   O1        1.0  0.15274149448286867  0.5715703371019952  0.19819758090407857  1.0000
  O   O2        1.0  0.15429433662887096  0.5598448459815286  0.6172752618903943  1.0000
  O   O3        1.0  0.15482112965733985  0.775297936425147  0.3998912093607463  1.0000
  O   O4        1.0  0.15221463413389502  0.35611725597572086  0.4155815254335864  1.0000
  O   O5        1.0  0.005881992358423684  0.7751468683319656  0.4000492108706013  1.0000
  O   O6        1.0  0.005355210056184223  0.5596955098228132  0.6174331850609307  1.0000
  O   O7        1.0  0.0038023608372106396  0.5714209357592828  0.19835377134428445  1.0000
  O   O8        1.0  0.0032755008437219666  0.3559678452495785  0.4157378239372176  1.0000
