data_image0
_chemical_formula_structural       NC6NC3H6C9H10C9H8Zn2C4O8
_chemical_formula_sum              "N2 C31 H24 Zn2 O8"
_cell_length_a       14.934028789175542
_cell_length_b       10.297183801781406
_cell_length_c       9.275155815604963
_cell_angle_alpha    86.02609203372302
_cell_angle_beta     90.33293635745233
_cell_angle_gamma    89.9601079490019

_space_group_name_H-M_alt    "P 1"
_space_group_IT_number       1

loop_
  _space_group_symop_operation_xyz
  'x, y, z'

loop_
  _atom_site_type_symbol
  _atom_site_label
  _atom_site_symmetry_multiplicity
  _atom_site_fract_x
  _atom_site_fract_y
  _atom_site_fract_z
  _atom_site_occupancy
  N   N1        1.0  0.8369807451995259  0.40858176163336457  0.4090127593894236  1.0000
  C   C1        1.0  0.7594920731875174  0.4075873032684734  0.4083345454903391  1.0000
  C   C2        1.0  0.6630922485765358  0.40634562619855785  0.40748792173522497  1.0000
  C   C3        1.0  0.615585305972935  0.5030474364800209  0.47331655938949346  1.0000
  C   C4        1.0  0.5220709449180462  0.502050464168227  0.4726377529823261  1.0000
  C   C5        1.0  0.47515110864834814  0.4044010327378771  0.40616410359106525  1.0000
  C   C6        1.0  0.3785108845347552  0.40649620992744917  0.4075916571665104  1.0000
  N   N2        1.0  0.30103516588686546  0.40815899972462855  0.40872492919655823  1.0000
  C   C7        1.0  0.5226489419261611  0.3063613697618482  0.33942418632145177  1.0000
  C   C8        1.0  0.47405206480254786  0.20019614927940732  0.26715474238424824  1.0000
  C   C9        1.0  0.6167970599611745  0.3083756559696993  0.34079544044157317  1.0000
  H   H1        1.0  0.6508309891525401  0.5792394975156402  0.5251840089024357  1.0000
  H   H2        1.0  0.486235131232834  0.5776557347377257  0.5241056082576668  1.0000
  H   H3        1.0  0.43095773298315826  0.2437106995055212  0.17854129807020147  1.0000
  H   H4        1.0  0.43161951467456044  0.14420695925410998  0.347282852369202  1.0000
  H   H5        1.0  0.5213291059015845  0.13143135018373386  0.22033747917283297  1.0000
  H   H6        1.0  0.654128593357386  0.23377616308480145  0.2900125463276819  1.0000
  C   C10       1.0  0.06901618396846064  0.026896388001928617  0.409073043473717  1.0000
  C   C11       1.0  0.0658179255510054  0.0355826451827439  0.2574137960555489  1.0000
  C   C12       1.0  0.06417915711897582  0.9234163815458718  0.17971432874600923  1.0000
  C   C13       1.0  0.06580515693555955  0.8004070035025085  0.256825987500507  1.0000
  C   C14       1.0  0.06900839460576533  0.7898344494748364  0.40867706112535607  1.0000
  C   C15       1.0  0.0705921480264959  0.9035475993501014  0.48380934053605484  1.0000
  C   C16       1.0  0.06071976705957691  0.9422433770712113  0.015684143928351938  1.0000
  C   C17       1.0  0.007977110619063593  0.8429520647295171  0.9354871827459212  1.0000
  C   C18       1.0  0.10997249839996566  0.8431318327096412  0.9308454855149897  1.0000
  H   H7        1.0  0.0702570779478271  0.3510877407394435  0.4675122107258225  1.0000
  H   H8        1.0  0.06458340938296514  0.130358384859794  0.19886495915607183  1.0000
  H   H9        1.0  0.0646027506855229  0.712366760111524  0.19990304182088825  1.0000
  H   H10       1.0  0.07305922275165289  0.896118527073317  0.6008176349330698  1.0000
  H   H11       1.0  0.07504651389487793  0.5626494328094199  0.6954809887802473  1.0000
  H   H12       1.0  0.05960868035719136  0.04255091156962986  0.962961958458927  1.0000
  H   H13       1.0  0.9783514805171528  0.7598504062212539  0.0010942751533726766  1.0000
  H   H14       1.0  0.9759915317997085  0.8830630601418606  0.8335373093151375  1.0000
  H   H15       1.0  0.14230359211885027  0.7601401791440033  0.9936337484893897  1.0000
  H   H16       1.0  0.13759872996429864  0.8833455169552448  0.826181414548635  1.0000
  C   C19       1.0  0.06737167518328135  0.4050833547093886  0.9856465542042332  1.0000
  C   C20       1.0  0.9973221033956521  0.46844477896956743  0.05347202456032686  1.0000
  C   C21       1.0  0.9332700804409065  0.5404342085680217  0.972189653723257  1.0000
  C   C22       1.0  0.9380797825998223  0.5505695441421452  0.8215996103863096  1.0000
  C   C23       1.0  0.006327441515957319  0.4865118103585824  0.7520672551789498  1.0000
  C   C24       1.0  0.07065286950344629  0.4116474394656584  0.8321035361801125  1.0000
  C   C25       1.0  0.8722177121844618  0.6255955520052954  0.73800416879125  1.0000
  C   C26       1.0  0.8170700930781761  0.6884195851801576  0.6679777510604353  1.0000
  C   C27       1.0  0.7501583738311371  0.7646459265663551  0.5830010563194845  1.0000
  H   H17       1.0  0.27521129170115755  0.3000852515827488  0.09852987766059651  1.0000
  H   H18       1.0  0.9932992393643146  0.4648474751414933  0.17026792688016545  1.0000
  H   H19       1.0  0.8804285614559315  0.5893081887318781  0.027010120300982494  1.0000
  H   H20       1.0  0.007981833716640846  0.4926188059533496  0.6349167628048473  1.0000
  H   H21       1.0  0.209331642175087  0.336292576056521  0.5584741717408876  1.0000
  H   H22       1.0  0.7683542389523205  0.7683617387055153  0.4669888446886313  1.0000
  H   H23       1.0  0.6834687562634036  0.7184479557806173  0.598092711966574  1.0000
  H   H24       1.0  0.7478911991858227  0.8649551620192947  0.6194551306225893  1.0000
  Zn  Zn1       1.0  0.9708968726693837  0.4084563451198757  0.4089380160085562  1.0000
  Zn  Zn2       1.0  0.16711911426750314  0.4082738665513781  0.4088114612302323  1.0000
  C   C28       1.0  0.07003072241946873  0.4052316162838792  0.6721077640300772  1.0000
  C   C29       1.0  0.06798740778977375  0.4115002335628839  0.14564185243343578  1.0000
  C   C30       1.0  0.06898298237754069  0.645578379258884  0.4030087311340763  1.0000
  C   C31       1.0  0.06903508118858892  0.1711519105134096  0.41474096302097796  1.0000
  O   O1        1.0  0.14265937140095608  0.41357887975636093  0.19928971215666724  1.0000
  O   O2        1.0  0.14428689830943117  0.40301348986934116  0.6183634377870666  1.0000
  O   O3        1.0  0.14343983695617424  0.5970965531262342  0.40106406474967016  1.0000
  O   O4        1.0  0.14350636537786426  0.219495825016512  0.4165889771697744  1.0000
  O   O5        1.0  0.9945095545979724  0.5972343867183684  0.40116050010461946  1.0000
  O   O6        1.0  0.9953566156332926  0.4031528835995717  0.6184597954860798  1.0000
  O   O7        1.0  0.9937290820678636  0.4137182147806786  0.19938433709687486  1.0000
  O   O8        1.0  0.9945760764600705  0.21963515158741215  0.41668371016987676  1.0000
