data_image0
_chemical_formula_structural       NC8NC6H8C7F3H5C6SCNH5Zn2C4O8
_chemical_formula_sum              "N3 C32 H18 F3 S1 Zn2 O8"
_cell_length_a       17.457602349358154
_cell_length_b       9.272718291674593
_cell_length_c       10.302218930750287
_cell_angle_alpha    85.98261342229135
_cell_angle_beta     92.89432631333469
_cell_angle_gamma    91.24279848523653

_space_group_name_H-M_alt    "P 1"
_space_group_IT_number       1

loop_
  _space_group_symop_operation_xyz
  'x, y, z'

loop_
  _atom_site_type_symbol
  _atom_site_label
  _atom_site_symmetry_multiplicity
  _atom_site_fract_x
  _atom_site_fract_y
  _atom_site_fract_z
  _atom_site_occupancy
  N   N1        1.0  0.7158046456281393  0.6127992991061814  0.6372481596095434  1.0000
  C   C1        1.0  0.6549258143125919  0.561826602901682  0.6263053211298171  1.0000
  C   C2        1.0  0.5791899418968766  0.4984229098506625  0.6127020108275563  1.0000
  C   C3        1.0  0.5204995506390874  0.5429876372431839  0.6878706237647274  1.0000
  C   C4        1.0  0.4461926010677273  0.481934996494344  0.6748968106189426  1.0000
  C   C5        1.0  0.3839023235171544  0.5289887444813205  0.7545023046166024  1.0000
  C   C6        1.0  0.30926429077016715  0.5494971695904722  0.6988841827792622  1.0000
  C   C7        1.0  0.25057472237816963  0.5938577312761357  0.7741594046475311  1.0000
  C   C8        1.0  0.1744954642647031  0.6150389978657218  0.7163306803078922  1.0000
  N   N2        1.0  0.11334068521303721  0.6320616550595907  0.6698364911707206  1.0000
  C   C9        1.0  0.266030055083609  0.6179796551110615  0.905562893498367  1.0000
  C   C10       1.0  0.3398817534724408  0.5979029181411344  0.9615713154720931  1.0000
  C   C11       1.0  0.3985590146853526  0.5537421290319411  0.886755001455956  1.0000
  C   C12       1.0  0.4318673851446473  0.37556597353777843  0.5853169340365183  1.0000
  C   C13       1.0  0.490544913261561  0.3313104977139516  0.5105502320099757  1.0000
  C   C14       1.0  0.5640667086340856  0.392487775618006  0.5240746745638591  1.0000
  H   H1        1.0  0.5325268693560453  0.6264379288675017  0.7550255706404105  1.0000
  H   H2        1.0  0.29696563467383813  0.5328983544292912  0.5967757993750238  1.0000
  H   H3        1.0  0.2210449286177762  0.6522478355418784  0.9646067800339262  1.0000
  H   H4        1.0  0.35165980748916265  0.616230715704454  0.06331770227343991  1.0000
  H   H5        1.0  0.455118956416773  0.5370941756999189  0.9327432408674258  1.0000
  H   H6        1.0  0.37557924297795703  0.3252477832280021  0.5743422184878975  1.0000
  H   H7        1.0  0.4790262899032951  0.24909962218821935  0.44220525200418703  1.0000
  H   H8        1.0  0.6090557835254831  0.35725419042769424  0.4655355541286457  1.0000
  C   C15       1.0  0.9162462993001125  0.19912924035452229  0.6508114956534963  1.0000
  C   C16       1.0  0.8694716198482806  0.278186917116942  0.5572517424119467  1.0000
  C   C17       1.0  0.8172712820867413  0.20813607410345702  0.4734914758628437  1.0000
  C   C18       1.0  0.813878045964576  0.05668201276264506  0.4808038245750035  1.0000
  C   C19       1.0  0.8607095376447452  0.976668382953464  0.5715587797708073  1.0000
  C   C20       1.0  0.9129063946023298  0.04572093497733154  0.656284952908164  1.0000
  C   C21       1.0  0.7690997990936417  0.29472445559071336  0.37155740810667925  1.0000
  F   F1        1.0  0.7493983647135201  0.4251830301474426  0.4171278685819417  1.0000
  F   F2        1.0  0.7021359778589897  0.22008281238214747  0.33894246769686  1.0000
  F   F3        1.0  0.8104581826847416  0.32152515796915365  0.26121948723974064  1.0000
  H   H9        1.0  0.0073779515470930946  0.28220225505078383  0.9384787871301206  1.0000
  H   H10       1.0  0.8725323070494562  0.3953048240044156  0.5514598378906659  1.0000
  H   H11       1.0  0.7755251200229458  0.9997390335972168  0.4152259153642637  1.0000
  H   H12       1.0  0.8575791320281614  0.8597473883567366  0.573048995920449  1.0000
  H   H13       1.0  0.07760551162987599  0.9377675829968356  0.82605180343796  1.0000
  C   C22       1.0  0.9145045671487447  0.6224891425456376  0.27226760998941324  1.0000
  C   C23       1.0  0.9870154104398157  0.5588251692112184  0.28153447838304557  1.0000
  C   C24       1.0  0.02306441092477707  0.5266911834307908  0.16916269146784102  1.0000
  C   C25       1.0  0.9872031502638865  0.5586557039393222  0.04639440970183029  1.0000
  C   C26       1.0  0.9146481264649133  0.6223610261803565  0.03482879243331105  1.0000
  C   C27       1.0  0.8786844308502422  0.6538746047157091  0.14836280654248268  1.0000
  S   S1        1.0  0.11575450647684415  0.44599051971844594  0.1824448394274365  1.0000
  C   C28       1.0  0.07632545140244251  0.2688973561401824  0.19028639521461166  1.0000
  N   N3        1.0  0.05045314706804782  0.15280337447216352  0.19542533187090294  1.0000
  H   H14       1.0  0.8869191005828078  0.646786007417512  0.5960722893145678  1.0000
  H   H15       1.0  0.015747455050655557  0.5336859900124837  0.3757815749497917  1.0000
  H   H16       1.0  0.016063877199153698  0.533400298906622  0.9603840033898128  1.0000
  H   H17       1.0  0.8227594986374093  0.7029548832156377  0.14036882349777202  1.0000
  H   H18       1.0  0.7779256452386482  0.7425796104314564  0.8058053382770058  1.0000
  Zn  Zn1       1.0  0.8305249760953157  0.6183541320507426  0.6466599198911087  1.0000
  Zn  Zn2       1.0  0.9986203891228295  0.6264950017546682  0.6604352845443449  1.0000
  C   C29       1.0  0.9146419441981468  0.6166426337038691  0.8906511374967181  1.0000
  C   C30       1.0  0.9145052494653623  0.6282084077681273  0.41644435656113  1.0000
  C   C31       1.0  0.9135327960013605  0.8856977677224014  0.6500760231742408  1.0000
  C   C32       1.0  0.915614347148339  0.35915153909826314  0.6570195242087351  1.0000
  O   O1        1.0  0.9782968364739703  0.6332109743450567  0.47005902821846335  1.0000
  O   O2        1.0  0.9784308904340375  0.6178177114826362  0.8474912680808999  1.0000
  O   O3        1.0  0.9775343795545418  0.835083092995558  0.6532251003743135  1.0000
  O   O4        1.0  0.9791932899348785  0.41594560038226686  0.6643250939390015  1.0000
  O   O5        1.0  0.849952017920545  0.8289035306466352  0.6427701057887769  1.0000
  O   O6        1.0  0.8508485219511284  0.611639881008536  0.8370362154625605  1.0000
  O   O7        1.0  0.8507144679463405  0.6270330939036923  0.45960241424045994  1.0000
  O   O8        1.0  0.8516109214631143  0.4097677096142615  0.6538685772393718  1.0000
