data_image0
_chemical_formula_structural       NC9NC5H8C7OC4NC3H8C7OC6OH12Zn2C4O8
_chemical_formula_sum              "N3 C45 H28 O11 Zn2"
_cell_length_a       17.807436237873137
_cell_length_b       10.299371701877256
_cell_length_c       10.299362532796529
_cell_angle_alpha    85.59861751689631
_cell_angle_beta     89.40785739381337
_cell_angle_gamma    88.40037932452064

_space_group_name_H-M_alt    "P 1"
_space_group_IT_number       1

loop_
  _space_group_symop_operation_xyz
  'x, y, z'

loop_
  _atom_site_type_symbol
  _atom_site_label
  _atom_site_symmetry_multiplicity
  _atom_site_fract_x
  _atom_site_fract_y
  _atom_site_fract_z
  _atom_site_occupancy
  N   N1        1.0  0.7073330700353148  0.3873157167316097  0.5576195213864535  1.0000
  C   C1        1.0  0.6467402310213705  0.35212274266643345  0.5465834720462321  1.0000
  C   C2        1.0  0.5713693990027113  0.30834655857724036  0.5328558249673578  1.0000
  C   C3        1.0  0.5532545555864142  0.236899921599953  0.4278288662930083  1.0000
  C   C4        1.0  0.48007334281267655  0.19428509921143822  0.4144175393770475  1.0000
  C   C5        1.0  0.4239582111366895  0.22273937525289966  0.506000588806709  1.0000
  C   C6        1.0  0.3461854711508544  0.17756573549903054  0.491829935124243  1.0000
  C   C7        1.0  0.2840215034884411  0.2593295468453236  0.5177970311083908  1.0000
  C   C8        1.0  0.2106979670573624  0.21651169099803094  0.5043993148413426  1.0000
  C   C9        1.0  0.1474842423324273  0.30096695784950644  0.5307312445125894  1.0000
  N   N2        1.0  0.09667339523403967  0.3688631497761441  0.5519013874598455  1.0000
  C   C10       1.0  0.19895482300845507  0.09167203681444858  0.46500906355903027  1.0000
  C   C11       1.0  0.260261418138491  0.00989437066814935  0.43903357312601426  1.0000
  C   C12       1.0  0.3334654509618665  0.05231762519570937  0.4522286154660474  1.0000
  C   C13       1.0  0.4427645434764296  0.29468044369567603  0.6112469471648856  1.0000
  C   C14       1.0  0.515998584161931  0.33710482509018475  0.6245025582601949  1.0000
  H   H1        1.0  0.5956361809386708  0.21439306622973223  0.35610875129835606  1.0000
  H   H2        1.0  0.46714256909749347  0.1405778838927918  0.33147897782793123  1.0000
  H   H3        1.0  0.2925334186729915  0.3568029095627865  0.5467076678604392  1.0000
  H   H4        1.0  0.1424846738359464  0.05763287340835888  0.4544024509483158  1.0000
  H   H5        1.0  0.2510510588334429  0.9132407422094349  0.4089228165724613  1.0000
  H   H6        1.0  0.3800966032111868  0.9865670049229079  0.4331575491191182  1.0000
  H   H7        1.0  0.4010999412238523  0.31664864269572385  0.6842613658835368  1.0000
  H   H8        1.0  0.5294576734798089  0.39203230780774745  0.70639992233643  1.0000
  C   C15       1.0  0.9019675060230266  0.9967206673801483  0.5546340093072581  1.0000
  C   C16       1.0  0.9055967447634945  0.005847448749400463  0.41791942322083875  1.0000
  C   C17       1.0  0.906574182900815  0.8933222424977603  0.34891450724882844  1.0000
  C   C18       1.0  0.9056060865217853  0.7705787880354342  0.4182366735144421  1.0000
  C   C19       1.0  0.9020461372588126  0.7594478803886852  0.5548980595297965  1.0000
  C   C20       1.0  0.9000497850646161  0.8731285664199501  0.6222930785372038  1.0000
  C   C21       1.0  0.9111954058770401  0.9027783603498523  0.20460045892601003  1.0000
  O   O1        1.0  0.9473447767310523  0.8153013343877722  0.1491251295019993  1.0000
  C   C22       1.0  0.8747947742093749  0.011391586887893544  0.12322503924244722  1.0000
  C   C23       1.0  0.9069515221809841  0.054474866295922686  0.002785662064349162  1.0000
  C   C24       1.0  0.8725327202806541  0.1559850668981777  0.9245024572822369  1.0000
  C   C25       1.0  0.9061465752653094  0.20018266525458836  0.8018555887203412  1.0000
  N   N3        1.0  0.9331706199105052  0.23570798118124323  0.7032652422170679  1.0000
  C   C26       1.0  0.8053961374516541  0.21435776873972795  0.9656592468978863  1.0000
  C   C27       1.0  0.7726049393531281  0.17109339591436168  0.08436843810418251  1.0000
  C   C28       1.0  0.8068080378467397  0.06989088936421606  0.1626434135284323  1.0000
  H   H9        1.0  0.9085090248682807  0.1006168620263903  0.3649914236912841  1.0000
  H   H10       1.0  0.9069164485367471  0.6836628280366948  0.36520656774665544  1.0000
  H   H11       1.0  0.8972523182498304  0.8652885738090961  0.727690273645744  1.0000
  H   H12       1.0  0.9013108885880339  0.42768152489020167  0.6074327412966791  1.0000
  H   H13       1.0  0.9590458153731151  0.009905013525018476  0.970444516626381  1.0000
  H   H14       1.0  0.7783045743074107  0.2928394275403263  0.9058192316138216  1.0000
  H   H15       1.0  0.7203821918989747  0.21568516676576593  0.11555849436521794  1.0000
  H   H16       1.0  0.77968052762738  0.03649447047351973  0.25319577778829006  1.0000
  C   C29       1.0  0.9019481782006393  0.3779665289681089  0.17339997658035047  1.0000
  C   C30       1.0  0.830629178900051  0.32266595283424215  0.17771466371370975  1.0000
  C   C31       1.0  0.7943341588532158  0.2961125709110308  0.06272457211628768  1.0000
  C   C32       1.0  0.8308407576113302  0.32281948323515813  0.9424573133505599  1.0000
  C   C33       1.0  0.9020654739925238  0.3782020244612585  0.9361321128025472  1.0000
  C   C34       1.0  0.9371465422529494  0.40571454055160183  0.052149192943815814  1.0000
  C   C35       1.0  0.7194049856313391  0.23636603664195044  0.069605830296811  1.0000
  O   O2        1.0  0.7040480267120673  0.157887171322717  0.1657003936654611  1.0000
  C   C36       1.0  0.6619004821813693  0.2656426819611168  0.9675447990890231  1.0000
  C   C37       1.0  0.6561360268930662  0.38928859862532383  0.8998189594077188  1.0000
  C   C38       1.0  0.6011501031737085  0.4160742588622772  0.8049393368681539  1.0000
  C   C39       1.0  0.5506048680164098  0.32080539360798954  0.7765989065105847  1.0000
  C   C40       1.0  0.5555792812818496  0.19739047523915  0.8452546325617042  1.0000
  C   C41       1.0  0.6105584595573614  0.17047793541765824  0.9402067149495905  1.0000
  O   O3        1.0  0.49652698457077055  0.3525280051433301  0.680418717860523  1.0000
  H   H17       1.0  0.03665527634444074  0.48182119432311515  0.37256422643650444  1.0000
  H   H18       1.0  0.8028112309214696  0.3012434001054216  0.2706493885434292  1.0000
  H   H19       1.0  0.8039824802199018  0.29901231039858533  0.853788976942946  1.0000
  H   H20       1.0  0.9920914123214014  0.44843394805200987  0.04800254062370812  1.0000
  H   H21       1.0  0.9295147644782664  0.39895913360151675  0.606267448486325  1.0000
  H   H22       1.0  0.69358966629595  0.4657643278004664  0.9211203073135987  1.0000
  H   H23       1.0  0.5975804867368704  0.5117029458218572  0.7534613193865757  1.0000
  H   H24       1.0  0.5172627582848038  0.12164143118585667  0.8260629716888294  1.0000
  H   H25       1.0  0.6133981522082941  0.07470197416445033  0.9915821971449854  1.0000
  H   H26       1.0  0.4064599727110694  0.3157304443023048  0.5642712019682121  1.0000
  H   H27       1.0  0.4050545870643272  0.23488886657943397  0.7258967800085148  1.0000
  H   H28       1.0  0.46973855637628414  0.1787161993941178  0.6027228249381555  1.0000
  Zn  Zn1       1.0  0.8196882772784889  0.3819872415414438  0.55597690099018  1.0000
  Zn  Zn2       1.0  0.9843181703440812  0.37418104209739944  0.5535546807232409  1.0000
  C   C42       1.0  0.9020410830213029  0.3729839271851092  0.7919576272361568  1.0000
  C   C43       1.0  0.9019671625431044  0.3831859098678995  0.31757405605947714  1.0000
  C   C44       1.0  0.9020266097008371  0.6152748027184103  0.5496730759130697  1.0000
  C   C45       1.0  0.9019815795366912  0.14089347671836427  0.5598586769070368  1.0000
  O   O4        1.0  0.9644497197202775  0.38196950403398255  0.36504097224988846  1.0000
  O   O5        1.0  0.9645088052460061  0.3682746284270111  0.7426519277270855  1.0000
  O   O6        1.0  0.9644962758554582  0.5639276149581738  0.54700545118949  1.0000
  O   O7        1.0  0.9644621929197794  0.18631652942669552  0.5606873522433014  1.0000
  O   O8        1.0  0.8395441985226868  0.5698517568774317  0.5488442302898736  1.0000
  O   O9        1.0  0.8395567280600105  0.37420033062778746  0.7444906381227511  1.0000
  O   O10       1.0  0.8394976423394886  0.3878951604943497  0.3668781212401524  1.0000
  O   O11       1.0  0.8395101155499333  0.1922421766284712  0.5625245985975031  1.0000
