data_image0
_chemical_formula_structural       NC6NC2H4C9H8C6NCOH5Zn2C4O8
_chemical_formula_sum              "N3 C28 H17 O9 Zn2"
_cell_length_a       14.927258858638513
_cell_length_b       9.275152443626249
_cell_length_c       9.27373355559583
_cell_angle_alpha    85.97646638804791
_cell_angle_beta     90.01105750145625
_cell_angle_gamma    90.5735452640029

_space_group_name_H-M_alt    "P 1"
_space_group_IT_number       1

loop_
  _space_group_symop_operation_xyz
  'x, y, z'

loop_
  _atom_site_type_symbol
  _atom_site_label
  _atom_site_symmetry_multiplicity
  _atom_site_fract_x
  _atom_site_fract_y
  _atom_site_fract_z
  _atom_site_occupancy
  N   N1        1.0  0.8530905656141736  0.5616629653267157  0.4048780039700208  1.0000
  C   C1        1.0  0.7755640742711126  0.5616629369217767  0.40487801465425066  1.0000
  C   C2        1.0  0.6791315674335896  0.5616630515207988  0.40487796441041035  1.0000
  C   C3        1.0  0.631908157161959  0.5366046725115038  0.2783070504705929  1.0000
  C   C4        1.0  0.5381968459529997  0.5366046967225513  0.27830691695915255  1.0000
  C   C5        1.0  0.4913155023407617  0.5616628741150484  0.40487798364694594  1.0000
  C   C6        1.0  0.3948829285117203  0.5616629887169713  0.4048779333971726  1.0000
  N   N2        1.0  0.31735643716865886  0.5616629603120324  0.404877944081403  1.0000
  C   C7        1.0  0.5385388456208741  0.586721253127245  0.5314488975808302  1.0000
  C   C8        1.0  0.6322501568298328  0.5867212289161974  0.5314490310922713  1.0000
  H   H1        1.0  0.6674712785621935  0.5171078394528315  0.17982761508885245  1.0000
  H   H2        1.0  0.5023676242791301  0.5171080369994434  0.17982760947384865  1.0000
  H   H3        1.0  0.5029757911644609  0.6062180770255885  0.6299284410548606  1.0000
  H   H4        1.0  0.6680793791275489  0.6062179871800111  0.6299284482420102  1.0000
  C   C9        1.0  0.08258538973545693  0.13804646109092847  0.40634934009005436  1.0000
  C   C10       1.0  0.050245659077999855  0.21947097451823128  0.2839122597131285  1.0000
  C   C11       1.0  0.026232722127603098  0.15269012371846435  0.15918285101276397  1.0000
  C   C12       1.0  0.03418237153860981  0.003297044317480015  0.15442091720093631  1.0000
  C   C13       1.0  0.06477010784106697  0.9201732716440802  0.2758232457476828  1.0000
  C   C14       1.0  0.08787014152841621  0.9852685107104233  0.4034190949403864  1.0000
  C   C15       1.0  0.009887189470281887  0.9347603937004564  0.02525577001579515  1.0000
  C   C16       1.0  0.9895456498366717  0.8773435257610999  0.9171002109071149  1.0000
  C   C17       1.0  0.9648652118440175  0.8076663108424422  0.7858724082752433  1.0000
  H   H5        1.0  0.21136391306452984  0.2227889361406625  0.6941739406431389  1.0000
  H   H6        1.0  0.04552657048695252  0.33598359226036795  0.28345892675251605  1.0000
  H   H7        1.0  0.002263609534737255  0.21792748917073143  0.06584338200064299  1.0000
  H   H8        1.0  0.06854113436363596  0.8038200650624722  0.27180282842292725  1.0000
  H   H9        1.0  0.17170166499942766  0.6920832702268097  0.6002814586010085  1.0000
  H   H10       1.0  0.9812446369671016  0.6910890738715338  0.7993363239892295  1.0000
  H   H11       1.0  0.8919481143042893  0.8200369942910627  0.766142483628339  1.0000
  H   H12       1.0  0.002679607450227997  0.8590130071942305  0.6925855595344244  1.0000
  C   C18       1.0  0.08514815065433282  0.5571124871704854  0.9816729500259784  1.0000
  C   C19       1.0  0.0027597789893467613  0.5488327631393974  0.05565306001833336  1.0000
  C   C20       1.0  0.921259026459538  0.5522434819917278  0.9806917897703555  1.0000
  C   C21       1.0  0.9221520160757551  0.5686230121575502  0.8292874043374678  1.0000
  C   C22       1.0  0.003179932396377258  0.5747501509979511  0.7541107469500674  1.0000
  C   C23       1.0  0.08530736998166022  0.5662024308451796  0.8280955439205009  1.0000
  N   N3        1.0  0.8386252324523353  0.5471839544658735  0.06072378570986347  1.0000
  C   C24       1.0  0.7575012201623259  0.4807555696148353  0.014171124275632606  1.0000
  O   O1        1.0  0.756553952200723  0.4044144087219639  0.9070843274420438  1.0000
  H   H13       1.0  0.29687576416980077  0.6572794009732765  0.07763992964576505  1.0000
  H   H14       1.0  0.860342753182102  0.5782276377255051  0.7686395812768819  1.0000
  H   H15       1.0  0.22857785931486518  0.6275693851846396  0.5427770410782289  1.0000
  H   H16       1.0  0.8385436603140208  0.5855401957739885  0.16401012451737884  1.0000
  H   H17       1.0  0.6963468000978799  0.4928536194381254  0.07455013068016857  1.0000
  Zn  Zn1       1.0  0.9870676528847763  0.5616591878849417  0.404886327497338  1.0000
  Zn  Zn2       1.0  0.1833792892994509  0.5616550487352499  0.40488148353290776  1.0000
  C   C25       1.0  0.0852394299960611  0.5587374394776554  0.6681234068171369  1.0000
  C   C26       1.0  0.08520966728531287  0.5645786187605177  0.141644539316641  1.0000
  C   C27       1.0  0.08686551372057187  0.8250638058374578  0.39823003081234143  1.0000
  C   C28       1.0  0.0835835057768815  0.2982505200760659  0.4115379981526134  1.0000
  O   O2        1.0  0.1597295165048472  0.5670764565542072  0.1953306495482019  1.0000
  O   O3        1.0  0.15971556360691452  0.5562353674546913  0.6144332090294793  1.0000
  O   O4        1.0  0.16102764277555748  0.771297292561235  0.39649239320224816  1.0000
  O   O5        1.0  0.15841737039238302  0.35201454060799153  0.41327135728314324  1.0000
  O   O6        1.0  0.012029504800325167  0.7712996960151015  0.39649645374116904  1.0000
  O   O7        1.0  0.010717436424084958  0.5562395032361087  0.61443718673129  1.0000
  O   O8        1.0  0.010731388742086347  0.5670805234581866  0.1953328947121451  1.0000
  O   O9        1.0  0.00941924258192506  0.3520185983545446  0.4132737105334436  1.0000
