data_image0
_chemical_formula_structural       NC6NCNCH5C9H6C6SCH6Zn2C4O8
_chemical_formula_sum              "N3 C28 H17 S1 Zn2 O8"
_cell_length_a       14.933214217465613
_cell_length_b       9.275152443626249
_cell_length_c       10.302812801239591
_cell_angle_alpha    85.3632325581603
_cell_angle_beta     89.96595459003231
_cell_angle_gamma    90.60755784757023

_space_group_name_H-M_alt    "P 1"
_space_group_IT_number       1

loop_
  _space_group_symop_operation_xyz
  'x, y, z'

loop_
  _atom_site_type_symbol
  _atom_site_label
  _atom_site_symmetry_multiplicity
  _atom_site_fract_x
  _atom_site_fract_y
  _atom_site_fract_z
  _atom_site_occupancy
  N   N1        1.0  0.85305623910957  0.5796803201208727  0.5622434297022202  1.0000
  C   C1        1.0  0.7755721773883483  0.580677390658672  0.561348213038519  1.0000
  C   C2        1.0  0.6791814643429583  0.5819204829224807  0.5602319889072567  1.0000
  C   C3        1.0  0.6307615294833269  0.48612016765197424  0.6462633702324614  1.0000
  C   C4        1.0  0.5372348389829341  0.48720346276344445  0.6452905673041803  1.0000
  C   C5        1.0  0.4912253881649709  0.5840321843564427  0.5583356811387352  1.0000
  C   C6        1.0  0.39463674676854843  0.581922640436747  0.5602301170625716  1.0000
  N   N2        1.0  0.3171401651687069  0.5801628147493794  0.5618101590344629  1.0000
  C   C7        1.0  0.539751609021641  0.6810421963762365  0.471218073368577  1.0000
  N   N3        1.0  0.49506557299777293  0.7816844355358301  0.3808387524874095  1.0000
  C   C8        1.0  0.6337526492580968  0.6789923921360281  0.4730589600430627  1.0000
  H   H1        1.0  0.6652895715005953  0.41058806185758384  0.7140932899339503  1.0000
  H   H2        1.0  0.5006858250483797  0.4123067448127222  0.7125497757704704  1.0000
  H   H3        1.0  0.5318630380076687  0.8527676561826073  0.3170039815999879  1.0000
  H   H4        1.0  0.4253573866039729  0.7870394609923707  0.3760298531093345  1.0000
  H   H5        1.0  0.6714214149561826  0.7531355258747151  0.40647634348801964  1.0000
  C   C9        1.0  0.08246083490824076  0.15628651317911335  0.5633547372410328  1.0000
  C   C10       1.0  0.050156810668686734  0.23899232971201753  0.45308786063768075  1.0000
  C   C11       1.0  0.026176747603271724  0.17352605393418008  0.34074817768228055  1.0000
  C   C12       1.0  0.034124176843569616  0.024192376808669376  0.33645098702788556  1.0000
  C   C13       1.0  0.06467708806975514  0.9397965930041096  0.4457873455312311  1.0000
  C   C14       1.0  0.08774406650441224  0.003545524223818043  0.560710104073862  1.0000
  C   C15       1.0  0.009862813660626694  0.9570176454581109  0.2201156465914642  1.0000
  C   C16       1.0  0.9895495913096618  0.9007411733099697  0.1227030373225111  1.0000
  C   C17       1.0  0.9649035111957098  0.8324476291516949  0.004509919797613282  1.0000
  H   H6        1.0  0.2111347423954111  0.2380717301446842  0.822520446291376  1.0000
  H   H7        1.0  0.0022345871947726504  0.23974092805122682  0.2566859807205364  1.0000
  H   H8        1.0  0.1715057015349973  0.7083332031418763  0.7379747125240201  1.0000
  H   H9        1.0  0.9812739837320896  0.7157428186568764  0.01662356166461043  1.0000
  H   H10       1.0  0.8920187050970289  0.8449544240171959  0.9868043189273001  1.0000
  H   H11       1.0  0.002720632755690114  0.8848354765401533  0.9204374756404171  1.0000
  C   C18       1.0  0.08510247399555593  0.5799160098348843  0.18078397667054413  1.0000
  C   C19       1.0  0.055799762180735346  0.7237482452980313  0.16916583888330594  1.0000
  C   C20       1.0  0.04098746765465088  0.7951016081543378  0.046410314762435956  1.0000
  C   C21       1.0  0.05579968050633968  0.7237480937781076  0.9340146697421111  1.0000
  C   C22       1.0  0.08510241585064553  0.5799160000526113  0.9432808803846531  1.0000
  C   C23       1.0  0.09958291298024484  0.5086901273506803  0.0672034678048794  1.0000
  S   S1        1.0  0.0037334992427988612  0.978975562312111  0.03306077521959238  1.0000
  C   C24       1.0  0.8856286122615168  0.92845016191408  0.0368401998252268  1.0000
  H   H12       1.0  0.044159504828755525  0.7808788184402577  0.2551177251343078  1.0000
  H   H13       1.0  0.04415932424846816  0.780878610443847  0.839767412968232  1.0000
  H   H14       1.0  0.12216909535457512  0.39773636839291737  0.07525867855259905  1.0000
  H   H15       1.0  0.8693493061515306  0.8642568745579736  0.9534090204582919  1.0000
  H   H16       1.0  0.8693496987732577  0.8642583328942582  0.12964370758298996  1.0000
  H   H17       1.0  0.8448045203408547  0.027980643046228156  0.029631580627911498  1.0000
  Zn  Zn1       1.0  0.9869808118737415  0.5798156867556508  0.5621259143230617  1.0000
  Zn  Zn2       1.0  0.18321550394317132  0.580015613241504  0.5619383728776939  1.0000
  C   C25       1.0  0.08506459457137859  0.574168930115693  0.7991705924801007  1.0000
  C   C26       1.0  0.08513387547256684  0.58566419228815  0.32489381441732545  1.0000
  C   C27       1.0  0.08674080854058941  0.8433955032033446  0.5560364896468026  1.0000
  C   C28       1.0  0.08345758373434231  0.31643588590544813  0.568027991941405  1.0000
  O   O1        1.0  0.15961441780459418  0.587662912228518  0.3731872410684172  1.0000
  O   O2        1.0  0.15952163617208903  0.572320861449531  0.750734455880417  1.0000
  O   O3        1.0  0.16087419625895066  0.789724723029726  0.5544019439057682  1.0000
  O   O4        1.0  0.15826179082048275  0.3702590608999367  0.5695196557309365  1.0000
  O   O5        1.0  0.011934458031169989  0.7895722390305635  0.5545446315269839  1.0000
  O   O6        1.0  0.010581908748062084  0.572170110678764  0.7508770688680158  1.0000
  O   O7        1.0  0.010674690126758256  0.5875121111862809  0.37332829330535344  1.0000
  O   O8        1.0  0.009322063074636674  0.3701082495394314  0.5696608053371675  1.0000
