data_image0
_chemical_formula_structural       NC12NC2H8C7NH5C7OH5Zn2C4O8
_chemical_formula_sum              "N3 C32 H18 O9 Zn2"
_cell_length_a       19.240039667572717
_cell_length_b       9.275154477615127
_cell_length_c       9.274074313596557
_cell_angle_alpha    86.3499061385644
_cell_angle_beta     90.2336027468708
_cell_angle_gamma    89.43370810513201

_space_group_name_H-M_alt    "P 1"
_space_group_IT_number       1

loop_
  _space_group_symop_operation_xyz
  'x, y, z'

loop_
  _atom_site_type_symbol
  _atom_site_label
  _atom_site_symmetry_multiplicity
  _atom_site_fract_x
  _atom_site_fract_y
  _atom_site_fract_z
  _atom_site_occupancy
  N   N1        1.0  0.6439209841759764  0.5623507211830533  0.41640329756569383  1.0000
  C   C1        1.0  0.5837726147407182  0.5623508135298381  0.4164032070012862  1.0000
  C   C2        1.0  0.5089545766878013  0.5623509422497539  0.4164030551353306  1.0000
  C   C3        1.0  0.4730415017833592  0.4919048616797197  0.5308877486490009  1.0000
  C   C4        1.0  0.4003715235268647  0.49178269988167456  0.5309833048623278  1.0000
  C   C5        1.0  0.3626223407768281  0.5623510425411951  0.4164028028561116  1.0000
  C   C6        1.0  0.3992488358407523  0.6329195949140081  0.3018225175873259  1.0000
  C   C7        1.0  0.471920295652506  0.6327971729909985  0.3019182087122103  1.0000
  C   C8        1.0  0.2854172505494481  0.5623509541716031  0.41640269661161444  1.0000
  C   C9        1.0  0.24891673292477587  0.43706139449822634  0.4623700286556449  1.0000
  C   C10       1.0  0.1762452855364245  0.4371790844352047  0.4622691464504627  1.0000
  C   C11       1.0  0.13908496443811572  0.5623508114231379  0.4164027636391703  1.0000
  C   C12       1.0  0.0642669284133162  0.5623506878477889  0.41640303910761745  1.0000
  N   N2        1.0  0.004118612220593298  0.562350644791582  0.4164032702380389  1.0000
  C   C13       1.0  0.1748721536833502  0.6875226220214998  0.3705363224640882  1.0000
  C   C14       1.0  0.2475420895995741  0.6876405101647025  0.3704352606043506  1.0000
  H   H1        1.0  0.5011918688642137  0.4373713416640792  0.6202760178163742  1.0000
  H   H2        1.0  0.37371187838667824  0.4381473683918751  0.621613144568349  1.0000
  H   H3        1.0  0.371721949941674  0.6865549558849962  0.2111926215678288  1.0000
  H   H4        1.0  0.4991997011514737  0.6873305846926387  0.2125302451880744  1.0000
  H   H5        1.0  0.27654720709785025  0.3384178267047411  0.4965655483621943  1.0000
  H   H6        1.0  0.1490650934163392  0.33954504555725007  0.4976150791029344  1.0000
  H   H7        1.0  0.1466225225162082  0.7851566338162806  0.33519040585139237  1.0000
  H   H8        1.0  0.27409809373024197  0.786284165375091  0.33623969155988775  1.0000
  C   C15       1.0  0.8260311871086446  0.13894503773788203  0.41473538807726995  1.0000
  C   C16       1.0  0.8067095242011321  0.22087729687319757  0.28765409224782545  1.0000
  C   C17       1.0  0.781747466888601  0.15365809333129815  0.1673044832869426  1.0000
  C   C18       1.0  0.775697143993391  0.003589709330312548  0.1726187925699299  1.0000
  C   C19       1.0  0.7956574199818593  0.920421354634686  0.2968033712744383  1.0000
  C   C20       1.0  0.8220151629801926  0.9857454065389913  0.41808360554757434  1.0000
  C   C21       1.0  0.7614981887259906  0.2391571373644053  0.038691526577050224  1.0000
  N   N3        1.0  0.7452233806384799  0.30788278594746504  0.935319653294824  1.0000
  H   H9        1.0  0.8401867230107988  0.219087243660606  0.7685277717741048  1.0000
  H   H10       1.0  0.8095397645484051  0.3377947381520781  0.2833775072869571  1.0000
  H   H11       1.0  0.7561418945621424  0.9505556311456913  0.08012255959236805  1.0000
  H   H12       1.0  0.7920075160753575  0.8039525145214517  0.296676527656623  1.0000
  H   H13       1.0  0.8344936390432206  0.6893009289526489  0.6551345656090863  1.0000
  C   C22       1.0  0.8232106763346646  0.5581925275216988  0.9931518785156751  1.0000
  C   C23       1.0  0.7624082856307837  0.6007596932501271  0.06320904856379794  1.0000
  C   C24       1.0  0.704973494794413  0.6549143127970423  0.9842409491204989  1.0000
  C   C25       1.0  0.706996765019775  0.6679422058772985  0.8330124582036604  1.0000
  C   C26       1.0  0.76686898082663  0.6236343137533215  0.7618085197079473  1.0000
  C   C27       1.0  0.8248356465185452  0.5664978485715251  0.8396671226801913  1.0000
  C   C28       1.0  0.6469353826228637  0.7260618530752045  0.7478515610784197  1.0000
  O   O1        1.0  0.5922802716507137  0.7662349246035327  0.8087166883553644  1.0000
  H   H14       1.0  0.99320675795475  0.5214580516267526  0.09979517437181666  1.0000
  H   H15       1.0  0.6592138432100969  0.6879211402125404  0.04177311589109213  1.0000
  H   H16       1.0  0.7676412141372172  0.6306216431309666  0.6446794838583615  1.0000
  H   H17       1.0  0.9391298671165351  0.536530360794844  0.5620827893990814  1.0000
  H   H18       1.0  0.6493619063397681  0.7348136218087122  0.6310166469993925  1.0000
  Zn  Zn1       1.0  0.7478662823140659  0.562346931300483  0.416411585396683  1.0000
  Zn  Zn2       1.0  0.9001734112126324  0.5623427889264149  0.41640669896299615  1.0000
  C   C29       1.0  0.824554201009188  0.5591840478512835  0.6796348623551438  1.0000
  C   C30       1.0  0.8234871473502826  0.565507492956538  0.15318357061135401  1.0000
  C   C31       1.0  0.822759670881571  0.8256257400589024  0.4117070849815226  1.0000
  C   C32       1.0  0.8252816338691703  0.29906406921565276  0.4211114179809683  1.0000
  O   O2        1.0  0.8813797250425537  0.5679545999162704  0.20688978913900002  1.0000
  O   O3        1.0  0.8822592143659691  0.556732705141245  0.6259245159282509  1.0000
  O   O4        1.0  0.8808093323015054  0.7718877559393291  0.40957094601827815  1.0000
  O   O5        1.0  0.8828295548785412  0.3527995583735448  0.42324325102134513  1.0000
  O   O6        1.0  0.7652100866731868  0.7718901618562619  0.4095750333324263  1.0000
  O   O7        1.0  0.76665996037141  0.5567368425943517  0.6259285332404985  1.0000
  O   O8        1.0  0.7657804680059841  0.5679586701231096  0.2068920733512496  1.0000
  O   O9        1.0  0.7672302980954779  0.3528036193279339  0.42324564325531533  1.0000
