data_image0
_chemical_formula_structural       NC6NC3H6C10H5C6FH3Zn2C4O8
_chemical_formula_sum              "N2 C29 H14 F1 Zn2 O8"
_cell_length_a       14.934028789175542
_cell_length_b       9.275150299802176
_cell_length_c       9.275646106892307
_cell_angle_alpha    84.62811981021342
_cell_angle_beta     89.99728415196485
_cell_angle_gamma    89.44625895822752

_space_group_name_H-M_alt    "P 1"
_space_group_IT_number       1

loop_
  _space_group_symop_operation_xyz
  'x, y, z'

loop_
  _atom_site_type_symbol
  _atom_site_label
  _atom_site_symmetry_multiplicity
  _atom_site_fract_x
  _atom_site_fract_y
  _atom_site_fract_z
  _atom_site_occupancy
  N   N1        1.0  0.8338704011538667  0.5952923882738193  0.39838251971619143  1.0000
  C   C1        1.0  0.7563902709702325  0.5942008535863057  0.3977090161589292  1.0000
  C   C2        1.0  0.6600011109797924  0.592837963680033  0.39686827401663516  1.0000
  C   C3        1.0  0.6116639826125253  0.6989818820039879  0.4622386865732244  1.0000
  C   C4        1.0  0.5181581810269809  0.6978875663271695  0.4615646041559625  1.0000
  C   C5        1.0  0.47207666560763845  0.5907034983637831  0.39555367030936917  1.0000
  C   C6        1.0  0.37541844985218886  0.5930032269585856  0.3969712978052857  1.0000
  N   N2        1.0  0.2979284513959709  0.5948283480357301  0.39809669273431086  1.0000
  C   C7        1.0  0.520416172068605  0.48309110806901856  0.3292783167456715  1.0000
  C   C8        1.0  0.4727307195742101  0.3665597330667548  0.2575119426424046  1.0000
  C   C9        1.0  0.6145469972579197  0.4853020711619475  0.3306400261770761  1.0000
  H   H1        1.0  0.646255554314037  0.7826134374711167  0.5137450981017313  1.0000
  H   H2        1.0  0.4816732939694405  0.7808750390035218  0.5126742017526615  1.0000
  H   H3        1.0  0.4296793202625774  0.4166033031055165  0.16850888338602668  1.0000
  H   H4        1.0  0.4303623084509858  0.3028233530099915  0.33808878939956677  1.0000
  H   H5        1.0  0.5205981296113706  0.2910807609541697  0.21102051400670652  1.0000
  H   H6        1.0  0.6525189683971859  0.40341857620769134  0.2802106242764748  1.0000
  C   C10       1.0  0.06826710986015949  0.17132669372119969  0.40065460066855874  1.0000
  C   C11       1.0  0.11532374158571618  0.254496002917717  0.2914230060637577  1.0000
  C   C12       1.0  0.15469933805155422  0.18953053931365768  0.17664660861931236  1.0000
  C   C13       1.0  0.1474177624295858  0.04044523495616836  0.16962349987230962  1.0000
  C   C14       1.0  0.10231585190241144  0.9558370469087748  0.2782051714150018  1.0000
  C   C15       1.0  0.06354038442806573  0.018782748221616963  0.39583713945025556  1.0000
  C   C16       1.0  0.20176608371007354  0.2764685961797928  0.06491820127246761  1.0000
  C   C17       1.0  0.24117284614123924  0.3492812115174351  0.9713782357175069  1.0000
  C   C18       1.0  0.28731633620787034  0.4345496841456777  0.8618470155996429  1.0000
  C   C19       1.0  0.32671550047405384  0.5073566338042704  0.7683249810257946  1.0000
  H   H7        1.0  0.11962674768161902  0.3709162896222819  0.2936502334393225  1.0000
  H   H8        1.0  0.17740722778790705  0.9892168060714386  0.08081097852061969  1.0000
  H   H9        1.0  0.09957548983577769  0.8399061695493681  0.2719750770744842  1.0000
  H   H10       1.0  0.00546016724555476  0.8847134995339808  0.7388236616579025  1.0000
  H   H11       1.0  0.3613112533360143  0.5712873140765395  0.6862049102221448  1.0000
  C   C20       1.0  0.06577435767646243  0.5995711657907241  0.9743798148901922  1.0000
  C   C21       1.0  0.1476785602805861  0.6145702623222544  0.04630443616177481  1.0000
  C   C22       1.0  0.2285484166273074  0.6160216467888935  0.970800090596102  1.0000
  C   C23       1.0  0.22893513378545682  0.6023545980547993  0.8225013349984951  1.0000
  C   C24       1.0  0.14842067498359235  0.5897600252904992  0.7486302136386809  1.0000
  C   C25       1.0  0.0660331298021053  0.5905383239252013  0.8221119165643197  1.0000
  F   F1        1.0  0.30689148325361404  0.6289706786300429  0.042112947641358416  1.0000
  H   H12       1.0  0.8587941248153056  0.48254904007359034  0.0883270217563128  1.0000
  H   H13       1.0  0.2917238005176521  0.6028954584142794  0.7641438639355469  1.0000
  H   H14       1.0  0.9258717729159047  0.5176884746343022  0.5477676693368219  1.0000
  Zn  Zn1       1.0  0.9677875678707238  0.595154520857034  0.3983083871203213  1.0000
  Zn  Zn2       1.0  0.16401138427277584  0.5949542698340604  0.39818269340173806  1.0000
  C   C26       1.0  0.06601430723720703  0.5864973087857467  0.6619050784193139  1.0000
  C   C27       1.0  0.06578677755283507  0.6036132988560216  0.13458613205092496  1.0000
  C   C28       1.0  0.06442749367614108  0.8586568290828274  0.3909958834173688  1.0000
  C   C29       1.0  0.0673735338492658  0.3314520441772588  0.40549541390489807  1.0000
  O   O1        1.0  0.1402568965835107  0.6048875862936283  0.18830517126710133  1.0000
  O   O2        1.0  0.14047353049022482  0.585069951326775  0.60809023126224  1.0000
  O   O3        1.0  0.13919115509370703  0.8048421909258789  0.3893291316847154  1.0000
  O   O4        1.0  0.14153920493151873  0.38511535823826737  0.4070661626034051  1.0000
  O   O5        1.0  0.9902596802504116  0.8049934325228147  0.3894249179539462  1.0000
  O   O6        1.0  0.9915420459499951  0.5852229273753808  0.6081859307147346  1.0000
  O   O7        1.0  0.9913254118534879  0.6050405305500868  0.18839913561292287  1.0000
  O   O8        1.0  0.9926077202884362  0.38526829102097016  0.40716023522573996  1.0000
