data_image0
_chemical_formula_structural       NC5NC4H6C6BrH5C7OH5Zn2C4O8
_chemical_formula_sum              "N2 C26 H16 Br1 O9 Zn2"
_cell_length_a       13.854160002989762
_cell_length_b       9.276564384272257
_cell_length_c       9.274074313596559
_cell_angle_alpha    86.07032153844699
_cell_angle_beta     90.23361037791132
_cell_angle_gamma    90.58592978602583

_space_group_name_H-M_alt    "P 1"
_space_group_IT_number       1

loop_
  _space_group_symop_operation_xyz
  'x, y, z'

loop_
  _atom_site_type_symbol
  _atom_site_label
  _atom_site_symmetry_multiplicity
  _atom_site_fract_x
  _atom_site_fract_y
  _atom_site_fract_z
  _atom_site_occupancy
  N   N1        1.0  0.9152658828554404  0.5626152031142908  0.4088891144369725  1.0000
  C   C1        1.0  0.8429406712306133  0.5872456624152094  0.3498336946184306  1.0000
  C   C2        1.0  0.7529670880969794  0.6178866153725326  0.27636649138799096  1.0000
  C   C3        1.0  0.6653946131220936  0.5891095498095513  0.3480997236710209  1.0000
  C   C4        1.0  0.5778246757590164  0.6178866294733829  0.27636646820813393  1.0000
  C   C5        1.0  0.4878325291140822  0.5872455160077588  0.3498337863452232  1.0000
  N   N2        1.0  0.4154923118227714  0.5626151396221916  0.40888911440365683  1.0000
  C   C6        1.0  0.5778640512408089  0.676047296389703  0.13291846206712687  1.0000
  C   C7        1.0  0.6654182206638891  0.7069732793408199  0.06108000594432506  1.0000
  C   C8        1.0  0.6653944763513933  0.7652623687466087  0.9061451614446292  1.0000
  C   C9        1.0  0.7529411400149937  0.676047294178977  0.13291837180857868  1.0000
  H   H1        1.0  0.6653886805986629  0.5439830409221309  0.45912593986395206  1.0000
  H   H2        1.0  0.5099846058491861  0.6972859592423302  0.07726203109764507  1.0000
  H   H3        1.0  0.7306487599623688  0.8331835757091786  0.8823061748426007  1.0000
  H   H4        1.0  0.6009402824985145  0.8331835782242691  0.8823062399124755  1.0000
  H   H5        1.0  0.6645748681887494  0.6740442551740541  0.8346817341264126  1.0000
  H   H6        1.0  0.8208075654622236  0.6972860708779058  0.07726194559440103  1.0000
  C   C10       1.0  0.1624766537253905  0.1391378198909179  0.40925769028324055  1.0000
  C   C11       1.0  0.14973861491650875  0.22134441555324605  0.27752942253529556  1.0000
  C   C12       1.0  0.145986961939295  0.15507492676920134  0.14703156316066068  1.0000
  C   C13       1.0  0.15494496900716137  0.005655523053518458  0.14578408638247886  1.0000
  C   C14       1.0  0.16597700768833373  0.9217360508411966  0.2755204001930705  1.0000
  C   C15       1.0  0.1682907468579351  0.9860815099670093  0.4085329992163176  1.0000
  Br  Br1       1.0  0.1505207556372412  0.91554051465032  0.9667182227026145  1.0000
  H   H7        1.0  0.13482796547312478  0.40398965468704084  0.6435744169658003  1.0000
  H   H8        1.0  0.14496837212934616  0.33797659519591283  0.2750620039431147  1.0000
  H   H9        1.0  0.13703231798216509  0.22030996911963552  0.04663848697850371  1.0000
  H   H10       1.0  0.1704343006624045  0.8054655742322048  0.2724130410015666  1.0000
  H   H11       1.0  0.22216534337629237  0.6903516817115065  0.6330070577609008  1.0000
  C   C16       1.0  0.16419947595596943  0.5584562934992501  0.9856577452099957  1.0000
  C   C17       1.0  0.08033245098503783  0.6010306704031938  0.05551016490744609  1.0000
  C   C18       1.0  0.0012980758726035561  0.6551944627968482  0.9762815844335911  1.0000
  C   C19       1.0  0.004283157814444657  0.6682245615213893  0.8249904344470576  1.0000
  C   C20       1.0  0.08683498067799711  0.6239091635578553  0.7539996183297464  1.0000
  C   C21       1.0  0.1665678873427352  0.5667630206316632  0.8321330441231178  1.0000
  C   C22       1.0  0.9216544280004709  0.7263540530675029  0.739549985148552  1.0000
  O   O1        1.0  0.8462922650687054  0.7665339300136829  0.8002218785624486  1.0000
  H   H12       1.0  0.39978829285532197  0.5217155867126171  0.09247776887479886  1.0000
  H   H13       1.0  0.9381931281971608  0.6882068817074847  0.03365498698319036  1.0000
  H   H14       1.0  0.08800141916484126  0.6308976759229635  0.6368369760711454  1.0000
  H   H15       1.0  0.3248914745457874  0.5367904513994775  0.5546928761447854  1.0000
  H   H16       1.0  0.9251420069192203  0.7351073034192563  0.622672978785062  1.0000
  Zn  Zn1       1.0  0.05962042713183235  0.5626114056783942  0.4088974496908546  1.0000
  Zn  Zn2       1.0  0.27113772083092913  0.562607252475587  0.40889262595869824  1.0000
  C   C23       1.0  0.16607864129665217  0.5594479816158038  0.6721359605586275  1.0000
  C   C24       1.0  0.16468182931498626  0.5657724974272376  0.14565425494184783  1.0000
  C   C25       1.0  0.16717071798926297  0.8259347857223385  0.40292669074132503  1.0000
  C   C26       1.0  0.16358966876749803  0.2992839614942706  0.4148636030832046  1.0000
  O   O2        1.0  0.24511337894722102  0.568220014862117  0.19934871999564546  1.0000
  O   O3        1.0  0.24618381477595774  0.5569962200270036  0.618437420445697  1.0000
  O   O4        1.0  0.24706460263552874  0.7721876992565249  0.40104902910972595  1.0000
  O   O5        1.0  0.24423251867957663  0.35302854488952473  0.4167370032594593  1.0000
  O   O6        1.0  0.08652555710270347  0.7721901132673699  0.4010530723841573  1.0000
  O   O7        1.0  0.08564478091752736  0.5570003658671929  0.6184413853901387  1.0000
  O   O8        1.0  0.08457433995956842  0.5682240934446534  0.1993509521635198  1.0000
  O   O9        1.0  0.08369347991951566  0.3530326142180447  0.41673934349355507  1.0000
