data_image0
_chemical_formula_structural       NC9NC4H8C7F3H5C7F3H5Zn2C4O8
_chemical_formula_sum              "N2 C31 H18 F6 Zn2 O8"
_cell_length_a       16.32274767691083
_cell_length_b       9.272718291674593
_cell_length_c       9.272721663655245
_cell_angle_alpha    86.31122681088247
_cell_angle_beta     89.98655041730063
_cell_angle_gamma    89.10298441660798

_space_group_name_H-M_alt    "P 1"
_space_group_IT_number       1

loop_
  _space_group_symop_operation_xyz
  'x, y, z'

loop_
  _atom_site_type_symbol
  _atom_site_label
  _atom_site_symmetry_multiplicity
  _atom_site_fract_x
  _atom_site_fract_y
  _atom_site_fract_z
  _atom_site_occupancy
  N   N1        1.0  0.7567685195250289  0.5589608848278143  0.4096372894351912  1.0000
  C   C1        1.0  0.7043544234219515  0.5059604294897342  0.3489562983859187  1.0000
  C   C2        1.0  0.639203227071713  0.4401334512598458  0.27359002236359764  1.0000
  C   C3        1.0  0.6506225107466199  0.3500938658623432  0.17049760310056583  1.0000
  C   C4        1.0  0.5711917840515608  0.30615409221607726  0.12019190330837848  1.0000
  C   C5        1.0  0.5123540980016227  0.3704589834641157  0.19382145762273925  1.0000
  C   C6        1.0  0.4223914344239918  0.35346380012008893  0.17436574575214414  1.0000
  C   C7        1.0  0.36690659753505445  0.4284152589800401  0.2601775377058222  1.0000
  C   C8        1.0  0.2821765630371962  0.4138903569349356  0.24354945537810946  1.0000
  C   C9        1.0  0.22628321132365323  0.49114595682709994  0.3319984074126694  1.0000
  N   N2        1.0  0.1813638769838511  0.5532467441214836  0.4030963871168838  1.0000
  C   C10       1.0  0.2518781510050803  0.32429278029761144  0.1409714934420523  1.0000
  C   C11       1.0  0.306041218577438  0.24944060219325162  0.05527374440150923  1.0000
  C   C12       1.0  0.3906118765008388  0.26357426956210417  0.07145376917034785  1.0000
  C   C13       1.0  0.5502471056947499  0.46422257794670535  0.30117485794218823  1.0000
  H   H1        1.0  0.7094781388689311  0.31508170326779494  0.13040731584375131  1.0000
  H   H2        1.0  0.5627874813769603  0.23256485016836836  0.03593439242958251  1.0000
  H   H3        1.0  0.3891226040132678  0.4983612727713887  0.3402570482920666  1.0000
  H   H4        1.0  0.1864686824564708  0.31232727142614536  0.12727365195120433  1.0000
  H   H5        1.0  0.28243010558197124  0.18012852454665887  0.9759202958488311  1.0000
  H   H6        1.0  0.4303044696557492  0.20369734769080816  0.002901524127774556  1.0000
  H   H7        1.0  0.5342069047189332  0.4262631478898615  0.4135773100616422  1.0000
  H   H8        1.0  0.5328594578628114  0.5796273235085174  0.27744485108830563  1.0000
  C   C14       1.0  0.9708381072804142  0.1326795324517902  0.4031541849565549  1.0000
  C   C15       1.0  0.9203897960281209  0.2141163540600162  0.3042783163860385  1.0000
  C   C16       1.0  0.8642024357431455  0.14684943539854212  0.21686859342674136  1.0000
  C   C17       1.0  0.8606196648876902  0.9956559082159391  0.22535415024479646  1.0000
  C   C18       1.0  0.9111133192809484  0.9132420412299069  0.32110901282557247  1.0000
  C   C19       1.0  0.9673022360484341  0.979516913851948  0.4095918080522867  1.0000
  C   C20       1.0  0.8122171554512083  0.2358532030549485  0.1088426846395576  1.0000
  F   F1        1.0  0.7914322656164221  0.36784388669215556  0.16156921747175979  1.0000
  F   F2        1.0  0.7405471931194183  0.165249596669931  0.07981992874010846  1.0000
  F   F3        1.0  0.855769890212202  0.25934609175132173  0.9818599775670106  1.0000
  H   H9        1.0  0.06970240436305913  0.21177452280929485  0.7128302482288449  1.0000
  H   H10       1.0  0.923625830704651  0.3310042734940701  0.29751705204565915  1.0000
  H   H11       1.0  0.8193153337593337  0.9407331697643723  0.15664854698132413  1.0000
  H   H12       1.0  0.9077793699049007  0.7965286198651211  0.32310048440430433  1.0000
  H   H13       1.0  0.1440650499973668  0.8621904458691081  0.5804242837795148  1.0000
  C   C21       1.0  0.9669122160864233  0.5537887307088001  0.9829453636678029  1.0000
  C   C22       1.0  0.002273905080951264  0.4353804476492989  0.06423397935027819  1.0000
  C   C23       1.0  0.044780651380412095  0.3254522482088238  0.9968498298477283  1.0000
  C   C24       1.0  0.04942359285412243  0.332029182632007  0.8456785344543473  1.0000
  C   C25       1.0  0.013588880900600838  0.4474419419932277  0.7634062754541895  1.0000
  C   C26       1.0  0.9712281602810283  0.5584077437382853  0.8298005605163117  1.0000
  C   C27       1.0  0.08037599252929417  0.19750537029555626  0.08568798466422334  1.0000
  F   F4        1.0  0.10779229083023023  0.23904106146628812  0.2178144637369859  1.0000
  F   F5        1.0  0.14593200833925035  0.13698545981400234  0.015108628787105841  1.0000
  F   F6        1.0  0.020659853287638308  0.09452680198215548  0.10886130892830437  1.0000
  H   H14       1.0  0.9135455592076552  0.8978445035724594  0.06257495093327847  1.0000
  H   H15       1.0  0.99820440697633  0.43031287333502477  0.18110369126785164  1.0000
  H   H16       1.0  0.08005945896188904  0.2469195131430473  0.7906602791790811  1.0000
  H   H17       1.0  0.0170977108688668  0.44785585546903667  0.646701080489235  1.0000
  H   H18       1.0  0.8231873743932128  0.8035849691111915  0.7126234116253363  1.0000
  Zn  Zn1       1.0  0.8792976327271607  0.5573080827222577  0.4077580240121921  1.0000
  Zn  Zn2       1.0  0.05883487955925348  0.5548877784910438  0.4049873750988017  1.0000
  C   C28       1.0  0.9704344941525647  0.5517904541572862  0.6696831740033014  1.0000
  C   C29       1.0  0.9676999717999463  0.5604072007160523  0.14306235020646763  1.0000
  C   C30       1.0  0.9679371017045808  0.8194153447424245  0.4026290797730798  1.0000
  C   C31       1.0  0.9701973106094587  0.29278057901170174  0.41011650908735797  1.0000
  O   O1        1.0  0.03609782558546537  0.5617036363397033  0.19574757893230732  1.0000
  O   O2        1.0  0.038301258929901216  0.5486559735991814  0.6148946635165151  1.0000
  O   O3        1.0  0.03628367211390904  0.7647664778847303  0.39924661854507315  1.0000
  O   O4        1.0  0.03811535054349835  0.3455931426050569  0.41139551681410924  1.0000
  O   O5        1.0  0.9000171004756191  0.7666027194357035  0.4013498832347986  1.0000
  O   O6        1.0  0.902034679662787  0.5504939470968278  0.6169978644934861  1.0000
  O   O7        1.0  0.8998312377475086  0.5635415501345264  0.19784904592906516  1.0000
  O   O8        1.0  0.9018487632962048  0.3474310466764372  0.4134970918384213  1.0000
