data_image0
_chemical_formula_structural       NC6NC3H6C6NCH9C6OCH7Zn2C4O8
_chemical_formula_sum              "N3 C27 H22 O9 Zn2"
_cell_length_a       14.934028789175542
_cell_length_b       9.273386996610926
_cell_length_c       9.273891588657152
_cell_angle_alpha    85.97842517681073
_cell_angle_beta     89.65557739525336
_cell_angle_gamma    89.3610420342759

_space_group_name_H-M_alt    "P 1"
_space_group_IT_number       1

loop_
  _space_group_symop_operation_xyz
  'x, y, z'

loop_
  _atom_site_type_symbol
  _atom_site_label
  _atom_site_symmetry_multiplicity
  _atom_site_fract_x
  _atom_site_fract_y
  _atom_site_fract_z
  _atom_site_occupancy
  N   N1        1.0  0.8385175449294865  0.5636504930800987  0.4069859123364879  1.0000
  C   C1        1.0  0.7610410199421185  0.5625458012965439  0.406308934731046  1.0000
  C   C2        1.0  0.6646563606540006  0.5611664872643756  0.40546385462835066  1.0000
  C   C3        1.0  0.6159691243837605  0.6685874195769372  0.4711722611326398  1.0000
  C   C4        1.0  0.5224669328194443  0.6674799356514485  0.47049469426564916  1.0000
  C   C5        1.0  0.47673895588657544  0.559006341096641  0.40414245422688216  1.0000
  C   C6        1.0  0.38007314964818306  0.561333763287831  0.40556740296871885  1.0000
  N   N2        1.0  0.3025771259292939  0.5631808691933466  0.4066986077670125  1.0000
  C   C7        1.0  0.5254334160419334  0.45009925867278544  0.33752443142462263  1.0000
  C   C8        1.0  0.47813232865746386  0.3321659244622823  0.2653869848109447  1.0000
  C   C9        1.0  0.6195569483297054  0.4523368228287565  0.33889318115106276  1.0000
  H   H1        1.0  0.6502848412764279  0.7532251552221567  0.5229449797096684  1.0000
  H   H2        1.0  0.4857083159701012  0.751465836707724  0.5218685481570231  1.0000
  H   H3        1.0  0.43537534269190303  0.3804543905144653  0.17670666184674322  1.0000
  H   H4        1.0  0.4355146431404246  0.27002004286824294  0.3455974841131968  1.0000
  H   H5        1.0  0.5262487254877428  0.25577873928021155  0.21865521745259597  1.0000
  H   H6        1.0  0.6577990067458942  0.3694681871887384  0.2882030379504319  1.0000
  C   C10       1.0  0.0733027140805671  0.13976528717028325  0.407548835721217  1.0000
  C   C11       1.0  0.08948473409073315  0.22204808519386465  0.2772132387371191  1.0000
  C   C12       1.0  0.09723569830921885  0.1563608544617574  0.14687480564766564  1.0000
  C   C13       1.0  0.08892668888825717  0.0060384459116396  0.1435395657231742  1.0000
  C   C14       1.0  0.07432426896577903  0.9227870482540442  0.27342146284499425  1.0000
  C   C15       1.0  0.0678005702519397  0.9870550377641638  0.4061481730560135  1.0000
  N   N3        1.0  0.09593016911635187  0.935291257057834  0.010510728641744516  1.0000
  C   C16       1.0  0.1113428561172431  0.011902478743145201  0.8698449900083007  1.0000
  H   H7        1.0  0.09076278944684724  0.4040284420235325  0.6441780833019941  1.0000
  H   H8        1.0  0.0940581565416041  0.33867338741050984  0.2754420471719359  1.0000
  H   H9        1.0  0.1088731380481111  0.2240674069852142  0.048960564651868044  1.0000
  H   H10       1.0  0.07010574646893958  0.8063697225016702  0.271150238884458  1.0000
  H   H11       1.0  0.09953284690161075  0.858829966803333  0.7571931236846201  1.0000
  H   H12       1.0  0.08958899401720631  0.8229575323504594  0.013503568791533025  1.0000
  H   H13       1.0  0.05592024563610762  0.09030606745224444  0.8448358218421479  1.0000
  H   H14       1.0  0.17615415460992867  0.06939073508903834  0.8700374515293232  1.0000
  H   H15       1.0  0.11390090455499918  0.9336930315830402  0.7845126936776721  1.0000
  C   C17       1.0  0.07204338940417648  0.5595878756088228  0.9835785663183109  1.0000
  C   C18       1.0  0.14497848740673802  0.6204486931637867  0.05200613108941776  1.0000
  C   C19       1.0  0.21276443824580982  0.6920873681771678  0.9720355857279381  1.0000
  C   C20       1.0  0.20785700366333448  0.7032264762165961  0.8205795600326624  1.0000
  C   C21       1.0  0.13680881582951332  0.6414902194685668  0.7508100767244565  1.0000
  C   C22       1.0  0.06905989384743844  0.5672324138690377  0.8301183908343353  1.0000
  O   O1        1.0  0.2832656552485018  0.7511744051425738  0.047100508667689216  1.0000
  C   C23       1.0  0.35651007919372457  0.8270246428698053  0.9798529699646964  1.0000
  H   H16       1.0  0.8596305771241571  0.4711955679524802  0.09487415377735853  1.0000
  H   H17       1.0  0.25908146191843495  0.7582638382028415  0.7555344172711767  1.0000
  H   H18       1.0  0.136038016291256  0.6489262668078903  0.6337170562526317  1.0000
  H   H19       1.0  0.9274495521744537  0.5020011775749398  0.5548717545892399  1.0000
  H   H20       1.0  0.33183972143051216  0.9246756233216691  0.9153108824353948  1.0000
  H   H21       1.0  0.39431126716882914  0.7553873981633048  0.9095355505991942  1.0000
  H   H22       1.0  0.4021230574859689  0.8614617824367905  0.0646111298458738  1.0000
  Zn  Zn1       1.0  0.972435125072758  0.5635111789567266  0.4069113260372066  1.0000
  Zn  Zn2       1.0  0.1686596110606533  0.5633084721769104  0.4067849978855924  1.0000
  C   C24       1.0  0.06965917701081303  0.5600402045284412  0.6701137580409811  1.0000
  C   C25       1.0  0.07143768956870877  0.566781265958836  0.14358270296431153  1.0000
  C   C26       1.0  0.06885624147583025  0.8268473893407322  0.4006691398473423  1.0000
  C   C27       1.0  0.07224056913078702  0.299972348619846  0.41302740091231294  1.0000
  O   O2        1.0  0.14570062184191368  0.5691122134167814  0.19723362240807574  1.0000
  O   O3        1.0  0.1443260978066605  0.5575543152259015  0.6163665453318566  1.0000
  O   O4        1.0  0.14367670808600708  0.7730045057704931  0.3987881079415674  1.0000
  O   O5        1.0  0.1463499449183091  0.35366203228562404  0.414811951751187  1.0000
  O   O6        1.0  0.9947447242533317  0.7731576189186893  0.39888437220713735  1.0000
  O   O7        1.0  0.9953941029851193  0.5577091609714726  0.6164627298785894  1.0000
  O   O8        1.0  0.9967686335138658  0.5692669932396552  0.1973280740860741  1.0000
  O   O9        1.0  0.9974179562727493  0.35381680276573935  0.41490651151188906  1.0000
