data_image0
_chemical_formula_structural       NC11NC3H8C7OC3NC3H11C6SCOC6H10Zn2C4O8
_chemical_formula_sum              "N3 C44 H29 O10 S1 Zn2"
_cell_length_a       17.807433833752565
_cell_length_b       10.298746005989749
_cell_length_c       10.302041481415108
_cell_angle_alpha    85.5447523670973
_cell_angle_beta     88.52108606055918
_cell_angle_gamma    90.6940108729131

_space_group_name_H-M_alt    "P 1"
_space_group_IT_number       1

loop_
  _space_group_symop_operation_xyz
  'x, y, z'

loop_
  _atom_site_type_symbol
  _atom_site_label
  _atom_site_symmetry_multiplicity
  _atom_site_fract_x
  _atom_site_fract_y
  _atom_site_fract_z
  _atom_site_occupancy
  N   N1        1.0  0.7076007102086179  0.4391026500894762  0.5350758310059391  1.0000
  C   C1        1.0  0.6567755932886121  0.4043501359941595  0.6016211572113785  1.0000
  C   C2        1.0  0.5935440227874013  0.3611208740865832  0.6843950507875438  1.0000
  C   C3        1.0  0.605260786160737  0.29752315615821723  0.8070821174219655  1.0000
  C   C4        1.0  0.543936848472997  0.2559745964295604  0.8875726998021178  1.0000
  C   C5        1.0  0.47074174745867653  0.2777102396284481  0.8460168487701714  1.0000
  C   C6        1.0  0.4580482217094953  0.34146267987884943  0.7228696968650675  1.0000
  C   C7        1.0  0.3802851259651612  0.364529509256716  0.6785338981009348  1.0000
  C   C8        1.0  0.3615045708788547  0.34770015523929754  0.5489808482630076  1.0000
  C   C9        1.0  0.2882795252577345  0.3693970821816681  0.5073809327173577  1.0000
  C   C10       1.0  0.2328920202061071  0.4082421988329559  0.59451399519553  1.0000
  C   C11       1.0  0.1575303638189049  0.4305981134926553  0.5515531300592231  1.0000
  N   N2        1.0  0.0969449652578268  0.4485706080401038  0.5170157211705493  1.0000
  C   C12       1.0  0.2509810506002235  0.4252823297271815  0.7235360422598807  1.0000
  C   C13       1.0  0.3241533221048445  0.40355038239084173  0.7653913285679748  1.0000
  C   C14       1.0  0.520229470266753  0.3830066686662013  0.6423955263895327  1.0000
  H   H1        1.0  0.6617237437559864  0.2800957653190057  0.8404391204116403  1.0000
  H   H2        1.0  0.5531269005543548  0.20648565362476368  0.9822846003038466  1.0000
  H   H3        1.0  0.4240969613360265  0.24312953610118074  0.9094395893391723  1.0000
  H   H4        1.0  0.4031823838480778  0.316079129835138  0.4802772515086393  1.0000
  H   H5        1.0  0.2748402964432163  0.35554939329811686  0.4073674372859464  1.0000
  H   H6        1.0  0.20858635705968578  0.45568040039236324  0.7917248991227568  1.0000
  H   H7        1.0  0.3370642708516887  0.4189436745504676  0.8652222166461203  1.0000
  H   H8        1.0  0.5117380158807359  0.43385799983840095  0.5479179846014117  1.0000
  C   C15       1.0  0.9022405279960329  0.06243376592094974  0.5260300852091182  1.0000
  C   C16       1.0  0.9373888896388117  0.07183807804761622  0.40192272381034955  1.0000
  C   C17       1.0  0.9543716321892478  0.9594510159857036  0.33851583561826826  1.0000
  C   C18       1.0  0.9373894547285423  0.8366015087379514  0.4018735714488069  1.0000
  C   C19       1.0  0.902312313953816  0.8252296877488242  0.5260722997966927  1.0000
  C   C20       1.0  0.884779595879859  0.9387128904249967  0.5872164272783249  1.0000
  C   C21       1.0  0.9921265070015394  0.9692057138827171  0.20797771196912354  1.0000
  O   O1        1.0  0.03799752804035705  0.8823521489217435  0.18064329790055011  1.0000
  C   C22       1.0  0.9778451948857687  0.07743156688533381  0.1084567994293897  1.0000
  C   C23       1.0  0.9067086411860047  0.13509806733813012  0.09965179619170139  1.0000
  C   C24       1.0  0.8935476653284296  0.23648301328756285  0.004376856061308667  1.0000
  N   N3        1.0  0.8212084660291195  0.2949621429774615  0.9965308137091  1.0000
  C   C25       1.0  0.9515697609831071  0.27981063082776697  0.9165702510590329  1.0000
  C   C26       1.0  0.022020630133956276  0.22196334894833103  0.9235514029405159  1.0000
  C   C27       1.0  0.03512318128328818  0.12100156402387799  0.018524913086799273  1.0000
  H   H9        1.0  0.8368692221071997  0.25198445047981094  0.7613461804162099  1.0000
  H   H10       1.0  0.9523304726014611  0.16673458155363763  0.35501815557315397  1.0000
  H   H11       1.0  0.9509404003295127  0.7497563406191544  0.3535577565755441  1.0000
  H   H12       1.0  0.8576902582378944  0.9307118764434877  0.6828824518296571  1.0000
  H   H13       1.0  0.8363167059443498  0.5964313869805046  0.7609289372037459  1.0000
  H   H14       1.0  0.8612107686362913  0.10056492859379992  0.16571061007864743  1.0000
  H   H15       1.0  0.7775559595699425  0.26342428286590636  0.06149279236601846  1.0000
  H   H16       1.0  0.8107889823722412  0.37034933890170496  0.9257916407314455  1.0000
  H   H17       1.0  0.9421048088655921  0.35795838110409456  0.8425387830916446  1.0000
  H   H18       1.0  0.06659810544269029  0.25543932435765404  0.8552034934250541  1.0000
  H   H19       1.0  0.09022170426450327  0.07769719097306904  0.02249520453329268  1.0000
  C   C28       1.0  0.9022905240032977  0.44396134007075017  0.14476352303734763  1.0000
  C   C29       1.0  0.9367434727628228  0.5679080843472433  0.1322597651590316  1.0000
  C   C30       1.0  0.9542203142539303  0.6290643729556554  0.009067398858424443  1.0000
  C   C31       1.0  0.9368147355738825  0.5675059202615331  0.8971510235012912  1.0000
  C   C32       1.0  0.9022623513951822  0.443702074057751  0.9073389053190821  1.0000
  C   C33       1.0  0.8852345325343339  0.3825181459040361  0.031703867445515455  1.0000
  S   S1        1.0  0.9989037543427319  0.7866972401359937  0.9944815254740034  1.0000
  C   C34       1.0  0.09144199297894005  0.7191408907762232  0.9927532811281412  1.0000
  O   O2        1.0  0.12084082457612633  0.6966810675126294  0.8843279346091895  1.0000
  C   C35       1.0  0.13284799732714214  0.6888024277266818  0.11435525497517074  1.0000
  C   C36       1.0  0.19948641810301315  0.6166932535770937  0.11145202817428768  1.0000
  C   C37       1.0  0.23863974598277868  0.586745984864401  0.22558608707993869  1.0000
  C   C38       1.0  0.21195206943828593  0.6284481433598958  0.3437641252935102  1.0000
  C   C39       1.0  0.14612108022438752  0.7004181280003021  0.34801015581040984  1.0000
  C   C40       1.0  0.10674354854041468  0.7307341112225845  0.23418592517493655  1.0000
  H   H20       1.0  0.8372401666725107  0.2104537872176051  0.3756445116953073  1.0000
  H   H21       1.0  0.9502439160655424  0.6171683408135118  0.21795078897379905  1.0000
  H   H22       1.0  0.9506335769788169  0.6164423608305205  0.8025415581234805  1.0000
  H   H23       1.0  0.8586755087607721  0.2869638635376477  0.040422737898337724  1.0000
  H   H24       1.0  0.8893306578049088  0.3964669610735554  0.5838766885413929  1.0000
  H   H25       1.0  0.22118411995432205  0.5827600466756144  0.021124846163333322  1.0000
  H   H26       1.0  0.28970208943290676  0.5309983569064252  0.22236708425029228  1.0000
  H   H27       1.0  0.24232909148716808  0.6051336117484694  0.43201568634543275  1.0000
  H   H28       1.0  0.12558980741112014  0.7329925433968287  0.43963718694479953  1.0000
  H   H29       1.0  0.05625141435085789  0.7874377427407031  0.24060579301134544  1.0000
  Zn  Zn1       1.0  0.8199570511120469  0.44183142074212256  0.5298715561594293  1.0000
  Zn  Zn2       1.0  0.9845886082028564  0.44583121324995384  0.5222305791876518  1.0000
  C   C41       1.0  0.9022654940191317  0.438576915430045  0.7631955963605792  1.0000
  C   C42       1.0  0.9022819632167896  0.44908740096210625  0.28890658307729145  1.0000
  C   C43       1.0  0.9022950778651914  0.6810466697911739  0.5208904414955825  1.0000
  C   C44       1.0  0.9022523230440535  0.20661608477079607  0.5312118096871142  1.0000
  O   O3        1.0  0.964755907536701  0.45231998798907275  0.33438259953662497  1.0000
  O   O4        1.0  0.9647430921378145  0.4383790986847721  0.7119198813591976  1.0000
  O   O5        1.0  0.9647661392003385  0.6341764708589466  0.5162567936213608  1.0000
  O   O6        1.0  0.9647328043010523  0.2565226237741882  0.5300455925283989  1.0000
  O   O7        1.0  0.8398127988331804  0.6311400088543722  0.5220565454193431  1.0000
  O   O8        1.0  0.8397897519166623  0.4353441971468619  0.7177195640130145  1.0000
  O   O9        1.0  0.8398025674189742  0.4492850417230774  0.3401807211175379  1.0000
  O   O10       1.0  0.8397794641757795  0.2534876681853866  0.5358438114560361  1.0000
