data_image0
_chemical_formula_structural       NC9NC3NH7C8H6C6NO2H3Zn2C4O8
_chemical_formula_sum              "N4 C30 H16 O10 Zn2"
_cell_length_a       16.053384444249904
_cell_length_b       9.27514070457351
_cell_length_c       9.273395971720356
_cell_angle_alpha    85.10192813467344
_cell_angle_beta     89.67931749283619
_cell_angle_gamma    89.76770978158073

_space_group_name_H-M_alt    "P 1"
_space_group_IT_number       1

loop_
  _space_group_symop_operation_xyz
  'x, y, z'

loop_
  _atom_site_type_symbol
  _atom_site_label
  _atom_site_symmetry_multiplicity
  _atom_site_fract_x
  _atom_site_fract_y
  _atom_site_fract_z
  _atom_site_occupancy
  N   N1        1.0  0.7956463839306117  0.5751804384885435  0.40806492717368115  1.0000
  C   C1        1.0  0.7448553601117103  0.5529427542682099  0.32481196752407615  1.0000
  C   C2        1.0  0.6817359825163107  0.5253119589585162  0.22139148193681613  1.0000
  C   C3        1.0  0.6954513101304813  0.5134173650736652  0.07604126324286485  1.0000
  C   C4        1.0  0.6187304670823893  0.48590595220456234  0.017891165077048125  1.0000
  C   C5        1.0  0.5614834701679619  0.48254825823876524  0.13090060124909586  1.0000
  C   C6        1.0  0.470687121410273  0.456222207272206  0.11944778900804386  1.0000
  C   C7        1.0  0.4149463215756238  0.5025516858852155  0.22394412169265984  1.0000
  C   C8        1.0  0.3292614264355497  0.47758499625300366  0.21297508263280984  1.0000
  C   C9        1.0  0.2727488892068267  0.5258240274898663  0.3201125459352723  1.0000
  N   N2        1.0  0.2273294512243716  0.5646014234788184  0.4062342901035647  1.0000
  C   C10       1.0  0.2985905403698614  0.40616435326676414  0.09752465517905984  1.0000
  C   C11       1.0  0.3533232926326069  0.35996521100035467  0.9932639216246222  1.0000
  C   C12       1.0  0.4388016640247873  0.384752514736858  0.0037916959271910825  1.0000
  N   N3        1.0  0.60067232779236  0.5067590121708407  0.2549617333825662  1.0000
  H   H1        1.0  0.7543133338990615  0.5236007630900874  0.018689524614941444  1.0000
  H   H2        1.0  0.6065166796779922  0.47178683319268266  0.9053918859329556  1.0000
  H   H3        1.0  0.43750301455729973  0.5598636811010231  0.3127835724156003  1.0000
  H   H4        1.0  0.23246068762105818  0.38631672638286557  0.0881039507072261  1.0000
  H   H5        1.0  0.3294874633684256  0.3044784778014732  0.9041688601441339  1.0000
  H   H6        1.0  0.4797857736999699  0.34625284913439813  0.9222785427251216  1.0000
  H   H7        1.0  0.5743976521683472  0.5083138268079199  0.35807582545538885  1.0000
  C   C13       1.0  0.00896274637735695  0.14652259643316828  0.4061507464956219  1.0000
  C   C14       1.0  0.021012528244709786  0.23103929451272756  0.2744156709130585  1.0000
  C   C15       1.0  0.04032028187553727  0.16656780905175883  0.1478237661523729  1.0000
  C   C16       1.0  0.04803943452601023  0.01642017105746673  0.15053538515933984  1.0000
  C   C17       1.0  0.03492564481470595  0.93037332518734  0.27990906567814045  1.0000
  C   C18       1.0  0.014020939466532491  0.9932478895266067  0.40816090962562024  1.0000
  C   C19       1.0  0.06848838098566157  0.9502118059345372  0.01990357003985022  1.0000
  C   C20       1.0  0.08560995202601074  0.8947634904506057  0.9105367199142566  1.0000
  H   H8        1.0  0.022167890987631497  0.21901371787122528  0.7608027028058847  1.0000
  H   H9        1.0  0.01743601088834934  0.34799782081580616  0.27000918915414207  1.0000
  H   H10       1.0  0.050044422489195384  0.23410877607402525  0.047985598302254344  1.0000
  H   H11       1.0  0.03912483635465081  0.8136650422095786  0.27971292940748094  1.0000
  H   H12       1.0  0.019714672254813596  0.6920955323825697  0.647124635696853  1.0000
  H   H13       1.0  0.10063901727425706  0.8460898213828697  0.81453559319363  1.0000
  C   C21       1.0  0.011992326314491208  0.5743026312108563  0.9832276007532513  1.0000
  C   C22       1.0  0.9379480971824059  0.6090286378509565  0.05420725570478413  1.0000
  C   C23       1.0  0.8635892772924588  0.6301281956625211  0.9781394140743758  1.0000
  C   C24       1.0  0.8611641882511922  0.6169406637656685  0.8288232812185594  1.0000
  C   C25       1.0  0.935178662361676  0.5846860900310882  0.7564120016521501  1.0000
  C   C26       1.0  0.010991357973306522  0.5654678494183043  0.8310840414429972  1.0000
  N   N4        1.0  0.7840577877218287  0.6376270275209224  0.7510578540972594  1.0000
  O   O1        1.0  0.711855300346318  0.6703846862745892  0.8222129788485266  1.0000
  O   O2        1.0  0.7813340681809098  0.625810766881297  0.6180453555929732  1.0000
  H   H14       1.0  0.19329460564140244  0.408323222008684  0.09849317857688322  1.0000
  H   H15       1.0  0.80767371251603  0.6554080101104562  0.03681687798968269  1.0000
  H   H16       1.0  0.1346406434734435  0.45789791107223826  0.5588596173842824  1.0000
  Zn  Zn1       1.0  0.9202207572123274  0.5721236315291729  0.4075449647410573  1.0000
  Zn  Zn2       1.0  0.10275497038720444  0.5676463618977565  0.40676602340919055  1.0000
  C   C27       1.0  0.011144410398173264  0.5613944171661073  0.6708073737375212  1.0000
  C   C28       1.0  0.011833321168916337  0.5783773449696846  0.1435037519164155  1.0000
  C   C29       1.0  0.013067353944107078  0.8332588331130659  0.40202823381056163  1.0000
  C   C30       1.0  0.00991030489842903  0.3065111976134396  0.4122829649624762  1.0000
  O   O3        1.0  0.08105070263061953  0.5780394659421322  0.19699827327979325  1.0000
  O   O4        1.0  0.08046626717534555  0.5583330688535695  0.6167212357789231  1.0000
  O   O5        1.0  0.08201813283222957  0.7778670301887913  0.3996801861746262  1.0000
  O   O6        1.0  0.07949877487656876  0.3585055175759204  0.4140392149330705  1.0000
  O   O7        1.0  0.9434768904330134  0.78126447738053  0.4002717734754023  1.0000
  O   O8        1.0  0.9419250352107325  0.5617322489841148  0.6173127502188234  1.0000
  O   O9        1.0  0.9425094724703174  0.5814386139170941  0.19758805195323093  1.0000
  O   O10       1.0  0.9409575445234829  0.36190465411139267  0.41462910181575263  1.0000
