data_image0
_chemical_formula_structural       NC9NC4H8C8NH7C7OCH10Zn2C4O8
_chemical_formula_sum              "N3 C33 H25 O9 Zn2"
_cell_length_a       16.32274767691083
_cell_length_b       9.274263428431858
_cell_length_c       10.300835455316063
_cell_angle_alpha    85.53020100870764
_cell_angle_beta     89.48565492192432
_cell_angle_gamma    90.1410557844374

_space_group_name_H-M_alt    "P 1"
_space_group_IT_number       1

loop_
  _space_group_symop_operation_xyz
  'x, y, z'

loop_
  _atom_site_type_symbol
  _atom_site_label
  _atom_site_symmetry_multiplicity
  _atom_site_fract_x
  _atom_site_fract_y
  _atom_site_fract_z
  _atom_site_occupancy
  N   N1        1.0  0.780794923076176  0.5678863071397868  0.5559420758593747  1.0000
  C   C1        1.0  0.7281349764608769  0.5151888221165828  0.501694786699181  1.0000
  C   C2        1.0  0.6626784319229482  0.4497381354436776  0.43431921977645493  1.0000
  C   C3        1.0  0.6736800773959626  0.36021327511929124  0.34215714228006977  1.0000
  C   C4        1.0  0.5940455216234493  0.31652466918421274  0.29718511463299824  1.0000
  C   C5        1.0  0.5355060937879083  0.3804619383113433  0.3630081350156669  1.0000
  C   C6        1.0  0.4454645839731218  0.36356389349388385  0.34561523027593993  1.0000
  C   C7        1.0  0.39032742667792014  0.43808690839565556  0.4223288191746826  1.0000
  C   C8        1.0  0.3055300078526865  0.42364502716715524  0.40746374039018374  1.0000
  C   C9        1.0  0.24999502823546346  0.50045901644806  0.4865348786333321  1.0000
  N   N2        1.0  0.2053637681710856  0.5622048237149717  0.5500946812858075  1.0000
  C   C10       1.0  0.27481596616893844  0.33455960455127665  0.3157616303833944  1.0000
  C   C11       1.0  0.3286318128105004  0.26013530089797016  0.23914999547693028  1.0000
  C   C12       1.0  0.41326804089432967  0.2741881845658547  0.25361452116231137  1.0000
  C   C13       1.0  0.5738340274445162  0.47368953412103415  0.4589794052749275  1.0000
  H   H1        1.0  0.7323733180474906  0.32540127807648567  0.3063173988234684  1.0000
  H   H2        1.0  0.5852998847759402  0.24335611238076796  0.2218609788558144  1.0000
  H   H3        1.0  0.4128679015843807  0.5076330990073274  0.4939178820717731  1.0000
  H   H4        1.0  0.20935098564648  0.3226624862939995  0.3035161133587454  1.0000
  H   H5        1.0  0.3046991707036576  0.19121942124577607  0.16821001560297244  1.0000
  H   H6        1.0  0.4526828775012005  0.21465353240015372  0.19233053900979316  1.0000
  H   H7        1.0  0.556842185000612  0.43512341130314836  0.5604947828330058  1.0000
  H   H8        1.0  0.5577572419271093  0.5892582441331102  0.4367350048719341  1.0000
  C   C14       1.0  0.9904908732539252  0.14149678596293327  0.5533299770144369  1.0000
  C   C15       1.0  0.9798800430381084  0.22497666517406123  0.434804021383147  1.0000
  C   C16       1.0  0.9773046481139582  0.1600781617866111  0.3172416432007753  1.0000
  C   C17       1.0  0.9859423328550394  0.010180405811078593  0.31528816910639335  1.0000
  C   C18       1.0  0.9943543988501242  0.9252252007760691  0.4330484304506284  1.0000
  C   C19       1.0  0.9956756078360917  0.9885831443037904  0.5527179334262549  1.0000
  C   C20       1.0  0.9819434306456541  0.9402227842765578  0.18864839934212752  1.0000
  C   C21       1.0  0.8969374453892611  0.9024186666867805  0.16095985630928447  1.0000
  N   N3        1.0  0.8298440354371093  0.8725793383558258  0.13911446648357662  1.0000
  H   H9        1.0  0.06124405811125654  0.2188718053446164  0.8517277786411936  1.0000
  H   H10       1.0  0.9753508964742479  0.3416557820330053  0.43273967431146665  1.0000
  H   H11       1.0  0.9693375210770966  0.2270960992318245  0.22736355350347554  1.0000
  H   H12       1.0  0.9978914328672822  0.8086879904750676  0.4312892986639021  1.0000
  H   H13       1.0  0.04012341448381762  0.690530839649727  0.755423724091951  1.0000
  H   H14       1.0  0.01979432276366678  0.8406019109327121  0.19315219899204816  1.0000
  H   H15       1.0  0.006122172710208987  0.014697344695400634  0.10750750934545295  1.0000
  C   C22       1.0  0.9930083480036747  0.5649673502443333  0.17170848477419856  1.0000
  C   C23       1.0  0.06865400441368763  0.6377519324818178  0.1646831791619907  1.0000
  C   C24       1.0  0.10628792429226341  0.675944488636322  0.04392697310474359  1.0000
  C   C25       1.0  0.06885084135060371  0.6379409766448967  0.9293815609343179  1.0000
  C   C26       1.0  0.9931581432465327  0.565112517754705  0.9343394316531746  1.0000
  C   C27       1.0  0.9555919384313675  0.5293641459424518  0.055929037867522124  1.0000
  C   C28       1.0  0.18834449115368357  0.7500298907749896  0.03778360320298458  1.0000
  O   O1        1.0  0.2503090122328169  0.6439159471428972  0.04450545650333094  1.0000
  C   C29       1.0  0.3276853546273031  0.7121125944197497  0.038855710452139654  1.0000
  H   H16       1.0  0.9644839381270859  0.5355901966275187  0.5018967192152581  1.0000
  H   H17       1.0  0.09862020253307291  0.6650092003264017  0.25299132259828583  1.0000
  H   H18       1.0  0.09895205341063118  0.6653293392572286  0.8365129303103545  1.0000
  H   H19       1.0  0.8972545990512054  0.47321854941991326  0.06058487597261131  1.0000
  H   H20       1.0  0.8508155487144997  0.42628395323564533  0.7365368814531905  1.0000
  H   H21       1.0  0.19311072704371815  0.8203731001732055  0.12035566022653568  1.0000
  H   H22       1.0  0.1933006819639156  0.8203925595258204  0.945238982108237  1.0000
  H   H23       1.0  0.3757039212271793  0.6274777033696861  0.04422552754332098  1.0000
  H   H24       1.0  0.33638239675602843  0.7789731330965799  0.12283607100583097  1.0000
  H   H25       1.0  0.3365827991482673  0.7790306185628663  0.9453222565046417  1.0000
  Zn  Zn1       1.0  0.9033163045650725  0.5662428840918151  0.5542621458307865  1.0000
  Zn  Zn2       1.0  0.08284232250191814  0.5638364131452539  0.5517852575550262  1.0000
  C   C30       1.0  0.9930928184300156  0.5593392243941857  0.7901900094673654  1.0000
  C   C31       1.0  0.9930677802192417  0.5707418664411157  0.315857493004555  1.0000
  C   C32       1.0  0.9946903450124146  0.8284648266107977  0.5476592193528511  1.0000
  C   C33       1.0  0.9914701817844239  0.30161453218522905  0.558388354445271  1.0000
  O   O2        1.0  0.06121687589951397  0.5717603112667025  0.36329525533843277  1.0000
  O   O3        1.0  0.06119980968133042  0.5564932356501484  0.7408719732360363  1.0000
  O   O4        1.0  0.06248891445122973  0.7738155755658334  0.5450266558607528  1.0000
  O   O5        1.0  0.05992770991357598  0.35443798247137864  0.5591404761904355  1.0000
  O   O6        1.0  0.9262308558900042  0.7756413155884696  0.5469069280337864  1.0000
  O   O7        1.0  0.9249417617091132  0.5583207085348395  0.7427521749212771  1.0000
  O   O8        1.0  0.924958827367537  0.5735877335921329  0.3651738958774018  1.0000
  O   O9        1.0  0.9236696613342272  0.35626539449922767  0.5610192140910947  1.0000
