data_image0
_chemical_formula_structural       NC6NC2H4C9H6C6SCH6Zn2C4O8
_chemical_formula_sum              "N2 C28 H16 S1 Zn2 O8"
_cell_length_a       14.927258858638513
_cell_length_b       9.275152443626249
_cell_length_c       10.302812801239593
_cell_angle_alpha    85.3632325581603
_cell_angle_beta     89.99986339820808
_cell_angle_gamma    90.5735452640029

_space_group_name_H-M_alt    "P 1"
_space_group_IT_number       1

loop_
  _space_group_symop_operation_xyz
  'x, y, z'

loop_
  _atom_site_type_symbol
  _atom_site_label
  _atom_site_symmetry_multiplicity
  _atom_site_fract_x
  _atom_site_fract_y
  _atom_site_fract_z
  _atom_site_occupancy
  N   N1        1.0  0.8533907295641371  0.5787934479520133  0.5630397259295703  1.0000
  C   C1        1.0  0.7758642382190655  0.5787934194323334  0.5630397355544228  1.0000
  C   C2        1.0  0.6794317313909969  0.5787935345709384  0.5630396902924288  1.0000
  C   C3        1.0  0.6322321387493494  0.5550944377027651  0.449018709052768  1.0000
  C   C4        1.0  0.5385208275655134  0.5550944633476309  0.44901858877943623  1.0000
  C   C5        1.0  0.49161566629454967  0.5787933569586012  0.5630397076215969  1.0000
  C   C6        1.0  0.3951830924749638  0.5787934721001717  0.563039662354258  1.0000
  N   N2        1.0  0.3176566011298917  0.578793443580492  0.5630396719791104  1.0000
  C   C7        1.0  0.5388151919446797  0.60249245382974  0.677060688855913  1.0000
  C   C8        1.0  0.6325265031285153  0.602492428184874  0.6770608091292443  1.0000
  H   H1        1.0  0.6678137916326847  0.5366552041637256  0.3603038415952018  1.0000
  H   H2        1.0  0.5027101373506785  0.5366554017706382  0.36030383653694487  1.0000
  H   H3        1.0  0.5032336059848248  0.6209316770476168  0.765775653688054  1.0000
  H   H4        1.0  0.6683371939465605  0.6209315871248543  0.7657756601625727  1.0000
  C   C9        1.0  0.08288527681502256  0.15516114260640346  0.5643651741144458  1.0000
  C   C10       1.0  0.05056858589857563  0.23790054372462197  0.4540681429076215  1.0000
  C   C11       1.0  0.02657912005075592  0.1724591986014885  0.34170607545648113  1.0000
  C   C12       1.0  0.03452966554423532  0.023117259003371023  0.3374163034312818  1.0000
  C   C13       1.0  0.06509455682132015  0.9386897111422323  0.4467811819393217  1.0000
  C   C14       1.0  0.08817058001029476  0.0024146609873780837  0.5617254726471981  1.0000
  C   C15       1.0  0.010258789278769559  0.9559677507586282  0.22105831591593694  1.0000
  C   C16       1.0  0.9899376019441767  0.8997123970675558  0.12362674501047978  1.0000
  C   C17       1.0  0.9652818578969893  0.8314444759825586  0.005410621287733176  1.0000
  H   H5        1.0  0.21160963841275815  0.23681258491307466  0.8236509954650024  1.0000
  H   H6        1.0  0.0026275717217996157  0.23869896396808626  0.25762152937971505  1.0000
  H   H7        1.0  0.17196505867544032  0.7071152578825624  0.7390682694639772  1.0000
  H   H8        1.0  0.9816587494319643  0.7147226460746957  0.01753954438112882  1.0000
  H   H9        1.0  0.8923684730589418  0.8440270448745518  0.9876369851655018  1.0000
  H   H10       1.0  0.0031138078652286363  0.8837930071441609  0.9213734780050231  1.0000
  C   C18       1.0  0.0855279517110204  0.5787878929060971  0.18179687941565814  1.0000
  C   C19       1.0  0.056213750058899725  0.7226505926673634  0.17015138863831347  1.0000
  C   C20       1.0  0.041395647508792904  0.7940193549911019  0.04738203779218275  1.0000
  C   C21       1.0  0.05621366835247876  0.7226504412323509  0.9350002194208776  1.0000
  C   C22       1.0  0.08552789354331064  0.5787878831842738  0.9442937830754903  1.0000
  C   C23       1.0  0.10001406859641021  0.5075469559650589  0.06822988750046566  1.0000
  S   S1        1.0  0.004127071505720887  0.9779320398986772  0.03399772305734095  1.0000
  C   C24       1.0  0.8859758746148202  0.9275294261733978  0.03766690114976456  1.0000
  H   H11       1.0  0.04456892846508653  0.7797932674973919  0.2560924091426149  1.0000
  H   H12       1.0  0.04456874781399178  0.77979305968872  0.8407420968079737  1.0000
  H   H13       1.0  0.12260910720091994  0.3965697154879893  0.0763061816082149  1.0000
  H   H14       1.0  0.8696901852533538  0.8633530634499884  0.9542205256568934  1.0000
  H   H15       1.0  0.8696905780290312  0.863354521378088  0.13045521314809028  1.0000
  H   H16       1.0  0.845135775227783  0.02710234970181879  0.03042017418312403  1.0000
  Zn  Zn1       1.0  0.9873678152684503  0.5787895811214399  0.5630472241511006  1.0000
  Zn  Zn2       1.0  0.1836794525946438  0.5787854939925017  0.5630428604820696  1.0000
  C   C25       1.0  0.0854900574340052  0.5730408525679049  0.8001834598661831  1.0000
  C   C26       1.0  0.08555936550081206  0.5845360427131023  0.32590674647454887  1.0000
  C   C27       1.0  0.08716692866067048  0.8422656829949315  0.5570509217161952  1.0000
  C   C28       1.0  0.08388241647463861  0.31530947907187684  0.5690393592427239  1.0000
  O   O1        1.0  0.16006911227367093  0.5864573296343003  0.37426969793789877  1.0000
  O   O2        1.0  0.15997629426071483  0.571115375314895  0.7518168261417002  1.0000
  O   O3        1.0  0.16132938469764924  0.7885178307182836  0.5554855767315172  1.0000
  O   O4        1.0  0.15871595491325552  0.3690548845520746  0.5706008499735071  1.0000
  O   O5        1.0  0.012331245958320478  0.7885201905648322  0.5554892346543192  1.0000
  O   O6        1.0  0.010978166329376208  0.5711194683786072  0.7518204094409708  1.0000
  O   O7        1.0  0.01107098408842378  0.586461372426806  0.3742717204862698  1.0000
  O   O8        1.0  0.00971782665997179  0.36905891702638294  0.5706029698911084  1.0000
