data_image0
_chemical_formula_structural       NC10NC3NCH9C12ClH9C12NH11Zn2C4O8
_chemical_formula_sum              "N4 C42 H29 Cl1 Zn2 O8"
_cell_length_a       19.437513618241372
_cell_length_b       10.299768534541528
_cell_length_c       10.299774167527174
_cell_angle_alpha    85.57901690489705
_cell_angle_beta     90.34073838346129
_cell_angle_gamma    89.54057453160664

_space_group_name_H-M_alt    "P 1"
_space_group_IT_number       1

loop_
  _space_group_symop_operation_xyz
  'x, y, z'

loop_
  _atom_site_type_symbol
  _atom_site_label
  _atom_site_symmetry_multiplicity
  _atom_site_fract_x
  _atom_site_fract_y
  _atom_site_fract_z
  _atom_site_occupancy
  N   N1        1.0  0.6481720605880658  0.4100419558690578  0.5758495985679492  1.0000
  C   C1        1.0  0.5892416987363291  0.42705095165653306  0.5728756240398103  1.0000
  C   C2        1.0  0.515804941779028  0.44830214024136983  0.5691841574742357  1.0000
  C   C3        1.0  0.4740254489645449  0.3471115075026834  0.5575140501562657  1.0000
  C   C4        1.0  0.39813735900541614  0.35717438533883794  0.5502941501005123  1.0000
  C   C5        1.0  0.35857561555553574  0.43803653656084746  0.6160428053728919  1.0000
  C   C6        1.0  0.282392080001038  0.42942649614391093  0.607598112636891  1.0000
  C   C7        1.0  0.24923537870224888  0.30808538280724806  0.6122276890565921  1.0000
  C   C8        1.0  0.17749973691163234  0.3017121015948547  0.6050592346201018  1.0000
  C   C9        1.0  0.1379500828041092  0.41620734146220384  0.5936233664735957  1.0000
  C   C10       1.0  0.0640999127102297  0.4094958486667634  0.5862867902165714  1.0000
  N   N2        1.0  0.0047294740772405  0.4041003986175134  0.5803886413573318  1.0000
  C   C11       1.0  0.17039012234717413  0.5372380593610384  0.5897389983250325  1.0000
  C   C12       1.0  0.24211021158166543  0.5438653406204532  0.5969694998997253  1.0000
  C   C13       1.0  0.3872739966059205  0.5303397317871159  0.7059691015153495  1.0000
  N   N3        1.0  0.4442704231559357  0.5935463860614363  0.6855728953045866  1.0000
  C   C14       1.0  0.4881109181473611  0.5842603798802501  0.5724693255781219  1.0000
  H   H1        1.0  0.4963929290470273  0.2520546166674198  0.5453827308004933  1.0000
  H   H2        1.0  0.3734116918182652  0.28765076255216626  0.4919708180955329  1.0000
  H   H3        1.0  0.27866980576000794  0.21817790397693515  0.6232379682699423  1.0000
  H   H4        1.0  0.1528895943195521  0.2074887284129754  0.6089356718375847  1.0000
  H   H5        1.0  0.14027027007909232  0.6264911537048001  0.5810406906587158  1.0000
  H   H6        1.0  0.2662389050279894  0.6385015011137316  0.5930776498488881  1.0000
  H   H7        1.0  0.35727334685243267  0.5507434503059743  0.7903342858339062  1.0000
  H   H8        1.0  0.5308757920920095  0.6545725734256471  0.5782403504847919  1.0000
  H   H9        1.0  0.45844984103065234  0.6123485815590497  0.4818309350396288  1.0000
  C   C15       1.0  0.8263891751610434  0.025706782047679948  0.5781162325459299  1.0000
  C   C16       1.0  0.8309288977885774  0.03515705015543568  0.4417114392734556  1.0000
  C   C17       1.0  0.8332953529699547  0.9228051089304843  0.37260227621509723  1.0000
  C   C18       1.0  0.8310602990280764  0.7998671475713056  0.441728601283492  1.0000
  C   C19       1.0  0.8265189578930595  0.7884253773784707  0.5781333119050971  1.0000
  C   C20       1.0  0.8242093343905939  0.9019016538368687  0.6455632666846434  1.0000
  C   C21       1.0  0.8380989158343387  0.9338563573405364  0.22829738783747985  1.0000
  C   C22       1.0  0.7989631215481076  0.028026881583929738  0.15333883512357427  1.0000
  C   C23       1.0  0.8035456715131247  0.03823181746251203  0.017523737976560705  1.0000
  C   C24       1.0  0.8471976801785742  0.9547889761054776  0.9549745698628596  1.0000
  C   C25       1.0  0.8863222930079689  0.8609304420941671  0.02842182993533559  1.0000
  C   C26       1.0  0.8818619207034846  0.8503312232954481  0.1642531250206507  1.0000
  Cl  Cl1       1.0  0.8528705114604861  0.9678399047917877  0.7845697106107749  1.0000
  H   H10       1.0  0.8246240165020666  0.3495601022977468  0.6300894711271048  1.0000
  H   H11       1.0  0.8335846737896041  0.13010979158451041  0.3890151087410594  1.0000
  H   H12       1.0  0.831920619253834  0.7130035904265695  0.3887958687470232  1.0000
  H   H13       1.0  0.8207064505829995  0.8938430299088075  0.7507932767262061  1.0000
  H   H14       1.0  0.8248158874468505  0.4566113264293662  0.6301151415058102  1.0000
  H   H15       1.0  0.7641740958809476  0.09259614597862734  0.19963725590868253  1.0000
  H   H16       1.0  0.7730023447662965  0.11083834813081173  0.9610257609004629  1.0000
  H   H17       1.0  0.9203441433938432  0.7963268542036943  0.9804242433314244  1.0000
  H   H18       1.0  0.9132783783355715  0.7780030163937594  0.21926798157246252  1.0000
  C   C27       1.0  0.8264774518441335  0.406951192086568  0.19677299948762483  1.0000
  C   C28       1.0  0.7590878510735707  0.35877271855736326  0.19873487514959365  1.0000
  C   C29       1.0  0.7249169376729134  0.3344765224031332  0.08258084972684387  1.0000
  C   C30       1.0  0.7590406241856475  0.35900480458353307  0.9634295675921265  1.0000
  C   C31       1.0  0.8264306622167014  0.40718104434835917  0.9594765530896012  1.0000
  C   C32       1.0  0.8597715996605081  0.43088496085351075  0.07666265365632552  1.0000
  C   C33       1.0  0.6536226458417366  0.2835070564399138  0.08570974913402907  1.0000
  C   C34       1.0  0.6342702584331151  0.18537652882140954  0.18076013055656914  1.0000
  C   C35       1.0  0.5671648849444769  0.13745964413461165  0.18357130680757483  1.0000
  C   C36       1.0  0.5183503648809769  0.1867983383821803  0.09164626774011198  1.0000
  C   C37       1.0  0.5372486808163587  0.2845462752666097  0.9967494626325312  1.0000
  C   C38       1.0  0.6043334125527186  0.3325647648967567  0.9936717455576165  1.0000
  N   N4        1.0  0.44971713144973036  0.13773087237127424  0.09465817021988188  1.0000
  H   H19       1.0  0.8521676667582032  0.4252555358375114  0.5234831834404181  1.0000
  H   H20       1.0  0.7326708473739137  0.34170993779573544  0.2906839078446457  1.0000
  H   H21       1.0  0.7332709862119825  0.3387588570339113  0.8737706782461147  1.0000
  H   H22       1.0  0.9117597232023706  0.4680515457405863  0.07438117166988012  1.0000
  H   H23       1.0  0.8520990040539356  0.42559362704920983  0.6305125385992468  1.0000
  H   H24       1.0  0.6712723519803117  0.14449209763935822  0.25188018020111524  1.0000
  H   H25       1.0  0.5532731852632574  0.061645147228619024  0.2572112671868019  1.0000
  H   H26       1.0  0.4999590903537378  0.3237702014417668  0.9253556661740885  1.0000
  H   H27       1.0  0.6174209653837508  0.4092591492220734  0.9203535835774495  1.0000
  H   H28       1.0  0.4129696347924037  0.17389933951696035  0.026526544648874266  1.0000
  H   H29       1.0  0.4351447149122323  0.06487296395914766  0.16504238967335572  1.0000
  Zn  Zn1       1.0  0.7510668325114416  0.4083238638796911  0.5771669768071763  1.0000
  Zn  Zn2       1.0  0.9018347058938737  0.4058078244016905  0.579081932272081  1.0000
  C   C39       1.0  0.8264370999597102  0.4019639798601864  0.8153091443712899  1.0000
  C   C40       1.0  0.8264660850970831  0.41216931958433056  0.3409399131167409  1.0000
  C   C41       1.0  0.8264911965220634  0.6442538625424439  0.5729551360106648  1.0000
  C   C42       1.0  0.8264119368184658  0.16987787749773967  0.5832939900244151  1.0000
  O   O1        1.0  0.8836778915641861  0.412960081298291  0.3900503618035408  1.0000
  O   O2        1.0  0.8836546207149818  0.3992626225762963  0.7676517287220488  1.0000
  O   O3        1.0  0.8836975329964545  0.5949147802943617  0.5719491425097293  1.0000
  O   O4        1.0  0.8836349278434035  0.21730793369955004  0.5857528499923279  1.0000
  O   O5        1.0  0.7692665591122365  0.5968237554418443  0.5704960584266179  1.0000
  O   O6        1.0  0.7692236470973527  0.40117315798812436  0.7661985754315777  1.0000
  O   O7        1.0  0.7692469180803742  0.4148705709834735  0.388595647182038  1.0000
  O   O8        1.0  0.7692039543492263  0.21921841412542098  0.5842982327340474  1.0000
