data_image0
_chemical_formula_structural       NC10NC3NH7C12NCOCH13C10NCOCH13Zn2C4O8
_chemical_formula_sum              "N5 C43 H33 O10 Zn2"
_cell_length_a       19.210446455230148
_cell_length_b       10.299155265289647
_cell_length_c       10.299158637457996
_cell_angle_alpha    85.56442242627145
_cell_angle_beta     89.9723271520695
_cell_angle_gamma    89.9251083167036

_space_group_name_H-M_alt    "P 1"
_space_group_IT_number       1

loop_
  _space_group_symop_operation_xyz
  'x, y, z'

loop_
  _atom_site_type_symbol
  _atom_site_label
  _atom_site_symmetry_multiplicity
  _atom_site_fract_x
  _atom_site_fract_y
  _atom_site_fract_z
  _atom_site_occupancy
  N   N1        1.0  0.6554207056111693  0.419785944454212  0.5669557961070519  1.0000
  C   C1        1.0  0.5951914875845423  0.42199366807504757  0.5671863960326022  1.0000
  C   C2        1.0  0.5203862190046936  0.4247308410143347  0.567472080048889  1.0000
  C   C3        1.0  0.4847396170160068  0.5409732974221908  0.5825550137070767  1.0000
  C   C4        1.0  0.4120741016132277  0.5411248258153933  0.5825023782739231  1.0000
  C   C5        1.0  0.3752192472070548  0.42543987882331225  0.5675583871875001  1.0000
  C   C6        1.0  0.2978975329635241  0.4240832722477781  0.5674081320627717  1.0000
  C   C7        1.0  0.2601229218123888  0.5276386063350103  0.5040201788140846  1.0000
  C   C8        1.0  0.18734498843516134  0.5262362559006057  0.5039114530832896  1.0000
  C   C9        1.0  0.15134018837380453  0.4215360791721823  0.5671396193523035  1.0000
  C   C10       1.0  0.0764110655811989  0.4202338744773204  0.5670031140533791  1.0000
  N   N2        1.0  0.016173532669518306  0.4191868577030184  0.566893398680155  1.0000
  C   C11       1.0  0.1883911094369682  0.31810643659600646  0.6305025326863891  1.0000
  C   C12       1.0  0.2611709635280003  0.31923451974165196  0.6306615728730129  1.0000
  C   C13       1.0  0.4134751412759572  0.3110178826867174  0.5527631665060828  1.0000
  N   N3        1.0  0.484244355897347  0.31346305730670965  0.5529281213350561  1.0000
  H   H1        1.0  0.5128128760750357  0.6304162239419626  0.5945812371721919  1.0000
  H   H2        1.0  0.3847771667354731  0.6311501194466358  0.5959231882997498  1.0000
  H   H3        1.0  0.2868340912140243  0.6088796511420174  0.45300901659855985  1.0000
  H   H4        1.0  0.1591825094601854  0.6066499929580347  0.4542308981797194  1.0000
  H   H5        1.0  0.16104055088791872  0.23672921255272206  0.6800838423148259  1.0000
  H   H6        1.0  0.28868832349971957  0.23894045748905704  0.6817798326872639  1.0000
  H   H7        1.0  0.3872381394823801  0.22012960189137679  0.5392963241162856  1.0000
  C   C14       1.0  0.8358781710620077  0.03808883822022291  0.5670432912456052  1.0000
  C   C15       1.0  0.8240104873584759  0.047772524675775196  0.4321193688740181  1.0000
  C   C16       1.0  0.8179259254001819  0.9355447549102534  0.3635923850294691  1.0000
  C   C17       1.0  0.8238441005195812  0.8125129490229944  0.4318116110389594  1.0000
  C   C18       1.0  0.8357227401549079  0.8008740323991373  0.5668171225582255  1.0000
  C   C19       1.0  0.8416697429637064  0.9141791081667704  0.6336018117650957  1.0000
  C   C20       1.0  0.8053722083460522  0.946762593783566  0.22085916698836505  1.0000
  C   C21       1.0  0.8406882483547099  0.04079306375026359  0.13943498613701855  1.0000
  C   C22       1.0  0.8288801012092668  0.05121890238912253  0.005113515939163097  1.0000
  C   C23       1.0  0.7819526641268968  0.9669395801113804  0.9493707456481277  1.0000
  C   C24       1.0  0.745786358610863  0.8747267893889533  0.030726913709665293  1.0000
  C   C25       1.0  0.7576198650548314  0.8640448792241285  0.1650110438376453  1.0000
  N   N4        1.0  0.7679049674569272  0.9771670773891811  0.8118113157253998  1.0000
  C   C26       1.0  0.8187485802653358  0.013992865734248296  0.7135842200523044  1.0000
  O   O1        1.0  0.8826028209301859  0.016428604136959894  0.7414317545287754  1.0000
  C   C27       1.0  0.7965654736117556  0.0404393530043421  0.5750473588296483  1.0000
  H   H8        1.0  0.8404645975515795  0.36184022767520707  0.6189351050243364  1.0000
  H   H9        1.0  0.8185119881050038  0.14281287573011903  0.3803103795915186  1.0000
  H   H10       1.0  0.8201086011274218  0.7257059746766693  0.37918350096511455  1.0000
  H   H11       1.0  0.850825878843672  0.9059950093239666  0.7376710068135817  1.0000
  H   H12       1.0  0.8585598926636396  0.5716221417418571  0.8215020723070998  1.0000
  H   H13       1.0  0.8778517285674743  0.10579045458020243  0.17952111194058173  1.0000
  H   H14       1.0  0.8555947230638594  0.1266142181544734  0.9455281134235873  1.0000
  H   H15       1.0  0.7085562240349418  0.8104333273189932  0.9897737584410399  1.0000
  H   H16       1.0  0.7286683539408435  0.7922698492182767  0.22542978553251358  1.0000
  H   H17       1.0  0.7188821077581069  0.9483715823599673  0.7807461701484756  1.0000
  H   H18       1.0  0.7463184195468376  0.09396726769714303  0.5706023837284868  1.0000
  H   H19       1.0  0.7901318857181909  0.9468282902897711  0.5298241391890164  1.0000
  H   H20       1.0  0.8362021907018814  0.10044996786948257  0.5196448909193347  1.0000
  C   C28       1.0  0.8358657336504999  0.4193433313099528  0.18555715215166124  1.0000
  C   C29       1.0  0.8374552130006889  0.5560541765452762  0.17420279496786772  1.0000
  C   C30       1.0  0.838206439008721  0.6255084250921923  0.05128831445590376  1.0000
  C   C31       1.0  0.8373218848396441  0.5564142946165056  0.9388912327280092  1.0000
  C   C32       1.0  0.8357351551227974  0.4196195296506771  0.9483033081670467  1.0000
  C   C33       1.0  0.8350198932691174  0.3519251619179298  0.07202390656104818  1.0000
  C   C34       1.0  0.8398887473115236  0.7701317222592281  0.04025033624834529  1.0000
  C   C35       1.0  0.8825994361723888  0.8378997746543517  0.12279021575594551  1.0000
  C   C36       1.0  0.88418825001683  0.9739979153104259  0.11227203787448169  1.0000
  C   C37       1.0  0.7984393411852257  0.8415795556136331  0.9476088764806946  1.0000
  N   N5        1.0  0.8432449435349753  0.1851130301522157  0.006831605345487106  1.0000
  C   C38       1.0  0.9028682333668379  0.2640078186576984  0.030029435651569125  1.0000
  O   O2        1.0  0.9628948310726979  0.21449177650285378  0.038549839804683295  1.0000
  C   C39       1.0  0.894673618847456  0.4078473322368463  0.034590765416746105  1.0000
  H   H21       1.0  0.8352761606791068  0.3667565943304912  0.5174002937272162  1.0000
  H   H22       1.0  0.8371401552500426  0.6088758973664943  0.26113804188809464  1.0000
  H   H23       1.0  0.838820193025295  0.609429374105543  0.8439036442941413  1.0000
  H   H24       1.0  0.8337962736117667  0.24647688899776332  0.08006688998159683  1.0000
  H   H25       1.0  0.8331628785814181  0.16141048657097287  0.7587758233488171  1.0000
  H   H26       1.0  0.9151894669574185  0.7856147076857144  0.19499260656017858  1.0000
  H   H27       1.0  0.9162993064658435  0.02328786209228983  0.17928336921304266  1.0000
  H   H28       1.0  0.7674291930590542  0.030809939299865075  0.8657183355672147  1.0000
  H   H29       1.0  0.7640478040554992  0.7922466122473785  0.8842821953327854  1.0000
  H   H30       1.0  0.7981122168789381  0.23264652316191195  0.9718786054894402  1.0000
  H   H31       1.0  0.8457226278715898  0.4296449237772891  0.0860105947880887  1.0000
  H   H32       1.0  0.8927925864938929  0.45452128732515895  0.9338584566016883  1.0000
  H   H33       1.0  0.9390749011804932  0.4485442904095404  0.08722575703979829  1.0000
  Zn  Zn1       1.0  0.7595261773928463  0.41960959936030795  0.5669452897333951  1.0000
  Zn  Zn2       1.0  0.9120680452838884  0.4193526233052245  0.5669145440844958  1.0000
  C   C40       1.0  0.8357593367148726  0.41439323754747104  0.8041294613909729  1.0000
  C   C41       1.0  0.8358365513585203  0.42457062110075694  0.32973049907315444  1.0000
  C   C42       1.0  0.8357494036346141  0.656689498117546  0.5616846586676627  1.0000
  C   C43       1.0  0.8358464326930592  0.1822728002236158  0.572175371508977  1.0000
  O   O3        1.0  0.8937156025555308  0.426221760065616  0.3781047252061944  1.0000
  O   O4        1.0  0.8936560339322854  0.41254607977134095  0.7557315264622166  1.0000
  O   O5        1.0  0.893647232243867  0.608203376239695  0.5599556326828432  1.0000
  O   O6        1.0  0.8937243522065195  0.23056447294061333  0.5738805216175777  1.0000
  O   O7        1.0  0.7778698184151629  0.6083977498140236  0.5599793122039738  1.0000
  O   O8        1.0  0.7778786197942484  0.4127420137418414  0.7557551362744952  1.0000
  O   O9        1.0  0.7779381887403244  0.42641764821131645  0.3781267736142142  1.0000
  O   O10       1.0  0.7779469383736906  0.23076035183206758  0.5739026673972485  1.0000
