data_image0
_chemical_formula_structural       NC10NC5H10C13OH12C12ClH9Zn2C4O8
_chemical_formula_sum              "N2 C44 H31 O9 Cl1 Zn2"
_cell_length_a       19.4436361288709
_cell_length_b       10.299150109392551
_cell_length_c       10.299771906710086
_cell_angle_alpha    85.52403423523229
_cell_angle_beta     89.71369758328774
_cell_angle_gamma    89.39953782186458

_space_group_name_H-M_alt    "P 1"
_space_group_IT_number       1

loop_
  _space_group_symop_operation_xyz
  'x, y, z'

loop_
  _atom_site_type_symbol
  _atom_site_label
  _atom_site_symmetry_multiplicity
  _atom_site_fract_x
  _atom_site_fract_y
  _atom_site_fract_z
  _atom_site_occupancy
  N   N1        1.0  0.6472800967720482  0.4098409781027166  0.5616207032153969  1.0000
  C   C1        1.0  0.5884445396410969  0.4197369363698418  0.5760014123765228  1.0000
  C   C2        1.0  0.5151157352260968  0.43207849785464186  0.5939896569632039  1.0000
  C   C3        1.0  0.4729237538706222  0.40012332240517295  0.49932635447172297  1.0000
  C   C4        1.0  0.3970180354842527  0.41055994510443145  0.5046509672411723  1.0000
  C   C5        1.0  0.35729842963197095  0.3857600209439356  0.6117319053441594  1.0000
  C   C6        1.0  0.281175342061726  0.38968300966001856  0.598771189785738  1.0000
  C   C7        1.0  0.24061580300544524  0.4473050364021833  0.6925228878143209  1.0000
  C   C8        1.0  0.16895026032570895  0.4509480080106705  0.6819777494105544  1.0000
  C   C9        1.0  0.1368496110963673  0.3965727761681469  0.5779675722295194  1.0000
  C   C10       1.0  0.0630547908304966  0.4002770684967669  0.5672671310447026  1.0000
  N   N2        1.0  0.003728760540579199  0.4032551250821426  0.5586646857417461  1.0000
  C   C11       1.0  0.17668443731230293  0.33824342382270967  0.4845993455893288  1.0000
  C   C12       1.0  0.24836638250521867  0.3345463417194978  0.49489272400693  1.0000
  C   C13       1.0  0.3854570125168207  0.3452347348073535  0.7428403328523292  1.0000
  C   C14       1.0  0.4441198179499075  0.3883379056016701  0.7900685859692151  1.0000
  C   C15       1.0  0.48829954566129735  0.4862385998019616  0.7156683869802906  1.0000
  H   H1        1.0  0.4950149761468441  0.371046186551055  0.40902901113163503  1.0000
  H   H2        1.0  0.3723024016991187  0.4330999669429607  0.41148489768369845  1.0000
  H   H3        1.0  0.2644902234076879  0.49056150146426925  0.7733569969494115  1.0000
  H   H4        1.0  0.1386079310896034  0.49623206812220433  0.754883699793145  1.0000
  H   H5        1.0  0.1523381479098292  0.2951824751315273  0.40409965509072276  1.0000
  H   H6        1.0  0.27804358614279656  0.28701839004557694  0.42268385530327923  1.0000
  H   H7        1.0  0.3545119055129857  0.2809825530020129  0.8071087812065735  1.0000
  H   H8        1.0  0.45928965288662943  0.3542221717698048  0.8880146062819835  1.0000
  H   H9        1.0  0.4581711174542037  0.5769718101185786  0.6903862120371733  1.0000
  H   H10       1.0  0.5315891647639931  0.5117970826410856  0.7787450022880773  1.0000
  C   C16       1.0  0.8255725547116781  0.02514711048343376  0.5602862793524515  1.0000
  C   C17       1.0  0.824317388125386  0.013326351838775173  0.6971070481446078  1.0000
  C   C18       1.0  0.823621123993517  0.8901995591095061  0.7662148848376572  1.0000
  C   C19       1.0  0.8241847494925679  0.7780735633883749  0.6967447540897114  1.0000
  C   C20       1.0  0.8254428829496163  0.7879388359143634  0.5600103594317656  1.0000
  C   C21       1.0  0.8261313247843515  0.9119358931805164  0.49258017158981304  1.0000
  C   C22       1.0  0.8222872954800811  0.878676424290005  0.9108656725392859  1.0000
  C   C23       1.0  0.7800006871093103  0.7865577095894324  0.9792375759001002  1.0000
  C   C24       1.0  0.7787227690457131  0.775796281556753  0.11535401152927569  1.0000
  C   C25       1.0  0.8201594731617523  0.8559863068060072  0.18555548548042466  1.0000
  C   C26       1.0  0.8617881120800072  0.9490706261348829  0.11783160842306772  1.0000
  C   C27       1.0  0.8630819956328386  0.9600075563002421  0.9817147516821213  1.0000
  C   C28       1.0  0.8173400666770884  0.8468034796307864  0.33166474319843353  1.0000
  O   O1        1.0  0.7659369003274266  0.9309169303659983  0.3723315695767291  1.0000
  H   H11       1.0  0.8274948970636233  0.2547604383247426  0.30203437227148616  1.0000
  H   H12       1.0  0.8229248687282635  0.10010872070573719  0.7501270304912142  1.0000
  H   H13       1.0  0.8245817018480689  0.6829269458769114  0.7495748344475353  1.0000
  H   H14       1.0  0.8270998145618362  0.9202615175986648  0.3871128577124589  1.0000
  H   H15       1.0  0.8258805120590796  0.4642587530489705  0.5074178996083483  1.0000
  H   H16       1.0  0.7471037100380176  0.7241735094790331  0.9274018322063373  1.0000
  H   H17       1.0  0.7452694816809321  0.7050686801279976  0.16600685998935427  1.0000
  H   H18       1.0  0.8934182491125259  0.01303096484608646  0.1704240615590078  1.0000
  H   H19       1.0  0.8965583968327485  0.03117990633084378  0.9318683526292459  1.0000
  H   H20       1.0  0.8679353412495452  0.8736850335966626  0.3714150621683854  1.0000
  H   H21       1.0  0.8061660028679256  0.7449765719512929  0.3695698878839534  1.0000
  H   H22       1.0  0.7661999391789616  0.9212039938841005  0.46895580828735983  1.0000
  C   C29       1.0  0.8254749643736569  0.4066499280409934  0.17877927326946375  1.0000
  C   C30       1.0  0.8878480240320322  0.47438613799664164  0.17190931449243396  1.0000
  C   C31       1.0  0.9194865188489906  0.5085998376200052  0.05129767460945667  1.0000
  C   C32       1.0  0.8879144078073078  0.47416973152478725  0.9366390658540671  1.0000
  C   C33       1.0  0.8255404633959716  0.40643609801741754  0.9415173750778179  1.0000
  C   C34       1.0  0.7946703496846477  0.37305466836033463  0.06305246317421798  1.0000
  C   C35       1.0  0.9854724720552556  0.5802576951855152  0.04508357524869954  1.0000
  C   C36       1.0  0.9963252877753994  0.6830708081023038  0.12475826584862149  1.0000
  C   C37       1.0  0.05846382126511851  0.7504156998676432  0.11872181956021399  1.0000
  C   C38       1.0  0.11045458647129848  0.7159815306129529  0.03331475826670415  1.0000
  C   C39       1.0  0.1002582352966348  0.6140158264514615  0.9537631067349384  1.0000
  C   C40       1.0  0.03818138459640564  0.5464694566464987  0.9594234830224813  1.0000
  Cl  Cl1       1.0  0.18837551060400792  0.8005991848467717  0.0259777150694056  1.0000
  H   H23       1.0  0.8016895497527794  0.38089668583311576  0.5088461396152639  1.0000
  H   H24       1.0  0.9124516269003593  0.4991331480721046  0.2606769336591388  1.0000
  H   H25       1.0  0.9116115166030468  0.5018753113805418  0.8433227628117418  1.0000
  H   H26       1.0  0.7465519870870618  0.3208004281089254  0.06758412070552922  1.0000
  H   H27       1.0  0.8017862369013629  0.38058030179635427  0.615926267284074  1.0000
  H   H28       1.0  0.9564478238043223  0.7124630928814941  0.1904524939093304  1.0000
  H   H29       1.0  0.06605541195342823  0.8295559368805631  0.1802636897021732  1.0000
  H   H30       1.0  0.14044920925985774  0.5867650734585879  0.8877219238644937  1.0000
  H   H31       1.0  0.03173147720960201  0.4667678030352504  0.8980918763534244  1.0000
  Zn  Zn1       1.0  0.750143483923018  0.40793696941651886  0.5607751738234843  1.0000
  Zn  Zn2       1.0  0.9008653676255585  0.405148522201332  0.5595209001545365  1.0000
  C   C41       1.0  0.8255274343279246  0.40130240691305286  0.7973453997970741  1.0000
  C   C42       1.0  0.825483062831299  0.4117846929762223  0.32295078735798266  1.0000
  C   C43       1.0  0.8254634084135258  0.643756518088441  0.5548873518969563  1.0000
  C   C44       1.0  0.8255470375860694  0.1693290222995696  0.5654089054892402  1.0000
  O   O2        1.0  0.88268395108232  0.4124440995928125  0.3708600762382446  1.0000
  O   O3        1.0  0.8827209684745942  0.39852565368061804  0.7484837727322932  1.0000
  O   O4        1.0  0.8826684957962951  0.5943104285919047  0.5526971895501672  1.0000
  O   O5        1.0  0.8827363723195075  0.21665933495133724  0.5666465624703095  1.0000
  O   O6        1.0  0.7682724277950865  0.5964261576194898  0.5536495119289018  1.0000
  O   O7        1.0  0.7683249001990313  0.4006429431624439  0.7494360253010783  1.0000
  O   O8        1.0  0.7682878827260938  0.41456134425182967  0.3718107674218442  1.0000
  O   O9        1.0  0.7683403039704103  0.21877657029351916  0.5675973510251611  1.0000
