data_image0
_chemical_formula_structural       NC8NH4C9H8C7OH5Zn2C4O8
_chemical_formula_sum              "N2 C28 H17 O9 Zn2"
_cell_length_a       13.859017124695912
_cell_length_b       9.275152443626249
_cell_length_c       9.274074313596557
_cell_angle_alpha    85.92156872667384
_cell_angle_beta     90.23359480828564
_cell_angle_gamma    90.57357307376715

_space_group_name_H-M_alt    "P 1"
_space_group_IT_number       1

loop_
  _space_group_symop_operation_xyz
  'x, y, z'

loop_
  _atom_site_type_symbol
  _atom_site_label
  _atom_site_symmetry_multiplicity
  _atom_site_fract_x
  _atom_site_fract_y
  _atom_site_fract_z
  _atom_site_occupancy
  N   N1        1.0  0.9147097656662726  0.5631344162246656  0.40481921155586303  1.0000
  C   C1        1.0  0.8420453780384131  0.5397174143454664  0.3487403288274013  1.0000
  C   C2        1.0  0.751655218296905  0.5105900809444697  0.27898540460595234  1.0000
  C   C3        1.0  0.6644157936479825  0.5389862677163497  0.34698767708114364  1.0000
  C   C4        1.0  0.5764249050218451  0.5105913014358308  0.278984821135719  1.0000
  C   C5        1.0  0.5758557413935217  0.45379244122387274  0.14295881543822309  1.0000
  C   C6        1.0  0.6629140511383801  0.4255053975817247  0.07521830246763873  1.0000
  C   C7        1.0  0.7507210878378318  0.4537901026538733  0.14296000177583812  1.0000
  C   C8        1.0  0.48680554412931837  0.5397183362780964  0.3487398276639031  1.0000
  N   N2        1.0  0.41476089280996836  0.5631347368075574  0.40481899445503133  1.0000
  H   H1        1.0  0.6649975485864795  0.5829507843645714  0.4522750615057093  1.0000
  H   H2        1.0  0.508264563284318  0.4314435482519687  0.08943357589990697  1.0000
  H   H3        1.0  0.662333545406336  0.3816306676269132  0.9701441401893682  1.0000
  H   H4        1.0  0.81772075620799  0.4314391181554227  0.08943576861279356  1.0000
  C   C9        1.0  0.16189767997351656  0.1395167402309802  0.40629052296548623  1.0000
  C   C10       1.0  0.1267477361585989  0.22105411929308058  0.283848963380925  1.0000
  C   C11       1.0  0.10056046429182654  0.15438825445046642  0.15911498854898137  1.0000
  C   C12       1.0  0.10911051800607474  0.004999572139050555  0.15435287737145242  1.0000
  C   C13       1.0  0.14237074193605695  0.9217638865004195  0.2757596477776221  1.0000
  C   C14       1.0  0.16758217769568765  0.9867414959060937  0.4033601685395334  1.0000
  C   C15       1.0  0.08260774343381727  0.9365819971729056  0.025183001473902074  1.0000
  C   C16       1.0  0.06041783504423416  0.8792648364229243  0.917023482809349  1.0000
  C   C17       1.0  0.03349476063876433  0.8097085986922693  0.7857908759506972  1.0000
  H   H5        1.0  0.30134870857595586  0.2239939336928067  0.6941256351378593  1.0000
  H   H6        1.0  0.12166372850493024  0.3375671512241214  0.2833956154123445  1.0000
  H   H7        1.0  0.07450179233064702  0.2197116631663203  0.06577210459418237  1.0000
  H   H8        1.0  0.14642201073451622  0.8054143899356195  0.27173908171418915  1.0000
  H   H9        1.0  0.2583858529683609  0.6933748083001062  0.600229723251281  1.0000
  H   H10       1.0  0.051171611991025046  0.6931189606689537  0.7992552798294544  1.0000
  H   H11       1.0  0.9549061104929979  0.822097415149824  0.7660602527186243  1.0000
  H   H12       1.0  0.07398195601221924  0.8611413395596833  0.6925005930176791  1.0000
  C   C18       1.0  0.16355674334885384  0.5589743363020656  0.9815985573154737  1.0000
  C   C19       1.0  0.07971269831637318  0.6015627678929822  0.05134014077711214  1.0000
  C   C20       1.0  0.0006978639576860105  0.6557444641645832  0.9719705398147621  1.0000
  C   C21       1.0  0.0036799372309672673  0.668778888513242  0.8206454545036813  1.0000
  C   C22       1.0  0.08620950330612409  0.6244488571216973  0.7497700093289001  1.0000
  C   C23       1.0  0.16592307359082947  0.5672838214246092  0.828052222140335  1.0000
  C   C24       1.0  0.9210714105677903  0.7269275966470994  0.7350536586276928  1.0000
  O   O1        1.0  0.8457296075863955  0.7671207409944023  0.7956209477759056  1.0000
  H   H13       1.0  0.3990685289316984  0.5222216380232889  0.08851415407693634  1.0000
  H   H14       1.0  0.9376100600591665  0.6887677827822241  0.029257998406814645  1.0000
  H   H15       1.0  0.08737448043529693  0.631439689109403  0.6325891665330099  1.0000
  H   H16       1.0  0.3241956886435065  0.5373014411901635  0.5506900371697867  1.0000
  H   H17       1.0  0.9245564488633956  0.735683754077974  0.6181538547862924  1.0000
  Zn  Zn1       1.0  0.05901371970827429  0.5631307390340519  0.4048274894612105  1.0000
  Zn  Zn2       1.0  0.2704568852238911  0.5631267624902949  0.40482257802367294  1.0000
  C   C25       1.0  0.16543510075144696  0.5599663550215084  0.6680741891622451  1.0000
  C   C26       1.0  0.1640378257413435  0.5662929679979853  0.141576013430387  1.0000
  C   C27       1.0  0.16648665817152497  0.8265415747400835  0.398170914450603  1.0000
  C   C28       1.0  0.16298618475661367  0.29971601587832364  0.4114793709762709  1.0000
  O   O2        1.0  0.2444408185289879  0.5687413651677871  0.1952640670168797  1.0000
  O   O3        1.0  0.24551256966678126  0.5575138474156185  0.6143819967940541  1.0000
  O   O4        1.0  0.2463606380768835  0.7727767233740099  0.3964331876911604  1.0000
  O   O5        1.0  0.2435926777347941  0.3534784984693353  0.413212768023542  1.0000
  O   O6        1.0  0.08587785504218592  0.7727790030578647  0.3964372994554312  1.0000
  O   O7        1.0  0.08502979804154953  0.5575178595034126  0.614386025718173  1.0000
  O   O8        1.0  0.08395804178646162  0.5687453099756086  0.19526636333959058  1.0000
  O   O9        1.0  0.08310990122117358  0.3534824340200704  0.41321517243657446  1.0000
