data_image0
_chemical_formula_structural       NC8NH4C7NC4H8C7NC4H8Zn2C4O8
_chemical_formula_sum              "N4 C34 H20 Zn2 O8"
_cell_length_a       14.927258825633057
_cell_length_b       12.588824482244284
_cell_length_c       12.588827829612493
_cell_angle_alpha    85.46606077560155
_cell_angle_beta     91.15413518023296
_cell_angle_gamma    89.978967061647

_space_group_name_H-M_alt    "P 1"
_space_group_IT_number       1

loop_
  _space_group_symop_operation_xyz
  'x, y, z'

loop_
  _atom_site_type_symbol
  _atom_site_label
  _atom_site_symmetry_multiplicity
  _atom_site_fract_x
  _atom_site_fract_y
  _atom_site_fract_z
  _atom_site_occupancy
  N   N1        1.0  0.8212705746993995  0.02508705862987681  0.7060122285346035  1.0000
  C   C1        1.0  0.743744150516714  0.025087039948999964  0.7060122378996567  1.0000
  C   C2        1.0  0.6473115094483203  0.0250870445979261  0.7060122778610525  1.0000
  C   C3        1.0  0.5993108750305045  0.9519490039133752  0.6488520987372861  1.0000
  C   C4        1.0  0.5055995632818696  0.951948935064801  0.6488520861383011  1.0000
  C   C5        1.0  0.4594955108676576  0.025087076014216777  0.7060122094443593  1.0000
  C   C6        1.0  0.5074961439431234  0.09822511477463271  0.763172309291838  1.0000
  C   C7        1.0  0.6012075226833724  0.09822518362153998  0.7631723218953836  1.0000
  C   C8        1.0  0.3630628686196965  0.025086999077194246  0.7060121783483446  1.0000
  N   N2        1.0  0.2855364442742284  0.02508706005813123  0.7060121794945206  1.0000
  H   H1        1.0  0.6342691609995452  0.895043339988273  0.6043783051134444  1.0000
  H   H2        1.0  0.4691655063529254  0.8950433310903356  0.6043783777266258  1.0000
  H   H3        1.0  0.47253785797408243  0.15513077869973493  0.8076461029156796  1.0000
  H   H4        1.0  0.6376415139630527  0.15513078952180748  0.8076461095787859  1.0000
  C   C9        1.0  0.054140708242769606  0.7123648615700624  0.7439153603900659  1.0000
  C   C10       1.0  0.10132469030724622  0.6964532977100062  0.8416330898403861  1.0000
  C   C11       1.0  0.14204724421333312  0.5984424407841882  0.8716866657439839  1.0000
  C   C12       1.0  0.13583080166011574  0.5151335336646661  0.8050413375980036  1.0000
  C   C13       1.0  0.08774395573221594  0.5288731225242205  0.7079450095233761  1.0000
  C   C14       1.0  0.04814616039228414  0.6280129388821016  0.6771145159673607  1.0000
  C   C15       1.0  0.0828882203920418  0.44210752751110144  0.6354719198200797  1.0000
  N   N3        1.0  0.11187972733781115  0.4636585986548192  0.5341203467610918  1.0000
  C   C16       1.0  0.11473772893212231  0.38842848925926654  0.4627382300729263  1.0000
  C   C17       1.0  0.08827995842582292  0.2844741268442485  0.4924029618938714  1.0000
  C   C18       1.0  0.05731977852973302  0.2592911373549374  0.5950361630939921  1.0000
  C   C19       1.0  0.05267508484224414  0.33780214859320756  0.6681190663177972  1.0000
  H   H5        1.0  0.9891410326923681  0.9711903237199621  0.7574939384661387  1.0000
  H   H6        1.0  0.10716686508211179  0.7598149703366307  0.8947104676111335  1.0000
  H   H7        1.0  0.17883840419789632  0.5871684830222097  0.946708881153441  1.0000
  H   H8        1.0  0.1687283003944344  0.4400680070367021  0.8288965635223506  1.0000
  H   H9        1.0  0.01220067499697163  0.638833163785077  0.6013709658650578  1.0000
  H   H10       1.0  0.13831628806520355  0.40928650295512314  0.38311562041330505  1.0000
  H   H11       1.0  0.09087940774228476  0.22404868887838653  0.43596119816315543  1.0000
  H   H12       1.0  0.9860782578524179  0.18253219458684342  0.8872549755121429  1.0000
  C   C20       1.0  0.04820575658243098  0.9877135925987965  0.39912453012945126  1.0000
  C   C21       1.0  0.07946755572791253  0.882309691125963  0.4000368460051808  1.0000
  C   C22       1.0  0.11493481023883811  0.8446562844441972  0.30824306309572863  1.0000
  C   C23       1.0  0.11922257290013283  0.9113571343805993  0.2144928802440076  1.0000
  C   C24       1.0  0.08697309259521124  0.016330996773239025  0.21146768541571687  1.0000
  C   C25       1.0  0.05273669914918511  0.05452284544124919  0.30431641757800754  1.0000
  C   C26       1.0  0.09351412725341501  0.08848391747178506  0.1134236524090162  1.0000
  N   N4        1.0  0.13795438484318678  0.18223996309317614  0.1206254937090141  1.0000
  C   C27       1.0  0.1519330360279274  0.2517805735200753  0.03459067551641892  1.0000
  C   C28       1.0  0.12119927507105976  0.22792905604910252  0.9341212086374429  1.0000
  C   C29       1.0  0.07461690927650544  0.13330760573412273  0.9234051288701083  1.0000
  C   C30       1.0  0.05861003806607123  0.06245337972308218  0.01290994264861434  1.0000
  H   H13       1.0  0.9819719898491013  0.9873611943096107  0.6574409525526085  1.0000
  H   H14       1.0  0.07693184754441405  0.8290101834335077  0.47174957827444786  1.0000
  H   H15       1.0  0.1394940892840264  0.7636200581093884  0.30990800490728065  1.0000
  H   H16       1.0  0.14794081842493623  0.8813548455470666  0.1443849624968749  1.0000
  H   H17       1.0  0.029124377746806204  0.13609865170126373  0.3021210068489517  1.0000
  H   H18       1.0  0.18763727459913437  0.325275646834672  0.04420783739170009  1.0000
  H   H19       1.0  0.13258718628916008  0.28284688288273135  0.8651659659371813  1.0000
  H   H20       1.0  0.9586644218972856  0.8605218533394214  0.8885091840654296  1.0000
  Zn  Zn1       1.0  0.9552477936865037  0.025084935466032077  0.706018602092626  1.0000
  Zn  Zn2       1.0  0.15155940433518045  0.025081485754401056  0.7060154470644942  1.0000
  C   C31       1.0  0.056651337902688274  0.044083555993885054  0.8974054879937945  1.0000
  C   C32       1.0  0.050158002425689574  0.006084221348160006  0.5146285008646494  1.0000
  C   C33       1.0  0.0528769062255947  0.21907406404204877  0.6782816820751725  1.0000
  C   C34       1.0  0.05393237105804304  0.8310924406367841  0.7337525175570304  1.0000
  O   O1        1.0  0.12531243800640057  0.012243617115438093  0.553392054302793  1.0000
  O   O2        1.0  0.13049286924594128  0.03792070196954489  0.8586393364835069  1.0000
  O   O3        1.0  0.1274439820673101  0.17922788261537018  0.6816951786911782  1.0000
  O   O4        1.0  0.12836125685106703  0.8709364345471459  0.7303361328142737  1.0000
  O   O5        1.0  0.9784458741790028  0.17922998667495452  0.6816979163382859  1.0000
  O   O6        1.0  0.9814947574107598  0.037924078694009156  0.8586418633522954  1.0000
  O   O7        1.0  0.9763143050191817  0.012246803730117991  0.5533933291887347  1.0000
  O   O8        1.0  0.9793631252061985  0.8709396230859605  0.7303374869765025  1.0000
