data_image0
_chemical_formula_structural       NC8NH4C7NH5C6NCH8Zn2C4O8
_chemical_formula_sum              "N4 C26 H17 Zn2 O8"
_cell_length_a       13.859017124695912
_cell_length_b       9.275154477615127
_cell_length_c       9.274690524155616
_cell_angle_alpha    86.28222006600178
_cell_angle_beta     89.68734820513919
_cell_angle_gamma    89.43373790894346

_space_group_name_H-M_alt    "P 1"
_space_group_IT_number       1

loop_
  _space_group_symop_operation_xyz
  'x, y, z'

loop_
  _atom_site_type_symbol
  _atom_site_label
  _atom_site_symmetry_multiplicity
  _atom_site_fract_x
  _atom_site_fract_y
  _atom_site_fract_z
  _atom_site_occupancy
  N   N1        1.0  0.9040272970733932  0.5640769550717981  0.41638700005643187  1.0000
  C   C1        1.0  0.8320326126474837  0.5407329768957205  0.36013401118018185  1.0000
  C   C2        1.0  0.7424754721941829  0.5116964753905362  0.29016252430600487  1.0000
  C   C3        1.0  0.6544239492066534  0.540004112137676  0.35837592331835366  1.0000
  C   C4        1.0  0.5672451463592082  0.5116976958964516  0.2901619498745882  1.0000
  C   C5        1.0  0.5683004026889632  0.4550759624197069  0.15371364281406352  1.0000
  C   C6        1.0  0.6561676869375934  0.4268771280310939  0.08576281479283289  1.0000
  C   C7        1.0  0.7431657727635624  0.4550736237473374  0.15371481183319502  1.0000
  C   C8        1.0  0.4767927696359654  0.5407338989051826  0.36013351684379674  1.0000
  N   N2        1.0  0.4040784213248683  0.5640772757280778  0.41638678532915196  1.0000
  H   H1        1.0  0.6537483530206478  0.5838315280258394  0.46399018532598846  1.0000
  H   H2        1.0  0.5013484080476076  0.43279676699298536  0.10002223850819192  1.0000
  H   H3        1.0  0.6568419759801094  0.3831392208046594  0.9803624424801445  1.0000
  H   H4        1.0  0.8108046460837911  0.4327923367620481  0.1000243984130589  1.0000
  C   C9        1.0  0.15685581967382234  0.14067328975212234  0.4147190085129673  1.0000
  C   C10       1.0  0.13084202438709933  0.22274399835162326  0.28763643022424057  1.0000
  C   C11       1.0  0.09695494640087943  0.15565590305278998  0.1672856091212332  1.0000
  C   C12       1.0  0.08852160548431343  0.005581721786712455  0.17259997448724554  1.0000
  C   C13       1.0  0.1154404275336689  0.922278074661761  0.2967858060324746  1.0000
  C   C14       1.0  0.15125916156784688  0.9874700058302279  0.41806726139070854  1.0000
  C   C15       1.0  0.06966313287402914  0.24129506446124482  0.03867135474355754  1.0000
  N   N3        1.0  0.04772809519972565  0.3101333315238086  0.935298438468676  1.0000
  H   H5        1.0  0.17425285684498615  0.2204300107956496  0.7685149767326744  1.0000
  H   H6        1.0  0.134798412299167  0.33966610261746855  0.28335980086079715  1.0000
  H   H7        1.0  0.06196312545110505  0.9526484081128589  0.08010281003478736  1.0000
  H   H8        1.0  0.11037418855896042  0.8058093687371775  0.2966589624331033  1.0000
  H   H9        1.0  0.16707195948842823  0.6907672457104109  0.6551206221137339  1.0000
  C   C16       1.0  0.15562686269708936  0.5603801437105524  0.9931312225641654  1.0000
  C   C17       1.0  0.23360763958611153  0.6227504932128716  0.062115174910587274  1.0000
  C   C18       1.0  0.3065543044256831  0.6960404915672811  0.9819071356892359  1.0000
  C   C19       1.0  0.3007672949669411  0.7066907714207707  0.8310527878847547  1.0000
  C   C20       1.0  0.22485120989606466  0.643461413985175  0.7608547530753641  1.0000
  C   C21       1.0  0.15248807757116525  0.5677631188762537  0.8396549623560041  1.0000
  N   N4        1.0  0.3864193576375122  0.7614720813748743  0.05088760992984011  1.0000
  C   C22       1.0  0.39954778697991666  0.7563965622830873  0.20714908425034562  1.0000
  H   H10       1.0  0.046640501446758575  0.3865813927843933  0.2854428463909802  1.0000
  H   H11       1.0  0.35597217137673814  0.7631316913104662  0.7672173731709313  1.0000
  H   H12       1.0  0.22407060937732767  0.6509005425084766  0.6438114524980212  1.0000
  H   H13       1.0  0.0004544066449205823  0.5001213343053021  0.5639493850416418  1.0000
  H   H14       1.0  0.4385603971977381  0.8154055601562952  0.9864666942145339  1.0000
  H   H15       1.0  0.46669652991467303  0.8135264486647076  0.23305326366521475  1.0000
  H   H16       1.0  0.40570128367093106  0.6424115018783767  0.2509230401900353  1.0000
  H   H17       1.0  0.33765056291503215  0.810449547044046  0.2585648472478542  1.0000
  Zn  Zn1       1.0  0.04833124740630224  0.5640732707330094  0.41639525079508605  1.0000
  Zn  Zn2       1.0  0.2597744972585583  0.5640693015648597  0.41639030983860936  1.0000
  C   C23       1.0  0.1531172132107923  0.5606236575550541  0.679621170995242  1.0000
  C   C24       1.0  0.1549908278595551  0.5675207351636371  0.15316453824618814  1.0000
  C   C25       1.0  0.15233337490587684  0.8273572881771973  0.4116906758620569  1.0000
  C   C26       1.0  0.15577460517776576  0.30078537293191054  0.42109510337609213  1.0000
  O   O1        1.0  0.23501902170447542  0.5699093863800435  0.20687128097286456  1.0000
  O   O2        1.0  0.233569562267288  0.558230902504411  0.625910258983527  1.0000
  O   O3        1.0  0.23293551567081416  0.7736216956303842  0.40955449446381964  1.0000
  O   O4        1.0  0.2356529964822296  0.35451860262708146  0.4232269374638671  1.0000
  O   O5        1.0  0.07245267602744421  0.7736239696736451  0.409558623163939  1.0000
  O   O6        1.0  0.07308671145543699  0.5582349081601139  0.625914317681039  1.0000
  O   O7        1.0  0.07453617771420595  0.5699133266779011  0.2068736065527954  1.0000
  O   O8        1.0  0.07517015215549372  0.3545225335547866  0.4232293710666142  1.0000
