data_image0
_chemical_formula_structural       NC8NH4C6ClH5C7NH4Zn2C4O8
_chemical_formula_sum              "N3 C25 H13 Cl1 Zn2 O8"
_cell_length_a       14.927258825633057
_cell_length_b       9.276545438789551
_cell_length_c       9.275157849593905
_cell_angle_alpha    86.141431454383
_cell_angle_beta     89.74087939768596
_cell_angle_gamma    89.40960858786079

_space_group_name_H-M_alt    "P 1"
_space_group_IT_number       1

loop_
  _space_group_symop_operation_xyz
  'x, y, z'

loop_
  _atom_site_type_symbol
  _atom_site_label
  _atom_site_symmetry_multiplicity
  _atom_site_fract_x
  _atom_site_fract_y
  _atom_site_fract_z
  _atom_site_occupancy
  N   N1        1.0  0.8380258799432463  0.5627577549918212  0.41128877406714515  1.0000
  C   C1        1.0  0.7604994557373879  0.5627577286364008  0.41128878370186006  1.0000
  C   C2        1.0  0.6640668138353267  0.5627577288770735  0.41128883877206074  1.0000
  C   C3        1.0  0.6178377547344706  0.47358977517731593  0.3215163707352522  1.0000
  C   C4        1.0  0.5241264438355754  0.47358968508264265  0.3215163422238847  1.0000
  C   C5        1.0  0.47625081633900107  0.5627577810680389  0.4112887510029648  1.0000
  C   C6        1.0  0.5224798756877848  0.6519257440406379  0.5010611109978909  1.0000
  C   C7        1.0  0.6161912535782182  0.6519258341324021  0.50106113951518  1.0000
  C   C8        1.0  0.3798181753783685  0.5627576829310985  0.41128869601887386  1.0000
  N   N2        1.0  0.30229175047900925  0.5627577642261317  0.4112887076659979  1.0000
  H   H1        1.0  0.6541744264811146  0.40421187929966185  0.2516683710832904  1.0000
  H   H2        1.0  0.4890707704707297  0.40421185656471303  0.25166846828052436  1.0000
  H   H3        1.0  0.4861432039411411  0.7213036399182917  0.5709091106498525  1.0000
  H   H4        1.0  0.6512468597035983  0.7213036533803994  0.5709091214945017  1.0000
  C   C9        1.0  0.07286748841953083  0.13932030607338408  0.4110511920531288  1.0000
  C   C10       1.0  0.0735799731192288  0.22169070687787376  0.27803476527488036  1.0000
  C   C11       1.0  0.06613409384424633  0.15535813096468165  0.147913465200036  1.0000
  C   C12       1.0  0.05779638300789536  0.005775591761653768  0.1488067076347548  1.0000
  C   C13       1.0  0.05847287257682865  0.9218432615208889  0.2793816161390865  1.0000
  C   C14       1.0  0.06745878939071526  0.9861842301763707  0.4115387929265317  1.0000
  Cl  Cl1       1.0  0.06590183391191995  0.2603950029848052  0.9833871280736518  1.0000
  H   H5        1.0  0.1180483692019898  0.4044614401185539  0.6376258160796977  1.0000
  H   H6        1.0  0.07778563667445604  0.33838379277923836  0.2751815114542706  1.0000
  H   H7        1.0  0.0516440251007797  0.9540844544626338  0.04813710017918262  1.0000
  H   H8        1.0  0.05410064998923092  0.805557274322388  0.276731603725189  1.0000
  H   H9        1.0  0.036773959707482096  0.6896930017986351  0.6445738515174715  1.0000
  C   C15       1.0  0.07137785611285574  0.5586764022742563  0.9880948690183757  1.0000
  C   C16       1.0  0.14829163638677567  0.6056835603369664  0.05781796065154898  1.0000
  C   C17       1.0  0.2205375942303669  0.6640292198255577  0.9779733834644416  1.0000
  C   C18       1.0  0.21671041846131467  0.67629529666529  0.8273214988892983  1.0000
  C   C19       1.0  0.1416458940673877  0.6281204978287229  0.7562561929968536  1.0000
  C   C20       1.0  0.06894842519288291  0.566828056035434  0.8344951331123944  1.0000
  C   C21       1.0  0.2983165746098948  0.7130444732718246  0.0510052233525078  1.0000
  N   N3        1.0  0.36083096357393707  0.7524395204799071  0.10971049954401148  1.0000
  H   H10       1.0  0.8537208360582731  0.5100584763021687  0.09590450059309764  1.0000
  H   H11       1.0  0.2722030000720075  0.7219061210034386  0.7645249593751743  1.0000
  H   H12       1.0  0.14139929575707533  0.6357014405679751  0.6391961180333081  1.0000
  H   H13       1.0  0.9233786399285202  0.5280400476083948  0.557066308486271  1.0000
  Zn  Zn1       1.0  0.9720029909171889  0.5627539664262775  0.411297083401117  1.0000
  Zn  Zn2       1.0  0.16831469423540898  0.5627498291931639  0.41129222545806543  1.0000
  C   C22       1.0  0.06944230754974721  0.5595428651432584  0.6745040273335885  1.0000
  C   C23       1.0  0.07087750929462477  0.5659627511679859  0.14808542396792304  1.0000
  C   C24       1.0  0.06849300393711188  0.8260535795681663  0.4057037946924687  1.0000
  C   C25       1.0  0.07182675676380978  0.29945030506587966  0.4168857324464546  1.0000
  O   O1        1.0  0.145208896831313  0.5684002556340901  0.20177786855476046  1.0000
  O   O2        1.0  0.14410696862623285  0.5571011288224192  0.6208074802020003  1.0000
  O   O3        1.0  0.1433393853664723  0.7723119156617732  0.40374939142614585  1.0000
  O   O4        1.0  0.14597641334746347  0.3531894780704865  0.4188358492828106  1.0000
  O   O5        1.0  0.9943412048135963  0.7723143175518637  0.40375345957045033  1.0000
  O   O6        1.0  0.9951087772252695  0.5571052623926163  0.6208114725029714  1.0000
  O   O7        1.0  0.9962107107841932  0.5684043222688351  0.2017801281607974  1.0000
  O   O8        1.0  0.9969782270524156  0.3531935354323905  0.4188382169307303  1.0000
