data_image0
_chemical_formula_structural       NC8NH4C6ClH5C6NH7Zn2C4O8
_chemical_formula_sum              "N3 C24 H16 Cl1 Zn2 O8"
_cell_length_a       13.859017124695912
_cell_length_b       10.30297070629231
_cell_length_c       9.274774538082514
_cell_angle_alpha    85.06361778746081
_cell_angle_beta     90.34965622944028
_cell_angle_gamma    89.99834178165982

_space_group_name_H-M_alt    "P 1"
_space_group_IT_number       1

loop_
  _space_group_symop_operation_xyz
  'x, y, z'

loop_
  _atom_site_type_symbol
  _atom_site_label
  _atom_site_symmetry_multiplicity
  _atom_site_fract_x
  _atom_site_fract_y
  _atom_site_fract_z
  _atom_site_occupancy
  N   N1        1.0  0.9020570926260415  0.4333066932318046  0.4080653981633462  1.0000
  C   C1        1.0  0.8294733479768172  0.4131686276014867  0.3518292066854487  1.0000
  C   C2        1.0  0.7391834950032127  0.3881198287377775  0.2818786120061252  1.0000
  C   C3        1.0  0.6518462791698934  0.4125398873261165  0.3500716409853091  1.0000
  C   C4        1.0  0.5639531727504891  0.38812093681699156  0.28187803197014727  1.0000
  C   C5        1.0  0.563579605759407  0.339275340115023  0.14547046163561173  1.0000
  C   C6        1.0  0.6507353313470878  0.3149491356174896  0.07753992587565195  1.0000
  C   C7        1.0  0.7384449694988011  0.33927321579649217  0.14547164148577663  1.0000
  C   C8        1.0  0.4742335072039123  0.4131694656282882  0.35182870803400523  1.0000
  N   N2        1.0  0.40210821732466556  0.43330698535262996  0.4080651818778256  1.0000
  H   H1        1.0  0.6522766320021159  0.4503483036504181  0.45565436847911217  1.0000
  H   H2        1.0  0.4960653865010056  0.3200558937929938  0.09179508281448467  1.0000
  H   H3        1.0  0.6503059160668373  0.27721796371601304  0.9721710212457036  1.0000
  H   H4        1.0  0.8055216121134134  0.3200518704775335  0.09179726316354908  1.0000
  C   C9        1.0  0.15208728055988985  0.05205935448055877  0.4080715251826068  1.0000
  C   C10       1.0  0.251834548551793  0.04869860011982929  0.4358698697025625  1.0000
  C   C11       1.0  0.3013264802205997  0.9300742403862822  0.44966256542011296  1.0000
  C   C12       1.0  0.25183454750415213  0.8135906319816116  0.4358698018270301  1.0000
  C   C13       1.0  0.15208729119479744  0.8145442956460858  0.40807160779991913  1.0000
  C   C14       1.0  0.10269987996150887  0.9343699604542952  0.394307908232189  1.0000
  Cl  Cl1       1.0  0.42593458292221964  0.9273793751910671  0.4843892213306609  1.0000
  H   H5        1.0  0.11451422841677994  0.3806284164406179  0.3975995676605353  1.0000
  H   H6        1.0  0.2915064606694817  0.13788721191415054  0.44692582299217  1.0000
  H   H7        1.0  0.291506422088095  0.7226860198982616  0.4469257193010852  1.0000
  H   H8        1.0  0.02577175973023359  0.9360335492877083  0.3728689448641056  1.0000
  H   H9        1.0  0.1145142248246216  0.4876004476299727  0.39759984014588357  1.0000
  C   C15       1.0  0.15035565848640076  0.43662234203859934  0.9842552266905509  1.0000
  C   C16       1.0  0.21872594514211413  0.5132361633994651  0.05099170992317093  1.0000
  C   C17       1.0  0.2914250218028134  0.5791555436957576  0.9702267646849662  1.0000
  C   C18       1.0  0.2963426094912798  0.5687600709712428  0.821249347057353  1.0000
  C   C19       1.0  0.22828188879515343  0.4950062235350408  0.7528103012399785  1.0000
  C   C20       1.0  0.15381892487821314  0.42998123786362946  0.8318878513786854  1.0000
  N   N3        1.0  0.36090300952762  0.6555887471547888  0.03996849259360235  1.0000
  H   H10       1.0  0.006128120593804186  0.18283193144757126  0.11017559220410034  1.0000
  H   H11       1.0  0.21698909545162115  0.5193935347202365  0.1670118402260583  1.0000
  H   H12       1.0  0.3524717580704435  0.6189203232319969  0.7577185545266083  1.0000
  H   H13       1.0  0.23258452337408797  0.4913949166605292  0.6366372497684076  1.0000
  H   H14       1.0  0.05371324808218025  0.2629968005091752  0.5658061058516983  1.0000
  H   H15       1.0  0.35810107214575027  0.6637301934110404  0.15133841694792127  1.0000
  H   H16       1.0  0.4156394706498463  0.7047280573110559  0.9807263852538636  1.0000
  Zn  Zn1       1.0  0.046361082594972736  0.43330324597074416  0.40807367458162  1.0000
  Zn  Zn2       1.0  0.25780426808454515  0.4332997493158322  0.40806874269738636  1.0000
  C   C21       1.0  0.15316214616990842  0.4260645460602439  0.6716671370198031  1.0000
  C   C22       1.0  0.1510055140414588  0.4405400861759696  0.14447542185922657  1.0000
  C   C23       1.0  0.15205884079174226  0.6704634418835307  0.40232036746693445  1.0000
  C   C24       1.0  0.15210874758316506  0.19613962994542566  0.41382226835879443  1.0000
  O   O1        1.0  0.23146519844988078  0.4418479259984036  0.19824491136280176  1.0000
  O   O2        1.0  0.23318294538827541  0.4247530762022285  0.617893488874055  1.0000
  O   O3        1.0  0.23229093677874935  0.6221082636857034  0.4003940668123167  1.0000
  O   O4        1.0  0.23235713446603334  0.24449274865121495  0.41574422521348997  1.0000
  O   O5        1.0  0.07180814405827163  0.6221102466380277  0.40039819205960825  1.0000
  O   O6        1.0  0.07270015234904448  0.4247566195644761  0.6178975371687392  1.0000
  O   O7        1.0  0.07098239838515097  0.44185143771403396  0.19824722446864773  1.0000
  O   O8        1.0  0.07187433483946437  0.24449625023322508  0.4157466465244779  1.0000
