data_image0
_chemical_formula_structural       NC6NC2H4C6H4C12H9Zn2C4O8
_chemical_formula_sum              "N2 C30 H17 Zn2 O8"
_cell_length_a       14.927258858638513
_cell_length_b       10.681118228259553
_cell_length_c       14.388129018870243
_cell_angle_alpha    83.27315070133545
_cell_angle_beta     90.8946685499874
_cell_angle_gamma    89.99830799242187

_space_group_name_H-M_alt    "P 1"
_space_group_IT_number       1

loop_
  _space_group_symop_operation_xyz
  'x, y, z'

loop_
  _atom_site_type_symbol
  _atom_site_label
  _atom_site_symmetry_multiplicity
  _atom_site_fract_x
  _atom_site_fract_y
  _atom_site_fract_z
  _atom_site_occupancy
  N   N1        1.0  0.8280430224387276  0.42606924646805466  0.9704298435982415  1.0000
  C   C1        1.0  0.7505165313747744  0.42606922134064074  0.9704298504541731  1.0000
  C   C2        1.0  0.6540840233424643  0.4260693230325099  0.9704298181708437  1.0000
  C   C3        1.0  0.6057974280120342  0.4099212973933394  0.8884010270741  1.0000
  C   C4        1.0  0.5120861153673739  0.4099213243167223  0.8884009406606935  1.0000
  C   C5        1.0  0.4662679595355587  0.42606916819881  0.9704298302318485  1.0000
  C   C6        1.0  0.36983538451165554  0.42606926989346044  0.970429797944683  1.0000
  N   N2        1.0  0.292308893447702  0.4260692447660466  0.9704298048006145  1.0000
  C   C7        1.0  0.5145544878743958  0.4422171938407622  0.052458621324756316  1.0000
  C   C8        1.0  0.6082658005190553  0.4422171669173792  0.052458707738162164  1.0000
  H   H1        1.0  0.6405333302678188  0.3973572274838813  0.824577919742413  1.0000
  H   H2        1.0  0.4754296747050227  0.39735739919631596  0.8245779165484017  1.0000
  H   H3        1.0  0.4798186536600084  0.45478125101537303  0.1162817986410489  1.0000
  H   H4        1.0  0.64492224224974  0.4547811727142923  0.11628180309449632  1.0000
  C   C9        1.0  0.060180325670944994  0.058319014587026305  0.9704338472550931  1.0000
  C   C10       1.0  0.10062282336618722  0.979807093268331  0.0445613099856825  1.0000
  C   C11       1.0  0.10062280902755139  0.8489248573945319  0.04456126731103904  1.0000
  C   C12       1.0  0.060180311237644675  0.7938094163672702  0.9704338876047652  1.0000
  C   C13       1.0  0.019771290381249928  0.8723066335186794  0.896367681888279  1.0000
  C   C14       1.0  0.019771304602901774  0.0031988895739909515  0.8963677197715159  1.0000
  H   H5        1.0  0.13232361376002397  0.01944838040278476  0.10266588480569035  1.0000
  H   H6        1.0  0.1323235033703765  0.7909443526964474  0.1026658683178659  1.0000
  H   H7        1.0  0.9880663664846077  0.8327112986838779  0.8382555204056675  1.0000
  H   H8        1.0  0.9880663428883091  0.061135738127185625  0.8382555128159397  1.0000
  C   C15       1.0  0.056054108570418266  0.4408499347809176  0.696334213502336  1.0000
  C   C16       1.0  0.02286947688532815  0.5596516651127088  0.7118730361854686  1.0000
  C   C17       1.0  0.9982944296349786  0.6479588176099649  0.6364870593750129  1.0000
  C   C18       1.0  0.006446995384653318  0.6190436865213431  0.5448703495980127  1.0000
  C   C19       1.0  0.03938188272626754  0.5008409623940642  0.527509604991262  1.0000
  C   C20       1.0  0.0479677502910372  0.4699554694934367  0.4300240796601089  1.0000
  C   C21       1.0  0.08004061884866731  0.5601844185671736  0.35941770231793124  1.0000
  C   C22       1.0  0.08815953586093528  0.5311285941019306  0.26768803579801065  1.0000
  C   C23       1.0  0.06430648823553708  0.411278480357142  0.24453354633111218  1.0000
  C   C24       1.0  0.032168480353508944  0.32100427044140895  0.3150490210113086  1.0000
  C   C25       1.0  0.024118991909638524  0.3500300705246113  0.4067892994966552  1.0000
  C   C26       1.0  0.06408104651449387  0.41225270356491395  0.6038544253390602  1.0000
  H   H9        1.0  0.13334433441614535  0.16453492140423007  0.8141890792027292  1.0000
  H   H10       1.0  0.015874415194443433  0.5844070577945619  0.7822634454091608  1.0000
  H   H11       1.0  0.9725808196374746  0.7390968782391648  0.6491320137695975  1.0000
  H   H12       1.0  0.9858681784823383  0.6885168728815266  0.48761836850182594  1.0000
  H   H13       1.0  0.10001039460096295  0.652860914652668  0.3753711539713447  1.0000
  H   H14       1.0  0.113359012368792  0.6025986315296854  0.21499386650326258  1.0000
  H   H15       1.0  0.012981339458401518  0.22789852853243908  0.2993481825547786  1.0000
  H   H16       1.0  0.9980672253072601  0.27906562272572094  0.4593480572530391  1.0000
  H   H17       1.0  0.09071720178103876  0.32163481780824443  0.5910491743894  1.0000
  Zn  Zn1       1.0  0.9620202132874873  0.4260655993880525  0.9704352258040658  1.0000
  Zn  Zn2       1.0  0.15833182874436713  0.42606222112885817  0.9704320793768149  1.0000
  C   C27       1.0  0.06274463573586053  0.41187918247171385  0.14091211290081698  1.0000
  C   C28       1.0  0.05760955139179313  0.4402502131698907  0.7999552838592092  1.0000
  C   C29       1.0  0.060119701447667546  0.6549866913216081  0.9667143504507442  1.0000
  C   C30       1.0  0.06023441944172924  0.1971411970535329  0.9741530960738589  1.0000
  O   O1        1.0  0.13263080719128453  0.44004219567260977  0.8347302676081033  1.0000
  O   O2        1.0  0.13671934968178312  0.41208370570649105  0.10613447239362528  1.0000
  O   O3        1.0  0.13459869237230615  0.6083960412796559  0.9654685467532884  1.0000
  O   O4        1.0  0.1347513964593637  0.24372987283429276  0.9753961232638346  1.0000
  O   O5        1.0  0.9856005785808969  0.6083979476853993  0.9654711819132105  1.0000
  O   O6        1.0  0.9877212351370374  0.4120871193814793  0.10613705778513348  1.0000
  O   O7        1.0  0.9836326758126139  0.44004562624350874  0.8347317307807522  1.0000
  O   O8        1.0  0.9857532661304975  0.2437332906731251  0.9753976564172533  1.0000
