data_image0
_chemical_formula_structural       NC9NC5H8C8NH7C7ONH5Zn2C4O8
_chemical_formula_sum              "N4 C33 H20 O9 Zn2"
_cell_length_a       17.807436237873137
_cell_length_b       9.27426342843186
_cell_length_c       10.297855452804892
_cell_angle_alpha    85.50121379664337
_cell_angle_beta     89.38396818287444
_cell_angle_gamma    89.00683889979415

_space_group_name_H-M_alt    "P 1"
_space_group_IT_number       1

loop_
  _space_group_symop_operation_xyz
  'x, y, z'

loop_
  _atom_site_type_symbol
  _atom_site_label
  _atom_site_symmetry_multiplicity
  _atom_site_fract_x
  _atom_site_fract_y
  _atom_site_fract_z
  _atom_site_occupancy
  N   N1        1.0  0.7161748875567313  0.5414583613960188  0.5557390654673726  1.0000
  C   C1        1.0  0.6553689454611881  0.5023891831629315  0.54474115038651  1.0000
  C   C2        1.0  0.5797330366811346  0.4537914279704079  0.531060938123294  1.0000
  C   C3        1.0  0.5612049826265756  0.3745346037103079  0.42609479763903274  1.0000
  C   C4        1.0  0.4877657367041621  0.3272261584552687  0.41272963749808717  1.0000
  C   C5        1.0  0.4318034762514241  0.35875535495688915  0.5042984618442226  1.0000
  C   C6        1.0  0.3537571986521456  0.3086062297654558  0.49017675626575946  1.0000
  C   C7        1.0  0.2920882563610026  0.3993753897385808  0.5160553206603873  1.0000
  C   C8        1.0  0.2185054391955863  0.3518414934027284  0.5027040066967239  1.0000
  C   C9        1.0  0.1558031499581239  0.4455988920590315  0.5289443921116384  1.0000
  N   N2        1.0  0.10540346135360318  0.5209733536533249  0.5500409400294652  1.0000
  C   C10       1.0  0.20600641382428533  0.21325199541344  0.4634489799987511  1.0000
  C   C11       1.0  0.2668179006402447  0.12246745754715738  0.43756203535434235  1.0000
  C   C12       1.0  0.3402788433300943  0.1695633470229459  0.45071108711318386  1.0000
  C   C13       1.0  0.45102599802270243  0.4385610220764041  0.6094834791873724  1.0000
  C   C14       1.0  0.5245169412460493  0.485658119500328  0.6226931105783395  1.0000
  H   H1        1.0  0.6034655200585166  0.3495950228583118  0.35438607921133625  1.0000
  H   H2        1.0  0.4745252854836589  0.26765079080732823  0.3298359922832965  1.0000
  H   H3        1.0  0.3011907885456125  0.5075857903959466  0.5448600049730428  1.0000
  H   H4        1.0  0.1493301323175449  0.17546366186163567  0.4528792649909079  1.0000
  H   H5        1.0  0.2570222305232791  0.0151681192313784  0.40755605023378405  1.0000
  H   H6        1.0  0.3865114939034329  0.09656975410613454  0.4317115774550868  1.0000
  H   H7        1.0  0.4094788780858421  0.46290157247569796  0.6824873789900592  1.0000
  H   H8        1.0  0.5382934317639427  0.54658917410638  0.7045439500002084  1.0000
  C   C15       1.0  0.9084160782544589  0.10775721649611072  0.5532008015506458  1.0000
  C   C16       1.0  0.8987192595231965  0.191672972453214  0.4346315718673739  1.0000
  C   C17       1.0  0.8963887432076992  0.1269295776003001  0.3170291033722161  1.0000
  C   C18       1.0  0.9043079195870352  0.9767316702601113  0.31507805558447943  1.0000
  C   C19       1.0  0.9119892015010157  0.8914176948843154  0.43288055252315155  1.0000
  C   C20       1.0  0.9131693857482112  0.9546630989146042  0.5525904011135683  1.0000
  C   C21       1.0  0.9006747459748035  0.9069838430468967  0.18839466370893554  1.0000
  C   C22       1.0  0.8227519823521122  0.8721596579142028  0.1606666107745802  1.0000
  N   N3        1.0  0.7612492058367625  0.8446723219047622  0.1387900394878503  1.0000
  H   H9        1.0  0.9732022396821248  0.18249901677596325  0.8517232381397688  1.0000
  H   H10       1.0  0.8945676621381958  0.308511188257256  0.4325649234045017  1.0000
  H   H11       1.0  0.8891081294985389  0.194275282920082  0.22711822717627972  1.0000
  H   H12       1.0  0.9152322633273201  0.7747581087307747  0.4311220946655623  1.0000
  H   H13       1.0  0.9538646968695346  0.6549481122339617  0.7553795698935397  1.0000
  H   H14       1.0  0.9353736989445205  0.8060404314554342  0.1929134486468802  1.0000
  H   H15       1.0  0.9228618595093263  0.9806602426447354  0.10723535066271506  1.0000
  C   C23       1.0  0.9108229959603071  0.5313519320054965  0.17145304654894875  1.0000
  C   C24       1.0  0.8341955378912874  0.5701592250784222  0.16916350739154826  1.0000
  C   C25       1.0  0.7951575085984743  0.5886091285189679  0.051007776214528455  1.0000
  C   C26       1.0  0.8341023974076474  0.5698396444374647  0.9339321655042524  1.0000
  C   C27       1.0  0.9107624541046406  0.5310682961291617  0.9343381212592026  1.0000
  C   C28       1.0  0.9485736708968062  0.5117479471731561  0.0535671120695782  1.0000
  C   C29       1.0  0.7142819583899855  0.6299368339345088  0.05116411824287237  1.0000
  O   O1        1.0  0.6868352425978795  0.6929303525474266  0.1453361525429664  1.0000
  N   N4        1.0  0.6660544972424064  0.5983665058467271  0.9472678795474562  1.0000
  H   H16       1.0  0.8045741434740583  0.5848691280556821  0.2597464562727141  1.0000
  H   H17       1.0  0.8053459445867841  0.5879856436655448  0.8419513095743203  1.0000
  H   H18       1.0  0.0076307176431069665  0.481835176061993  0.05457829022365867  1.0000
  H   H19       1.0  0.6101634761922057  0.6343484575597268  0.9469785983498897  1.0000
  H   H20       1.0  0.6835354206448266  0.5316406604760974  0.8753663245611012  1.0000
  Zn  Zn1       1.0  0.8284978227699474  0.5355429801391536  0.554102224568036  1.0000
  Zn  Zn2       1.0  0.9930804411230829  0.5268769764298817  0.5516884680743059  1.0000
  C   C30       1.0  0.9107399860801658  0.5253773641949813  0.790140684798812  1.0000
  C   C31       1.0  0.9108400852516626  0.5370443171589991  0.31565010766504015  1.0000
  C   C32       1.0  0.9122674501797418  0.7945819514649763  0.5475296504271627  1.0000
  C   C33       1.0  0.9093125552622776  0.26783800031594424  0.5582612133610603  1.0000
  O   O2        1.0  0.973304031200675  0.535659739335187  0.3631279551563999  1.0000
  O   O3        1.0  0.9731904332026831  0.5201835580111563  0.7408304788451038  1.0000
  O   O4        1.0  0.9744230377063106  0.7375697106195624  0.5449203633443789  1.0000
  O   O5        1.0  0.972071370601773  0.318273600035637  0.5590379740798737  1.0000
  O   O6        1.0  0.8495068371272967  0.7441463594922522  0.5467527193793313  1.0000
  O   O7        1.0  0.8482742423495172  0.5267619394157601  0.742662764372549  1.0000
  O   O8        1.0  0.8483878402393433  0.5422380710670907  0.3649586790171863  1.0000
  O   O9        1.0  0.847155179571755  0.32485192141753827  0.5608687953347746  1.0000
