data_image0
_chemical_formula_structural       NC14NH8C6H6C12H10Zn2C4O8
_chemical_formula_sum              "N2 C36 H24 Zn2 O8"
_cell_length_a       17.45760127107867
_cell_length_b       10.68111822825955
_cell_length_c       14.388202922059104
_cell_angle_alpha    85.83991400591465
_cell_angle_beta     89.19068272388164
_cell_angle_gamma    89.76106141281505

_space_group_name_H-M_alt    "P 1"
_space_group_IT_number       1

loop_
  _space_group_symop_operation_xyz
  'x, y, z'

loop_
  _atom_site_type_symbol
  _atom_site_label
  _atom_site_symmetry_multiplicity
  _atom_site_fract_x
  _atom_site_fract_y
  _atom_site_fract_z
  _atom_site_occupancy
  N   N1        1.0  0.6849990486661005  0.36381976969274404  0.927141302641424  1.0000
  C   C1        1.0  0.6248184850789407  0.3306821920157039  0.9528731931875494  1.0000
  C   C2        1.0  0.5499511021428108  0.2894595864673908  0.9848754732200882  1.0000
  C   C3        1.0  0.4892369944260001  0.28948680543488287  0.9222011252045961  1.0000
  C   C4        1.0  0.41576358027440535  0.24973801005227586  0.9529400548528839  1.0000
  C   C5        1.0  0.4043333198433524  0.210036021453891  0.047514546197218954  1.0000
  C   C6        1.0  0.46502318932421693  0.21006169746494677  0.10982748182580983  1.0000
  C   C7        1.0  0.5376984842568147  0.24966049988013464  0.07870460971453463  1.0000
  C   C8        1.0  0.35133141289165115  0.24966141465929653  0.8866190619057671  1.0000
  C   C9        1.0  0.2777053806781536  0.2894761520038812  0.9130256981188027  1.0000
  C   C10       1.0  0.21699170400994108  0.28930448494140704  0.8503620537741461  1.0000
  C   C11       1.0  0.22939741322076235  0.249293891612687  0.760878767617509  1.0000
  C   C12       1.0  0.3022246489475357  0.20962824673302288  0.7340720758688817  1.0000
  C   C13       1.0  0.36291434281063883  0.2097463033605551  0.7963799809356851  1.0000
  C   C14       1.0  0.1419659756889723  0.3305955748099993  0.8778712681264238  1.0000
  N   N2        1.0  0.08165829123998851  0.36378839320417455  0.8999913703985591  1.0000
  H   H1        1.0  0.4990602641098524  0.32201268488215884  0.8499171328023243  1.0000
  H   H2        1.0  0.3487382369387655  0.17740028348822712  0.0730216527956844  1.0000
  H   H3        1.0  0.4557228966496981  0.1789842440533767  0.18237748474782278  1.0000
  H   H4        1.0  0.5842683345308107  0.249246135723328  0.12771068909981453  1.0000
  H   H5        1.0  0.2677569941009784  0.32216447793998076  0.9817585925113455  1.0000
  H   H6        1.0  0.18282929493493894  0.24876672987236104  0.7119239443530138  1.0000
  H   H7        1.0  0.3116444942767543  0.17838725740768768  0.6649154269496285  1.0000
  H   H8        1.0  0.4186346931689917  0.1770558658963335  0.7744299282938789  1.0000
  C   C15       1.0  0.8833324724831562  0.9960541024531296  0.9135700615787412  1.0000
  C   C16       1.0  0.9195030749331704  0.9220172899229309  0.9849627760978208  1.0000
  C   C17       1.0  0.91950306175143  0.7911350514722402  0.9849627344745234  1.0000
  C   C18       1.0  0.8833324610320185  0.7315445066717629  0.9135701025712244  1.0000
  C   C19       1.0  0.8471917970524565  0.8055703131448052  0.8422363818542626  1.0000
  C   C20       1.0  0.8471918100297061  0.93646257148758  0.8422364187168904  1.0000
  H   H9        1.0  0.8467540094628417  0.30206839690672016  0.8413730949285934  1.0000
  H   H10       1.0  0.9478553440161481  0.9651663767784484  0.04092372330551264  1.0000
  H   H11       1.0  0.9478552493417614  0.7366623480835808  0.040923713355426994  1.0000
  H   H12       1.0  0.8188358308586482  0.7624667205782725  0.786268127545624  1.0000
  H   H13       1.0  0.8188358105328586  0.9908911595646983  0.7862681213736438  1.0000
  H   H14       1.0  0.846754282502095  0.4401390443629789  0.8413728246286586  1.0000
  C   C21       1.0  0.8738266216001698  0.362027681906119  0.6410787570519357  1.0000
  C   C22       1.0  0.7969054435647742  0.3468221703006769  0.6696743594501746  1.0000
  C   C23       1.0  0.7397315446993915  0.3353388005798019  0.604002400122605  1.0000
  C   C24       1.0  0.7584493217597001  0.33887824550568607  0.5092158886755267  1.0000
  C   C25       1.0  0.8349483218032354  0.3541079000288516  0.4788606745752442  1.0000
  C   C26       1.0  0.892323180317684  0.36557073500137954  0.5454625774280695  1.0000
  C   C27       1.0  0.8548919024580333  0.35804157529729874  0.37798382042073503  1.0000
  C   C28       1.0  0.8197520650618577  0.275741221773655  0.3197943489633611  1.0000
  C   C29       1.0  0.8385387039928098  0.2794067371627172  0.22488147032930894  1.0000
  C   C30       1.0  0.8928383212887678  0.36557092195367413  0.18606142394334624  1.0000
  C   C31       1.0  0.927939411787978  0.44790338914347566  0.2441399810655953  1.0000
  C   C32       1.0  0.9091957751429025  0.4441659172882939  0.33907018491846874  1.0000
  H   H15       1.0  0.05283851045154763  0.3973833172028948  0.7285614787373091  1.0000
  H   H16       1.0  0.7808710667083688  0.3438052407618706  0.7427784632610697  1.0000
  H   H17       1.0  0.6806180075421261  0.3239908004936039  0.6266525570907879  1.0000
  H   H18       1.0  0.712963409273807  0.33138269985224666  0.45955174890308004  1.0000
  H   H19       1.0  0.9515345805264382  0.37553361950898845  0.5227558537574979  1.0000
  H   H20       1.0  0.7784126810222365  0.20728252836419966  0.34792475480264157  1.0000
  H   H21       1.0  0.8106352760816863  0.21448508232015542  0.18197583331409684  1.0000
  H   H22       1.0  0.9809317872203422  0.45917281115573055  0.9791546222074832  1.0000
  H   H23       1.0  0.9698242779510697  0.5156074381493381  0.216277419967855  1.0000
  H   H24       1.0  0.936492960533802  0.5099110018538235  0.3818330614893673  1.0000
  Zn  Zn1       1.0  0.7994665218444009  0.3638073996939317  0.9193117669632  1.0000
  Zn  Zn2       1.0  0.9671910590098666  0.3637905736182755  0.9078284722730398  1.0000
  C   C33       1.0  0.889242979263431  0.3599122292660162  0.08304813330792593  1.0000
  C   C34       1.0  0.8774164363146976  0.36768732455806596  0.7440920716070416  1.0000
  C   C35       1.0  0.8831995218334768  0.5924970985145269  0.9098726604706376  1.0000
  C   C36       1.0  0.8834598382378454  0.13510095105370887  0.9172675978342808  1.0000
  O   O1        1.0  0.9422717986769322  0.3695749035111565  0.7743064305204572  1.0000
  O   O2        1.0  0.9516866504098684  0.35801093323815364  0.04411795231381445  1.0000
  O   O3        1.0  0.9468056577238815  0.545826162952581  0.9042775914993356  1.0000
  O   O4        1.0  0.9471527317027761  0.18175968230858966  0.914146725678381  1.0000
  O   O5        1.0  0.8195047919151682  0.5458382910106905  0.9129935174716626  1.0000
  O   O6        1.0  0.824385782871638  0.3580245655591828  0.05283382880999521  1.0000
  O   O7        1.0  0.8149708922707942  0.3695884849390191  0.7830211913791136  1.0000
  O   O8        1.0  0.8198518277204581  0.1817732552316651  0.922861556107397  1.0000
