data_image0
_chemical_formula_structural       NC8NC6H8C6H4C6OCH6Zn2C4O8
_chemical_formula_sum              "N2 C31 H18 O9 Zn2"
_cell_length_a       17.457602349358154
_cell_length_b       10.681118228259551
_cell_length_c       9.273891588657152
_cell_angle_alpha    86.07629789491638
_cell_angle_beta     92.54290593679646
_cell_angle_gamma    91.68806569353352

_space_group_name_H-M_alt    "P 1"
_space_group_IT_number       1

loop_
  _space_group_symop_operation_xyz
  'x, y, z'

loop_
  _atom_site_type_symbol
  _atom_site_label
  _atom_site_symmetry_multiplicity
  _atom_site_fract_x
  _atom_site_fract_y
  _atom_site_fract_z
  _atom_site_occupancy
  N   N1        1.0  0.7269502437881489  0.3891941636331231  0.4759892703755919  1.0000
  C   C1        1.0  0.6659072889126215  0.34481842743231983  0.4642102007425064  1.0000
  C   C2        1.0  0.5899672385757253  0.289620603499825  0.4495676257511821  1.0000
  C   C3        1.0  0.5311918389533996  0.32898866699524  0.532673096677976  1.0000
  C   C4        1.0  0.456687846856102  0.2758387047446275  0.5187122941304437  1.0000
  C   C5        1.0  0.3943069820678937  0.31740762224503305  0.6067241397363048  1.0000
  C   C6        1.0  0.3199440444529881  0.3347394206893174  0.5448496922344797  1.0000
  C   C7        1.0  0.26116828631507544  0.37393105125955683  0.6280749471182625  1.0000
  C   C8        1.0  0.1853744927460856  0.391828113710436  0.5637422536355969  1.0000
  N   N2        1.0  0.12444919872652331  0.40621120137562494  0.5120189356757108  1.0000
  C   C9        1.0  0.2762616276397221  0.3960296903828981  0.7737388938858221  1.0000
  C   C10       1.0  0.3498385841884902  0.37907630078004106  0.8360434151294116  1.0000
  C   C11       1.0  0.4086012293214927  0.34006220880019167  0.7533260417371849  1.0000
  C   C12       1.0  0.4422526213578708  0.1826551979255671  0.4200560719742774  1.0000
  C   C13       1.0  0.501014984910505  0.1435592824455867  0.3373944394282924  1.0000
  C   C14       1.0  0.574732399396669  0.19682231069589884  0.3519654589660744  1.0000
  H   H1        1.0  0.5433163442686629  0.40206726397692605  0.6066056531181931  1.0000
  H   H2        1.0  0.3079351892874332  0.3194311541599812  0.4316446849896354  1.0000
  H   H3        1.0  0.23120680503548346  0.42631269700145547  0.8390223572307127  1.0000
  H   H4        1.0  0.3613349580644413  0.3958834010596315  0.9488342575665332  1.0000
  H   H5        1.0  0.46493493499060323  0.3260002265766999  0.8044851471364636  1.0000
  H   H6        1.0  0.3858030634784888  0.1388477601393681  0.4082369275630586  1.0000
  H   H7        1.0  0.4894082375141431  0.07154702115409206  0.26213224177328276  1.0000
  H   H8        1.0  0.6197855819170256  0.16570504051781906  0.28724913301227817  1.0000
  C   C15       1.0  0.925703378809848  0.029952869019126416  0.4940106362410864  1.0000
  C   C16       1.0  0.9590345397994022  0.9577634710753332  0.6115023134059847  1.0000
  C   C17       1.0  0.9590345282684843  0.8268812318895268  0.6115022464609687  1.0000
  C   C18       1.0  0.9257033657471992  0.7654432729049723  0.49401069736660574  1.0000
  C   C19       1.0  0.892399796888924  0.8376231935111275  0.3766161166407618  1.0000
  C   C20       1.0  0.8923998084034016  0.9685154525613032  0.3766161761852107  1.0000
  H   H9        1.0  0.9851611218883866  0.0023606504411936937  0.7035977944202565  1.0000
  H   H10       1.0  0.985161027662171  0.7738566176121002  0.703597760418359  1.0000
  H   H11       1.0  0.8662698083052819  0.7930713195652526  0.2845086112393141  1.0000
  H   H12       1.0  0.8662697882350264  0.021495757648098076  0.2845085976997737  1.0000
  C   C21       1.0  0.9269598909200211  0.39443518995799587  0.07084922623856607  1.0000
  C   C22       1.0  0.9897727556612599  0.4500189102913927  0.14511634743727322  1.0000
  C   C23       1.0  0.04823494374903172  0.5147676406146815  0.07060567407766039  1.0000
  C   C24       1.0  0.04409332130588385  0.5242553984398419  0.9187896615627659  1.0000
  C   C25       1.0  0.9828918658532151  0.46798239003093856  0.8433264020493416  1.0000
  C   C26       1.0  0.9244468271061086  0.40096087364258  0.9171720810306856  1.0000
  O   O1        1.0  0.10895314202984463  0.5687198082921054  0.15131584036861437  1.0000
  C   C27       1.0  0.17211434444781082  0.6373303731381945  0.08996446494878052  1.0000
  H   H13       1.0  0.744520854879851  0.309708834271174  0.16533001478376178  1.0000
  H   H14       1.0  0.08827701690153966  0.5739674401836418  0.8578723810147038  1.0000
  H   H15       1.0  0.8027842011917282  0.3390036821748021  0.6307018144161369  1.0000
  H   H16       1.0  0.15152552206229997  0.7211938356098303  0.023702703712602306  1.0000
  H   H17       1.0  0.20409539755818518  0.5765475366244681  0.022450584562743847  1.0000
  H   H18       1.0  0.21137680383656643  0.6689446535479786  0.17836679831807079  1.0000
  Zn  Zn1       1.0  0.841659831059986  0.39410161895869056  0.486394973689702  1.0000
  Zn  Zn2       1.0  0.0097395621733305  0.4012935694386284  0.5016250300596748  1.0000
  C   C28       1.0  0.9249201518042718  0.39473842073338455  0.7571988035985497  1.0000
  C   C29       1.0  0.9264810764344608  0.4006584273938531  0.2308215078976297  1.0000
  C   C30       1.0  0.9257164636649589  0.6263754588021408  0.4882680308207073  1.0000
  C   C31       1.0  0.9256847069918297  0.16901988288014233  0.4997523523045811  1.0000
  O   O2        1.0  0.9901057639218828  0.40547084703892383  0.2902893940071081  1.0000
  O   O3        1.0  0.9888640923634014  0.39538357715766165  0.7092897630601269  1.0000
  O   O4        1.0  0.9895062599549896  0.582433389609387  0.49212618339767566  1.0000
  O   O5        1.0  0.9894635392968949  0.2184210402584308  0.5074528604270486  1.0000
  O   O6        1.0  0.8619357965790805  0.5769741456859336  0.4805671381174775  1.0000
  O   O7        1.0  0.8612936292120955  0.38992583722620705  0.6977306409459696  1.0000
  O   O8        1.0  0.8625353059660485  0.400013050110982  0.2787285393899202  1.0000
  O   O9        1.0  0.86189308101712  0.21296323520630178  0.49589211384752163  1.0000
