data_image0
_chemical_formula_structural       NC8NC6H8C7OC3NC3H11C7OC6H10Zn2C4O8
_chemical_formula_sum              "N3 C44 H29 O10 Zn2"
_cell_length_a       17.457602349358154
_cell_length_b       10.298746005989749
_cell_length_c       10.299382801718286
_cell_angle_alpha    85.57508548997963
_cell_angle_beta     92.85617812018302
_cell_angle_gamma    91.69721484149154

_space_group_name_H-M_alt    "P 1"
_space_group_IT_number       1

loop_
  _space_group_symop_operation_xyz
  'x, y, z'

loop_
  _atom_site_type_symbol
  _atom_site_label
  _atom_site_symmetry_multiplicity
  _atom_site_fract_x
  _atom_site_fract_y
  _atom_site_fract_z
  _atom_site_occupancy
  N   N1        1.0  0.722840177498336  0.4527074046839108  0.6266219837726881  1.0000
  C   C1        1.0  0.6617599607737703  0.4067763542505092  0.6160032942195155  1.0000
  C   C2        1.0  0.5857735867700277  0.34964384410635163  0.6028031866369334  1.0000
  C   C3        1.0  0.5272337907454797  0.38982268404311265  0.6777026018152894  1.0000
  C   C4        1.0  0.4526855797884391  0.33480872830807035  0.6651170674328675  1.0000
  C   C5        1.0  0.3905542158464546  0.37723170893787183  0.7444383801368257  1.0000
  C   C6        1.0  0.3160205150935182  0.3956915847811484  0.6886768466435382  1.0000
  C   C7        1.0  0.25748067689086007  0.4356865031322094  0.763684201663621  1.0000
  C   C8        1.0  0.1815093235395546  0.4547518824064505  0.70570727707682  1.0000
  N   N2        1.0  0.12044127130898323  0.47007406712987354  0.6590939803236728  1.0000
  C   C9        1.0  0.2729822980789037  0.4574647999192598  0.8949616175700006  1.0000
  C   C10       1.0  0.3467312544393418  0.43939401408303386  0.9511107704089745  1.0000
  C   C11       1.0  0.405259413191929  0.39957924827727287  0.8765611428929108  1.0000
  C   C12       1.0  0.43796603308010745  0.23893819600741706  0.5761991711026229  1.0000
  C   C13       1.0  0.4964940574861219  0.19903813223764955  0.5016997728543975  1.0000
  C   C14       1.0  0.5702574032454991  0.25416457274102444  0.5148352574503074  1.0000
  H   H1        1.0  0.5395716889532985  0.4650354900107381  0.7443375253768384  1.0000
  H   H2        1.0  0.3036945449248306  0.3807015587542275  0.5866526868227531  1.0000
  H   H3        1.0  0.2281124897014794  0.4883608549716978  0.9537987727117152  1.0000
  H   H4        1.0  0.3585437381706638  0.45594176565661093  0.052761779852678485  1.0000
  H   H5        1.0  0.4617343361982316  0.38459450968315934  0.9226659801387632  1.0000
  H   H6        1.0  0.38147915829646234  0.19359685741671415  0.5655444049858547  1.0000
  H   H7        1.0  0.4846703167954422  0.12494166596809597  0.4338666191718996  1.0000
  H   H8        1.0  0.6151270694007721  0.22239883819290185  0.45650916181018913  1.0000
  C   C15       1.0  0.9216077326792277  0.07998719432269419  0.6428381184684757  1.0000
  C   C16       1.0  0.9575214437581657  0.09004038694633444  0.5232676299219878  1.0000
  C   C17       1.0  0.9748745433361268  0.9779650430831074  0.462052135314978  1.0000
  C   C18       1.0  0.9575220288365093  0.8548038033582672  0.5232185408916328  1.0000
  C   C19       1.0  0.9216810335836374  0.8427845963470655  0.6428896592821034  1.0000
  C   C20       1.0  0.9037666679851758  0.95594372433029  0.701770546747851  1.0000
  C   C21       1.0  0.013451072159302855  0.988418193732752  0.33638789248536094  1.0000
  O   O1        1.0  0.060298989051742205  0.9024820115685488  0.31500184329792114  1.0000
  C   C22       1.0  0.9988832197891734  0.09630182314196478  0.23499302442290235  1.0000
  C   C23       1.0  0.9262400426552196  0.15251882428452365  0.21695289401150153  1.0000
  C   C24       1.0  0.9128155852435631  0.25358652719629116  0.11995028020086806  1.0000
  N   N3        1.0  0.8389441107900529  0.31059223262134394  0.10271320592795963  1.0000
  C   C25       1.0  0.9720820267318088  0.29804664542899867  0.039656894201550046  1.0000
  C   C26       1.0  0.04402528034178576  0.24163397991221267  0.055783801598171985  1.0000
  C   C27       1.0  0.05739012358732732  0.14098809338436546  0.15247734063166019  1.0000
  H   H9        1.0  0.8548122459523846  0.2683334012065479  0.8697171454793128  1.0000
  H   H10       1.0  0.9727874232934276  0.18521579710497416  0.4782928809878779  1.0000
  H   H11       1.0  0.9713681201692438  0.7682085565496599  0.4766517567655135  1.0000
  H   H12       1.0  0.8760874623466798  0.9474426167252488  0.7939399424586382  1.0000
  H   H13       1.0  0.8542480847192819  0.6127688966731849  0.8692281021349954  1.0000
  H   H14       1.0  0.8797668749605724  0.1170961737840601  0.27711966768231955  1.0000
  H   H15       1.0  0.7943556087134843  0.2782017680360624  0.16202244440816327  1.0000
  H   H16       1.0  0.8283152658791418  0.3857307260619324  0.030607197302107148  1.0000
  H   H17       1.0  0.962428485389571  0.3759633559402942  0.9643818153255577  1.0000
  H   H18       1.0  0.08955891184074141  0.2759795729873997  0.993208000761073  1.0000
  H   H19       1.0  0.11365605982679819  0.09880493081573372  0.16360008090387756  1.0000
  C   C28       1.0  0.9217209130609468  0.46131599758517217  0.2615003537173124  1.0000
  C   C29       1.0  0.00232042961834699  0.4657000051900464  0.2667792974930354  1.0000
  C   C30       1.0  0.04297239711862621  0.46642296286612384  0.15238363089779594  1.0000
  C   C31       1.0  0.0021334791794460654  0.4657198786186787  0.031518462274035874  1.0000
  C   C32       1.0  0.9215678340966806  0.46145577943911964  0.024227394695518937  1.0000
  C   C33       1.0  0.8818288554416546  0.45893382094138685  0.13982230860701228  1.0000
  C   C34       1.0  0.12807514294543795  0.47243598255746044  0.15770560135268497  1.0000
  O   O2        1.0  0.16188423870661953  0.5346268044611135  0.0659435569639657  1.0000
  C   C35       1.0  0.17482334984235065  0.4078889600422346  0.2670257033906571  1.0000
  C   C36       1.0  0.24693897670451007  0.46150299068084855  0.3040198064754971  1.0000
  C   C37       1.0  0.29181641500306843  0.4005238844512107  0.4059355865020433  1.0000
  C   C38       1.0  0.2655176759627117  0.28506179984917557  0.47114488078791417  1.0000
  C   C39       1.0  0.1944192427467681  0.23004511148817364  0.43421074629738604  1.0000
  C   C40       1.0  0.1493232153224604  0.2906359251747366  0.332379152213363  1.0000
  H   H20       1.0  0.7696177534400701  0.45505459442540497  0.4587028760943929  1.0000
  H   H21       1.0  0.03357556731663934  0.4700159114120765  0.3599309194284894  1.0000
  H   H22       1.0  0.0333962254709701  0.46725675381789683  0.9431202125349881  1.0000
  H   H23       1.0  0.8196927010365417  0.45555488017225726  0.1349484054531065  1.0000
  H   H24       1.0  0.8906181728948799  0.4609227779235894  0.6938847520772446  1.0000
  H   H25       1.0  0.26824719920049245  0.5511143636327323  0.25482986675084995  1.0000
  H   H26       1.0  0.34704515900280275  0.4428233671335637  0.43432118342050824  1.0000
  H   H27       1.0  0.3003646791331603  0.23795242421380625  0.5499313171888098  1.0000
  H   H28       1.0  0.17435976462761804  0.14003233398549805  0.48413140548475425  1.0000
  H   H29       1.0  0.09501537777482727  0.24509421540703166  0.30388234818371096  1.0000
  Zn  Zn1       1.0  0.8375792627086525  0.45771556667939883  0.6360001986710584  1.0000
  Zn  Zn2       1.0  0.005702168691801963  0.4650552582922242  0.6497263970832596  1.0000
  C   C41       1.0  0.9215945836538313  0.45625512733449014  0.8800551981293825  1.0000
  C   C42       1.0  0.9216886837754523  0.46651741657866563  0.40567167509001156  1.0000
  C   C43       1.0  0.9216642764432277  0.6985985129692995  0.6377045078590373  1.0000
  C   C44       1.0  0.9216189334535931  0.22417246800719481  0.648022429808752  1.0000
  O   O3        1.0  0.9854796334289601  0.4710427687664322  0.45926590794374994  1.0000
  O   O4        1.0  0.9854050295231389  0.45729945137162614  0.8368784583609011  1.0000
  O   O5        1.0  0.9854604469826662  0.6529947628214308  0.6411784911664229  1.0000
  O   O6        1.0  0.9854241586209055  0.2753474640853122  0.654965773081738  1.0000
  O   O7        1.0  0.8578572154074539  0.6474233583830464  0.6307608179816708  1.0000
  O   O8        1.0  0.8578017981082947  0.4517296073666397  0.8264607160368448  1.0000
  O   O9        1.0  0.8578764023740986  0.46547287921744784  0.4488466042421093  1.0000
  O   O10       1.0  0.8578209275424761  0.269777565264379  0.6445465667456789  1.0000
