data_image0
_chemical_formula_structural       NC8NC6H8C6OCH8C7NH5Zn2C4O8
_chemical_formula_sum              "N3 C32 H21 O9 Zn2"
_cell_length_a       17.457602349358154
_cell_length_b       9.273888216677433
_cell_length_c       10.302823150593486
_cell_angle_alpha    85.7605446997574
_cell_angle_beta     92.87590926728866
_cell_angle_gamma    91.10627454168798

_space_group_name_H-M_alt    "P 1"
_space_group_IT_number       1

loop_
  _space_group_symop_operation_xyz
  'x, y, z'

loop_
  _atom_site_type_symbol
  _atom_site_label
  _atom_site_symmetry_multiplicity
  _atom_site_fract_x
  _atom_site_fract_y
  _atom_site_fract_z
  _atom_site_occupancy
  N   N1        1.0  0.7138456365980032  0.6127650417103949  0.6313122588832478  1.0000
  C   C1        1.0  0.6530389032123329  0.5617843563389624  0.620561665622142  1.0000
  C   C2        1.0  0.5773927101027191  0.49837072713866126  0.6071974837502845  1.0000
  C   C3        1.0  0.5186269165187161  0.5429534576376458  0.6821923832755858  1.0000
  C   C4        1.0  0.444406297302174  0.4818912701864375  0.6694488207686229  1.0000
  C   C5        1.0  0.3820363610890733  0.5289640668570307  0.7488708786491762  1.0000
  C   C6        1.0  0.3073806363335981  0.5494656253509635  0.6931805652188017  1.0000
  C   C7        1.0  0.2486159260330538  0.5938441834108195  0.7682828307681591  1.0000
  C   C8        1.0  0.1725184682222859  0.6150182932932338  0.7103795795223278  1.0000
  N   N2        1.0  0.11134906632341231  0.63203519565768  0.6638254973197024  1.0000
  C   C9        1.0  0.2640133419798092  0.6179910884752274  0.89958449852901  1.0000
  C   C10       1.0  0.3378820656667889  0.5979213357693647  0.9556634583995294  1.0000
  C   C11       1.0  0.3966341077874956  0.5537426514711759  0.8810193115115309  1.0000
  C   C12       1.0  0.4302441178176918  0.3754943652822958  0.5802758527611656  1.0000
  C   C13       1.0  0.4889965475853357  0.3312209911757009  0.5056816689681065  1.0000
  C   C14       1.0  0.5624317375432996  0.3924079233055786  0.5189753458022022  1.0000
  H   H1        1.0  0.5305269162517651  0.6264250990002491  0.7490283642290325  1.0000
  H   H2        1.0  0.2951240373668472  0.5328476571738987  0.5911432511559771  1.0000
  H   H3        1.0  0.21897000036786698  0.6522733211795725  0.9584947008470993  1.0000
  H   H4        1.0  0.3496157552367602  0.6162684341966582  0.05733231793461946  1.0000
  H   H5        1.0  0.45320825292384664  0.537100413208383  0.9270660811594107  1.0000
  H   H6        1.0  0.3740271803208889  0.3251682594353525  0.5694909287507919  1.0000
  H   H7        1.0  0.4776037646550337  0.24898871560503413  0.4376511054854122  1.0000
  H   H8        1.0  0.6074802588501368  0.3571602541191499  0.46057348946839266  1.0000
  C   C15       1.0  0.9148531023821039  0.19904734058891402  0.646426970309804  1.0000
  C   C16       1.0  0.8969422086052847  0.2814418419039635  0.5290015770587577  1.0000
  C   C17       1.0  0.872506147585131  0.21553259615997652  0.41613586834540506  1.0000
  C   C18       1.0  0.8658391317481738  0.06422850883027385  0.4202670293469424  1.0000
  C   C19       1.0  0.8845526531284784  0.9806778132211791  0.5352607780976038  1.0000
  C   C20       1.0  0.9103489725636106  0.04574212410134717  0.6487225852054441  1.0000
  O   O1        1.0  0.8550601213336135  0.30411673451568927  0.3025653368688619  1.0000
  C   C21       1.0  0.8294609874566451  0.251951132705867  0.18099648077928787  1.0000
  H   H9        1.0  0.9211000123135299  0.2760347527469578  0.966423250387332  1.0000
  H   H10       1.0  0.9001816655068433  0.3984744533537869  0.5254184152505057  1.0000
  H   H11       1.0  0.8469074014668975  0.009873788105347007  0.334753682376445  1.0000
  H   H12       1.0  0.8805670063771068  0.8640161790611438  0.5345024780805732  1.0000
  H   H13       1.0  0.9177703536233488  0.7471712440333874  0.8636157374881442  1.0000
  H   H14       1.0  0.7744207658520399  0.191158882311963  0.191456894489058  1.0000
  H   H15       1.0  0.8734960171770344  0.18147755380712052  0.14566952384476273  1.0000
  H   H16       1.0  0.8201326813727638  0.3451843290893136  0.10845661468193124  1.0000
  C   C22       1.0  0.9126010558064234  0.6223947530815739  0.2663266992355704  1.0000
  C   C23       1.0  0.8321693223017875  0.6289474148041532  0.25795131821745976  1.0000
  C   C24       1.0  0.7921537773486743  0.6322073074343106  0.13668197914327607  1.0000
  C   C25       1.0  0.8321693078880099  0.628947319944393  0.022650322893768674  1.0000
  C   C26       1.0  0.9126010553882876  0.6223947455697398  0.028822865792730967  1.0000
  C   C27       1.0  0.9523966747079183  0.619152618408646  0.15117373201587303  1.0000
  C   C28       1.0  0.7096994871208825  0.6389245139907176  0.1292250829005246  1.0000
  N   N3        1.0  0.6434331779327813  0.6443231296308001  0.12323214058178378  1.0000
  H   H17       1.0  0.9430669222939765  0.6199131009502159  0.5968213468284564  1.0000
  H   H18       1.0  0.800448070515788  0.6315316998093727  0.34550681299229424  1.0000
  H   H19       1.0  0.800448101500536  0.631531595137113  0.9293572786949312  1.0000
  H   H20       1.0  0.014422730271933309  0.6140994662879189  0.15678318125230128  1.0000
  H   H21       1.0  0.9430668978266666  0.6199128682795441  0.7038386437914355  1.0000
  Zn  Zn1       1.0  0.8285565604684533  0.6183221257758365  0.6407023627819923  1.0000
  Zn  Zn2       1.0  0.9966381910810013  0.6264662915780033  0.6544459905323121  1.0000
  C   C29       1.0  0.9126298794904731  0.6166514011714159  0.8846790416117989  1.0000
  C   C30       1.0  0.9125666978286688  0.6281389241278652  0.41046959414037393  1.0000
  C   C31       1.0  0.9111964148274206  0.8856985974238769  0.6431148080448212  1.0000
  C   C32       1.0  0.9140001143512129  0.35908999302369665  0.6520338875381997  1.0000
  O   O2        1.0  0.9763413032878778  0.633151099413154  0.4640608844853551  1.0000
  O   O3        1.0  0.9764253483075275  0.6178193717089426  0.8415184700471214  1.0000
  O   O4        1.0  0.9752669475962668  0.8350783435852404  0.6464535760887014  1.0000
  O   O5        1.0  0.9774996465894052  0.4158921350707708  0.6591256764381526  1.0000
  O   O6        1.0  0.8476950476020289  0.8288962795054342  0.6360226721793016  1.0000
  O   O7        1.0  0.8488534390957783  0.6116390397032103  0.8310875016100239  1.0000
  O   O8        1.0  0.848769394394431  0.6269707171718841  0.4536283550102673  1.0000
  O   O9        1.0  0.8499277377476722  0.40971174251795217  0.6486932442718369  1.0000
