data_image0
_chemical_formula_structural       NC11NC3H8C10IC2H9C10BrC2H9Zn2C4O8
_chemical_formula_sum              "N2 C42 H26 I1 Br1 Zn2 O8"
_cell_length_a       17.807433833752565
_cell_length_b       10.299770258652044
_cell_length_c       10.29977236648636
_cell_angle_alpha    85.54396749934432
_cell_angle_beta     88.52851021300457
_cell_angle_gamma    90.70301214587626

_space_group_name_H-M_alt    "P 1"
_space_group_IT_number       1

loop_
  _space_group_symop_operation_xyz
  'x, y, z'

loop_
  _atom_site_type_symbol
  _atom_site_label
  _atom_site_symmetry_multiplicity
  _atom_site_fract_x
  _atom_site_fract_y
  _atom_site_fract_z
  _atom_site_occupancy
  N   N1        1.0  0.7076222328172234  0.43893026398033186  0.5347016412803052  1.0000
  C   C1        1.0  0.6567989398992288  0.4041826925955894  0.6012627055953355  1.0000
  C   C2        1.0  0.593569638080156  0.36095957893721936  0.6840561754359675  1.0000
  C   C3        1.0  0.6052898076811929  0.29737092897208894  0.80677223831193  1.0000
  C   C4        1.0  0.5439681207663744  0.25582830184417316  0.8872818368604225  1.0000
  C   C5        1.0  0.47077188378286305  0.27756085527887975  0.8457161564004225  1.0000
  C   C6        1.0  0.45807493136718247  0.34130420146206525  0.7225399029623871  1.0000
  C   C7        1.0  0.3803106124199359  0.3643677459685959  0.6781936222687641  1.0000
  C   C8        1.0  0.3615187758333872  0.3475367380913396  0.5486134087937122  1.0000
  C   C9        1.0  0.2882925873871863  0.3692305778188242  0.5070036559382696  1.0000
  C   C10       1.0  0.23291518851923476  0.4080742105256445  0.5941538552974914  1.0000
  C   C11       1.0  0.1575523472681626  0.43042694176603846  0.5511828331131223  1.0000
  N   N2        1.0  0.0969659961596762  0.44839687707923975  0.5166372586984238  1.0000
  C   C12       1.0  0.2510154797711452  0.42511596211442426  0.7232029431529745  1.0000
  C   C13       1.0  0.3241889100989076  0.40338711168504987  0.7650681231205496  1.0000
  C   C14       1.0  0.520253929967362  0.3828422584904061  0.6420467200353963  1.0000
  H   H1        1.0  0.6617536789406278  0.27994601642114697  0.8401371305945842  1.0000
  H   H2        1.0  0.5531607664441616  0.20634639637077323  0.9820161380270138  1.0000
  H   H3        1.0  0.4241287025825106  0.24298500013506752  0.9091539566034583  1.0000
  H   H4        1.0  0.4031885294036728  0.31591697633046817  0.47989634058376107  1.0000
  H   H5        1.0  0.2748445710934875  0.35538169287588417  0.40696922568642563  1.0000
  H   H6        1.0  0.2086286950250671  0.4555128716074277  0.7914052111083243  1.0000
  H   H7        1.0  0.33710877401496636  0.4187814495542744  0.8649198431668781  1.0000
  H   H8        1.0  0.5117600242643939  0.4336864296940484  0.547546771922452  1.0000
  C   C15       1.0  0.9022269056189777  0.06229668089989659  0.5256694472826733  1.0000
  C   C16       1.0  0.907797196388808  0.07203618914216837  0.3890146270657058  1.0000
  C   C17       1.0  0.9106917007104655  0.9598337387130298  0.319776340405294  1.0000
  C   C18       1.0  0.9079403243327842  0.8367518688815417  0.3890256025941268  1.0000
  C   C19       1.0  0.9023684912134363  0.8250206102849057  0.5256803263622121  1.0000
  C   C20       1.0  0.8995433957608604  0.9383510033261804  0.5932370411170407  1.0000
  C   C21       1.0  0.9165850481103256  0.971190670910297  0.17520874182549906  1.0000
  C   C22       1.0  0.964655722669657  0.8895435742524559  0.10903142680716016  1.0000
  C   C23       1.0  0.9701269575334639  0.9004429086516444  0.9729566944327166  1.0000
  C   C24       1.0  0.9277459398442702  0.992698451848308  0.9014047716665483  1.0000
  I   I1        1.0  0.9361123802462072  0.008821409919415041  0.6961476789578631  1.0000
  C   C25       1.0  0.8798131057685927  0.07425509267320195  0.9660569081379022  1.0000
  C   C26       1.0  0.8741913280267425  0.06377745104909316  0.10212009550941437  1.0000
  H   H9        1.0  0.9000702447777472  0.3860383750097542  0.5777387100376792  1.0000
  H   H10       1.0  0.9109342619873604  0.16713855023884716  0.3361777797860783  1.0000
  H   H11       1.0  0.9091174609672802  0.7499629064579553  0.3360390848376882  1.0000
  H   H12       1.0  0.8952454890405223  0.9300691707793628  0.698659924941492  1.0000
  H   H13       1.0  0.9002787166889404  0.4930973522456111  0.5777545518941816  1.0000
  H   H14       1.0  0.9987133745695667  0.8184877259073849  0.16253016636303363  1.0000
  H   H15       1.0  0.007464035832430492  0.8373583301402682  0.9232271639805343  1.0000
  H   H16       1.0  0.8467493785800837  0.14557480032713352  0.9109488826835643  1.0000
  H   H17       1.0  0.8359971509588567  0.1268621712270126  0.15009900644164076  1.0000
  C   C27       1.0  0.9022831419716985  0.4437787307188117  0.14430520988708007  1.0000
  C   C28       1.0  0.9794853295198032  0.4737796453873  0.13755091947873077  1.0000
  C   C29       1.0  0.018619183277905238  0.4888590779562339  0.01699864066821632  1.0000
  C   C30       1.0  0.979514692311775  0.4735365312737937  0.9022820378441471  1.0000
  C   C31       1.0  0.9023122679428546  0.4435385445059895  0.9070445856950545  1.0000
  C   C32       1.0  0.8641288902630125  0.42882678858303147  0.02852190138693756  1.0000
  C   C33       1.0  0.10029246863485186  0.5205966086048659  0.010906292377527828  1.0000
  C   C34       1.0  0.14894395946054642  0.45918560635289973  0.9257110056611383  1.0000
  C   C35       1.0  0.22580188020142408  0.4891798206848652  0.9201718076431522  1.0000
  C   C36       1.0  0.25498171089045457  0.5807094838002714  0.9993655390904239  1.0000
  Br  Br1       1.0  0.35998935412741684  0.6215164568891296  0.991530652174339  1.0000
  C   C37       1.0  0.20720403034758927  0.6423329254177668  0.08430086843511209  1.0000
  C   C38       1.0  0.13031671769191822  0.6125810373856322  0.09023218446060421  1.0000
  H   H18       1.0  0.8728576860895966  0.43240651571263755  0.4743280947593234  1.0000
  H   H19       1.0  0.009578977277581616  0.48373388140001783  0.22637218480708585  1.0000
  H   H20       1.0  0.009204920559971796  0.486813602437191  0.8090014649203292  1.0000
  H   H21       1.0  0.8045708190970736  0.405683655534675  0.03296406193519452  1.0000
  H   H22       1.0  0.8729002743658539  0.4320568835013725  0.5814094841446633  1.0000
  H   H23       1.0  0.12771505792858506  0.38679042253509505  0.8646597968677199  1.0000
  H   H24       1.0  0.26264908872916815  0.44097359246077095  0.8545184635494341  1.0000
  H   H25       1.0  0.22955025709422983  0.7135423832606838  0.14553767533373474  1.0000
  H   H26       1.0  0.09421098597144417  0.6626960283232868  0.15556072432950363  1.0000
  Zn  Zn1       1.0  0.8199784320691748  0.44165864705302516  0.5294961351634337  1.0000
  Zn  Zn2       1.0  0.9846097805798787  0.44565787113588506  0.5218533506985374  1.0000
  C   C39       1.0  0.9023041217971226  0.4384102860891119  0.7628704777451665  1.0000
  C   C40       1.0  0.9022858889302021  0.44890791434229277  0.2884790521478575  1.0000
  C   C41       1.0  0.9023376714333832  0.6808511086343227  0.5205032477010301  1.0000
  C   C42       1.0  0.9022522828297532  0.20646553011600702  0.5308463540165032  1.0000
  O   O1        1.0  0.9647635485590949  0.4521413342068048  0.3339647137005355  1.0000
  O   O2        1.0  0.9647778461816007  0.4382112051679434  0.7115837457649146  1.0000
  O   O3        1.0  0.9648040957724112  0.6339852145716002  0.5158705318344325  1.0000
  O   O4        1.0  0.964737242788764  0.25636733275931656  0.5296778328642551  1.0000
  O   O5        1.0  0.8398509136796902  0.6309491840662709  0.5216716555989922  1.0000
  O   O6        1.0  0.8398246643724674  0.4351767349803657  0.7173848003062417  1.0000
  O   O7        1.0  0.8398103667319103  0.449106819256305  0.3397642068351425  1.0000
  O   O8        1.0  0.8397840609605004  0.2533328084893256  0.5354774233669011  1.0000
