data_image0
_chemical_formula_structural       NC8NC6H8C13OH12C11NCOCH12Zn2C4O8
_chemical_formula_sum              "N3 C44 H32 O10 Zn2"
_cell_length_a       17.457602349358154
_cell_length_b       10.299150109392551
_cell_length_c       10.299158637457996
_cell_angle_alpha    85.56061603079257
_cell_angle_beta     92.85709877509845
_cell_angle_gamma    91.67070309183428

_space_group_name_H-M_alt    "P 1"
_space_group_IT_number       1

loop_
  _space_group_symop_operation_xyz
  'x, y, z'

loop_
  _atom_site_type_symbol
  _atom_site_label
  _atom_site_symmetry_multiplicity
  _atom_site_fract_x
  _atom_site_fract_y
  _atom_site_fract_z
  _atom_site_occupancy
  N   N1        1.0  0.7224087112687788  0.4524458804394999  0.625960582177296  1.0000
  C   C1        1.0  0.661341485832515  0.4065138950768245  0.6153622865122135  1.0000
  C   C2        1.0  0.5853712714734879  0.34938022339704594  0.6021875464669837  1.0000
  C   C3        1.0  0.5268209010337397  0.38957105515514406  0.6770697507060313  1.0000
  C   C4        1.0  0.45228825200493655  0.3345560022604144  0.6645086443958237  1.0000
  C   C5        1.0  0.3901457258976532  0.37699168511540326  0.7438117871501353  1.0000
  C   C6        1.0  0.3156060811889192  0.3954417132761443  0.6880414818652827  1.0000
  C   C7        1.0  0.2570557224034646  0.4354486453293307  0.7630317090514744  1.0000
  C   C8        1.0  0.18107822547693767  0.45450378810763814  0.7050457212457146  1.0000
  N   N2        1.0  0.12000523563606001  0.46981774283531913  0.6584251405129915  1.0000
  C   C9        1.0  0.2725527036068874  0.4572488854809295  0.8943006652433583  1.0000
  C   C10       1.0  0.3463074974553037  0.43918800594207025  0.9504584199669418  1.0000
  C   C11       1.0  0.4048461308450074  0.3993613009625301  0.8759258442833564  1.0000
  C   C12       1.0  0.4375950179680968  0.2386721498261559  0.5756326757660624  1.0000
  C   C13       1.0  0.49613354197931414  0.19876015705922787  0.5011503678940337  1.0000
  C   C14       1.0  0.5698813003027782  0.2538877862437681  0.5142613794954953  1.0000
  H   H1        1.0  0.5391381186965123  0.46479377916410214  0.7436717510098143  1.0000
  H   H2        1.0  0.30328316428025603  0.3804345968378464  0.5860230330542191  1.0000
  H   H3        1.0  0.2276747788475161  0.4881543733691  0.9531245977111432  1.0000
  H   H4        1.0  0.3581164785063455  0.4557527547519302  0.0521030197250002  1.0000
  H   H5        1.0  0.46132588895658355  0.38438469935210057  0.922037810057432  1.0000
  H   H6        1.0  0.3811209656010426  0.19332985894695653  0.5649980400462571  1.0000
  H   H7        1.0  0.48433014855165113  0.12465354745014133  0.43334962784290815  1.0000
  H   H8        1.0  0.6147593373963296  0.2221127224367565  0.455948899502455  1.0000
  C   C15       1.0  0.9212829204783533  0.07973552018341287  0.642343190114868  1.0000
  C   C16       1.0  0.9198439409759367  0.06791633930864636  0.7790373945545834  1.0000
  C   C17       1.0  0.9190476437387124  0.9447861570394865  0.8480751148526098  1.0000
  C   C18       1.0  0.9196960941292983  0.8326544076591958  0.7786619249964482  1.0000
  C   C19       1.0  0.9211383584153225  0.8425183560981273  0.642054388350235  1.0000
  C   C20       1.0  0.9219254531388499  0.9665193309592078  0.5746935170631375  1.0000
  C   C21       1.0  0.9175186944794825  0.933264231128852  0.9925914163512776  1.0000
  C   C22       1.0  0.8703312385628393  0.8383460720907173  0.056760359157173146  1.0000
  C   C23       1.0  0.8688670816051915  0.8275842500929056  0.19274797906854368  1.0000
  C   C24       1.0  0.9150671036558835  0.9106036390439742  0.2670660968086067  1.0000
  C   C25       1.0  0.9615204524009975  0.006443582821736851  0.2034797888365405  1.0000
  C   C26       1.0  0.963002417960201  0.017381979845492165  0.06749333431798854  1.0000
  C   C27       1.0  0.9118806723258605  0.9013230803384594  0.4128932260809241  1.0000
  O   O1        1.0  0.8545321605438962  0.9820068924108402  0.4484515469559084  1.0000
  H   H9        1.0  0.9235006354457679  0.30931583661111745  0.384285776070425  1.0000
  H   H10       1.0  0.918275592058053  0.15463841229422237  0.8319182893545631  1.0000
  H   H11       1.0  0.9201238404818374  0.7375676585152545  0.8315307410931967  1.0000
  H   H12       1.0  0.9230357438676892  0.9748438032608444  0.46932385917058145  1.0000
  H   H13       1.0  0.9216414666940301  0.5188346524813985  0.5895061223885065  1.0000
  H   H14       1.0  0.8336515111455615  0.7737180628603563  0.0016563220818636103  1.0000
  H   H15       1.0  0.8315376706607102  0.754639826126831  0.24007587666172736  1.0000
  H   H16       1.0  0.9967868855464176  0.07256305237164581  0.259214638639082  1.0000
  H   H17       1.0  0.0003573814978170579  0.09077321265155346  0.020974172133415014  1.0000
  H   H18       1.0  0.9683051562087809  0.9316304842844779  0.4576706897537708  1.0000
  H   H19       1.0  0.8994059361700878  0.7987688926436344  0.44968748911105527  1.0000
  H   H20       1.0  0.8547980768016041  0.9723723331732194  0.5451006261009881  1.0000
  C   C28       1.0  0.9212825922139866  0.4609921266304236  0.26083161089343543  1.0000
  C   C29       1.0  0.923039202846229  0.5977831316989022  0.24961184727060082  1.0000
  C   C30       1.0  0.9238695890013446  0.66727530040731  0.1267606700833237  1.0000
  C   C31       1.0  0.9228922705046401  0.5981366106140545  0.014288240660707883  1.0000
  C   C32       1.0  0.9211386873810645  0.4612618221863984  0.02356597580961939  1.0000
  C   C33       1.0  0.9203480001624946  0.39353133846046084  0.14722640129487607  1.0000
  C   C34       1.0  0.9257287868882835  0.811983438396811  0.11586515056174829  1.0000
  C   C35       1.0  0.9728039007852533  0.8818796079820596  0.2022516737098885  1.0000
  C   C36       1.0  0.9297618363803661  0.08709163271316499  0.0940348901045065  1.0000
  C   C37       1.0  0.8817730199439624  0.017515958554028096  0.009356709785618202  1.0000
  C   C38       1.0  0.8800486561648423  0.8813669832485276  0.019481889410154718  1.0000
  N   N3        1.0  0.9294423147195509  0.22713490977121648  0.0827225576939763  1.0000
  C   C39       1.0  0.9951577056570419  0.3090003958281806  0.11129122956371562  1.0000
  O   O2        1.0  0.061313088014219426  0.26247422151130223  0.12522702994979995  1.0000
  C   C40       1.0  0.9861312221184175  0.4524327260603331  0.11510452519852345  1.0000
  H   H21       1.0  0.9206309606683691  0.40837564314010394  0.5926249485156878  1.0000
  H   H22       1.0  0.9226938218916039  0.6505895365688887  0.3365153180363749  1.0000
  H   H23       1.0  0.9245454615130546  0.6512267082960572  0.9194323640543365  1.0000
  H   H24       1.0  0.9189957116083248  0.2880213550922783  0.15516578440942608  1.0000
  H   H25       1.0  0.008720519773407718  0.8312176374192002  0.27739584691498065  1.0000
  H   H26       1.0  0.009952047974622234  0.06894778214045916  0.2617715168973549  1.0000
  H   H27       1.0  0.8458780792348903  0.06905395398405731  0.9347832794247428  1.0000
  H   H28       1.0  0.8421429767266078  0.8303204730804388  0.9530574766661867  1.0000
  H   H29       1.0  0.8797018463518318  0.2724204583761138  0.04369717896504133  1.0000
  H   H30       1.0  0.9321816265696662  0.4717919820164708  0.16210934732714244  1.0000
  H   H31       1.0  0.9840597176770343  0.4990133121608289  0.014199637845928372  1.0000
  H   H32       1.0  0.03506863995780061  0.4953418242231744  0.171740317880279  1.0000
  Zn  Zn1       1.0  0.8371464789211671  0.45745554437139296  0.6353366521928847  1.0000
  Zn  Zn2       1.0  0.005267453745824603  0.4647974340743981  0.6490597070081763  1.0000
  C   C41       1.0  0.9211651552350079  0.4560366972249676  0.8793946427070356  1.0000
  C   C42       1.0  0.9212506129731782  0.46621800017692006  0.4050019931947235  1.0000
  C   C43       1.0  0.9211627106019373  0.6983341998185211  0.6369334892544718  1.0000
  C   C44       1.0  0.921253000520978  0.22391893468740437  0.6474632117937249  1.0000
  O   O3        1.0  0.9850409152978126  0.4707523938075324  0.4585947204373071  1.0000
  O   O4        1.0  0.9849747830039555  0.4570736480737993  0.8362170230660573  1.0000
  O   O5        1.0  0.9849719486086045  0.6527319086062476  0.6404278554838554  1.0000
  O   O6        1.0  0.9850436923414742  0.27509414002625987  0.65438378595902  1.0000
  O   O7        1.0  0.8573701829540812  0.6471588359155157  0.6300125685522042  1.0000
  O   O8        1.0  0.8573730170632665  0.45150213577501486  0.8258016662981317  1.0000
  O   O9        1.0  0.8574391497113165  0.4651808356997016  0.4481778022971534  1.0000
  O   O10       1.0  0.8574419267352311  0.2695225726632384  0.6439669651895188  1.0000
