data_image0
_chemical_formula_structural       NC9NC5H8C6NCOH7C9H8Zn2C4O8
_chemical_formula_sum              "N3 C34 H23 O9 Zn2"
_cell_length_a       17.807436237873137
_cell_length_b       10.29961932979008
_cell_length_c       9.275155815604963
_cell_angle_alpha    86.05855117654025
_cell_angle_beta     89.76311116066847
_cell_angle_gamma    88.41592915749165

_space_group_name_H-M_alt    "P 1"
_space_group_IT_number       1

loop_
  _space_group_symop_operation_xyz
  'x, y, z'

loop_
  _atom_site_type_symbol
  _atom_site_label
  _atom_site_symmetry_multiplicity
  _atom_site_fract_x
  _atom_site_fract_y
  _atom_site_fract_z
  _atom_site_occupancy
  N   N1        1.0  0.7025641915129106  0.3755727596052711  0.39898304496586473  1.0000
  C   C1        1.0  0.6419276567589353  0.34029060969465186  0.3867457630387018  1.0000
  C   C2        1.0  0.5665024719927403  0.2964035005356911  0.37152391303728893  1.0000
  C   C3        1.0  0.5480132457745476  0.22410433279845107  0.25499304427127933  1.0000
  C   C4        1.0  0.4747789566983909  0.18138113909618897  0.24012190291371785  1.0000
  C   C5        1.0  0.41898495946049347  0.21057931532386442  0.34174557643005593  1.0000
  C   C6        1.0  0.3411561151025693  0.1652911705995459  0.3260324960424164  1.0000
  C   C7        1.0  0.279094796530139  0.24726482214356693  0.3548262985277446  1.0000
  C   C8        1.0  0.205718198909912  0.20433870858144518  0.33997031674286277  1.0000
  C   C9        1.0  0.1426088082170946  0.28900674119664593  0.36916824543423976  1.0000
  N   N2        1.0  0.09188184224231818  0.3570739909623568  0.39264257326163554  1.0000
  C   C10       1.0  0.1938192160302962  0.07918075352488939  0.29629237291041  1.0000
  C   C11       1.0  0.2550231308657114  0.9971931791605768  0.2674892587369624  1.0000
  C   C12       1.0  0.32827946202396247  0.0397230500171124  0.2821204373993753  1.0000
  C   C13       1.0  0.4381665109953682  0.2833746903806695  0.4585197818849399  1.0000
  C   C14       1.0  0.5114530596153648  0.3259061803448462  0.47321817454544735  1.0000
  H   H1        1.0  0.5901433505125189  0.20101492087299253  0.1754100211667926  1.0000
  H   H2        1.0  0.4615529642018269  0.12700065035288177  0.14809809532849005  1.0000
  H   H3        1.0  0.2877220102433313  0.34497171722672143  0.38688230443474536  1.0000
  H   H4        1.0  0.137307037486166  0.04505588746656274  0.28453132931212344  1.0000
  H   H5        1.0  0.2456934524854719  0.9002962526271084  0.23410123254410922  1.0000
  H   H6        1.0  0.3748343285102492  0.9738184001089657  0.2609749077404391  1.0000
  H   H7        1.0  0.3967578197805926  0.3059359729730353  0.539539266038189  1.0000
  H   H8        1.0  0.5252039596803367  0.3814984564966925  0.5640862113578069  1.0000
  C   C15       1.0  0.897126845548889  0.9849591826571853  0.3957768804250603  1.0000
  C   C16       1.0  0.8604545190150997  0.9937469273389569  0.26148567666241007  1.0000
  C   C17       1.0  0.843093614088451  0.8813856848659646  0.19280427874360773  1.0000
  C   C18       1.0  0.8606785987228585  0.7585786833048556  0.2615929763463045  1.0000
  C   C19       1.0  0.897326373579716  0.7476773939862046  0.39586116190727827  1.0000
  C   C20       1.0  0.9156084676892127  0.8614773790892726  0.4619173764635649  1.0000
  N   N3        1.0  0.8045275574804395  0.8942338566193166  0.05641126673030805  1.0000
  C   C21       1.0  0.8159702508726061  0.8081321806452748  0.9428238869506926  1.0000
  O   O1        1.0  0.8687290621680113  0.723947895095525  0.9480235505513375  1.0000
  H   H9        1.0  0.9655906244803311  0.1756238779266812  0.6498147234502244  1.0000
  H   H10       1.0  0.8457250488164451  0.08813926291777552  0.20890207325150373  1.0000
  H   H11       1.0  0.8444527505900727  0.671569577224556  0.21200326240060452  1.0000
  H   H12       1.0  0.9438875609252594  0.8538269917961098  0.5654327330598123  1.0000
  H   H13       1.0  0.9103888735920678  0.41603007629339556  0.44843526578143084  1.0000
  H   H14       1.0  0.7696796351700494  0.97631016292965  0.03363686429738012  1.0000
  H   H15       1.0  0.7800002086660316  0.8179777279046075  0.8487670121443263  1.0000
  C   C22       1.0  0.8958493524916786  0.36310106195925423  0.9726098242114367  1.0000
  C   C23       1.0  0.8370984918293541  0.42917280528754564  0.04138876997414819  1.0000
  C   C24       1.0  0.7833815960725132  0.5036364444434518  0.9609870824841185  1.0000
  C   C25       1.0  0.7874194260873658  0.5135815050755108  0.8103406878012155  1.0000
  C   C26       1.0  0.8446583866942498  0.4468838421722925  0.7398779199969627  1.0000
  C   C27       1.0  0.8986038785220865  0.3695354416259326  0.8190281426975695  1.0000
  C   C28       1.0  0.7321848141921022  0.591151351992115  0.7276514474827016  1.0000
  C   C29       1.0  0.6859357779723088  0.6561053911658503  0.6583838121274344  1.0000
  C   C30       1.0  0.6298208891141103  0.734916111623588  0.5743277637805791  1.0000
  H   H16       1.0  0.07018770518581907  0.25003739082840104  0.08271638018030214  1.0000
  H   H17       1.0  0.8337225446270767  0.42573324021518344  0.15823487575088513  1.0000
  H   H18       1.0  0.739063490374664  0.5545546282631  0.01652747625298745  1.0000
  H   H19       1.0  0.8460479861814314  0.45292463258690807  0.6227096936424226  1.0000
  H   H20       1.0  0.014927858684395058  0.2888004422145918  0.5435426770403203  1.0000
  H   H21       1.0  0.6450872851623628  0.7379220771240909  0.45808057556776444  1.0000
  H   H22       1.0  0.5738592599001788  0.6913292002685516  0.5902601301148871  1.0000
  H   H23       1.0  0.6279459444839673  0.8352847098334624  0.6108745295804733  1.0000
  Zn  Zn1       1.0  0.814912880814092  0.37023101268883546  0.39716165621792643  1.0000
  Zn  Zn2       1.0  0.979533170531629  0.3624052419063333  0.39447580879120214  1.0000
  C   C31       1.0  0.898080196013796  0.36314570423479103  0.6590364473995032  1.0000
  C   C32       1.0  0.8963676538694184  0.36949210457731363  0.13260112991214412  1.0000
  C   C33       1.0  0.8972661244286797  0.6034639149894756  0.3901023244631503  1.0000
  C   C34       1.0  0.8971816691229557  0.1291723367943134  0.40153533042749195  1.0000
  O   O2        1.0  0.9590141410861354  0.3686614919656292  0.1852764079170691  1.0000
  O   O3        1.0  0.960376698032041  0.35803575503473817  0.6043222583747946  1.0000
  O   O4        1.0  0.9597184876487181  0.5520958008843284  0.38715606523968976  1.0000
  O   O5        1.0  0.9596722949464774  0.17460145725510046  0.4024424939119833  1.0000
  O   O6        1.0  0.8347737002223934  0.5580348000119757  0.38919497200611275  1.0000
  O   O7        1.0  0.835431910760445  0.363976313862609  0.6063610884711903  1.0000
  O   O8        1.0  0.8340693482138402  0.37460199236383435  0.1873135053045385  1.0000
  O   O9        1.0  0.8347275024203129  0.18054194918615177  0.40447969934861083  1.0000
