data_image0
_chemical_formula_structural       NC10NC3NCH9C7OC4NC3H8C7OC6H10Zn2C4O8
_chemical_formula_sum              "N4 C45 H27 O10 Zn2"
_cell_length_a       19.437513618241372
_cell_length_b       10.299371701877257
_cell_length_c       10.299382801718286
_cell_angle_alpha    85.59153606020502
_cell_angle_beta     90.32786270847616
_cell_angle_gamma    89.53225479237402

_space_group_name_H-M_alt    "P 1"
_space_group_IT_number       1

loop_
  _space_group_symop_operation_xyz
  'x, y, z'

loop_
  _atom_site_type_symbol
  _atom_site_label
  _atom_site_symmetry_multiplicity
  _atom_site_fract_x
  _atom_site_fract_y
  _atom_site_fract_z
  _atom_site_occupancy
  N   N1        1.0  0.64823401080159  0.4102138674767042  0.5762460417533258  1.0000
  C   C1        1.0  0.5893027115585374  0.4272234267642902  0.5732774866603709  1.0000
  C   C2        1.0  0.5158647805411399  0.4484753168136801  0.5695927922722095  1.0000
  C   C3        1.0  0.474094346830954  0.3472844534069134  0.5578891262167868  1.0000
  C   C4        1.0  0.3982063498775563  0.3573482451481669  0.5506721874606275  1.0000
  C   C5        1.0  0.3586306756886476  0.43820458208283375  0.6164501908577014  1.0000
  C   C6        1.0  0.2824487946931412  0.4295953142687434  0.608002308419207  1.0000
  C   C7        1.0  0.24930074778763373  0.3082519443605709  0.6125924788636505  1.0000
  C   C8        1.0  0.17756643954615384  0.30187933259153427  0.6054216222000375  1.0000
  C   C9        1.0  0.13800945748844262  0.4163774530985899  0.5940226197631147  1.0000
  C   C10       1.0  0.0641606665348526  0.40966664270258124  0.5866835233228039  1.0000
  N   N2        1.0  0.004791336631523397  0.4042717412623151  0.5807833484494332  1.0000
  C   C11       1.0  0.1704407778022325  0.537410343828693  0.5901775896860646  1.0000
  C   C12       1.0  0.2421595068637246  0.5440369527415274  0.5974105791934612  1.0000
  C   C13       1.0  0.3873113908501827  0.5304995589335588  0.7064106548217873  1.0000
  N   N3        1.0  0.4443054422314612  0.5937093006978924  0.6860341684252828  1.0000
  C   C14       1.0  0.4881600551834012  0.5844351841096036  0.57292249338541  1.0000
  H   H1        1.0  0.4964704754855282  0.2522274701259155  0.5457262298873748  1.0000
  H   H2        1.0  0.373492872814145  0.2878298120943257  0.4923235420616566  1.0000
  H   H3        1.0  0.2787406883439413  0.2183419876588992  0.623573900324965  1.0000
  H   H4        1.0  0.1529629838488239  0.20765417721755258  0.609267472656339  1.0000
  H   H5        1.0  0.140315187478422  0.6266656607311556  0.5815080298515924  1.0000
  H   H6        1.0  0.26628148393423673  0.638674903067717  0.5935494499731024  1.0000
  H   H7        1.0  0.3572991881428632  0.5508946048425227  0.7907862848143805  1.0000
  H   H8        1.0  0.5309189116899227  0.6547477864923064  0.5787167316634694  1.0000
  H   H9        1.0  0.4585075969980985  0.6125334304384749  0.4822892066869344  1.0000
  C   C15       1.0  0.8264800074948134  0.025872864197931774  0.5783873053380184  1.0000
  C   C16       1.0  0.8298474955436579  0.035132483755242694  0.4417678368015028  1.0000
  C   C17       1.0  0.830764761793806  0.9226468744674218  0.3727884254879668  1.0000
  C   C18       1.0  0.8298559489068043  0.799864085535997  0.44208533427348295  1.0000
  C   C19       1.0  0.8265519328069733  0.7886025723184347  0.578653427678442  1.0000
  C   C20       1.0  0.8247020676249535  0.9022111143282436  0.6459960975911967  1.0000
  C   C21       1.0  0.8350431406413602  0.9322686055229702  0.22859559755468095  1.0000
  O   O1        1.0  0.8681663102937895  0.8459596604171459  0.1740722696693795  1.0000
  C   C22       1.0  0.8017337646972201  0.03972192336644698  0.1462610787529599  1.0000
  C   C23       1.0  0.8312213526175781  0.08385271062273159  0.02666830757654171  1.0000
  C   C24       1.0  0.7997259325130952  0.18426631253838163  0.9474782170723219  1.0000
  C   C25       1.0  0.8305486383058504  0.229558498291466  0.8257163278421742  1.0000
  N   N4        1.0  0.8553287191797811  0.26596381235227357  0.727837465410807  1.0000
  C   C26       1.0  0.7382294544664825  0.2404770002394638  0.9868667335247744  1.0000
  C   C27       1.0  0.7081613959399417  0.19614493978587344  0.10471260087921008  1.0000
  C   C28       1.0  0.7394592788091219  0.09603210225208225  0.18388878024148636  1.0000
  H   H10       1.0  0.8325315214612565  0.13000175287646476  0.38891636310959776  1.0000
  H   H11       1.0  0.8310729806804968  0.7129965231560744  0.3890895585161967  1.0000
  H   H12       1.0  0.8221063567764195  0.8942687263602384  0.7513199748475492  1.0000
  H   H13       1.0  0.8258617452691244  0.4568063566614752  0.6311689265254715  1.0000
  H   H14       1.0  0.8789393650678728  0.04096050999608014  0.9956992433696525  1.0000
  H   H15       1.0  0.7134383593714292  0.31809529846406076  0.9263129009035241  1.0000
  H   H16       1.0  0.6603261150819337  0.23905506784355054  0.1345271883170982  1.0000
  H   H17       1.0  0.7145870230864224  0.06175331500507997  0.2737269069378059  1.0000
  C   C29       1.0  0.8265845934783075  0.4071633603192601  0.19715142850755554  1.0000
  C   C30       1.0  0.8988639529805265  0.4068222616247292  0.19676786102554547  1.0000
  C   C31       1.0  0.9353194719122154  0.40516214166946724  0.0795157657018084  1.0000
  C   C32       1.0  0.8986963013748546  0.4068530924339828  0.9615201686451775  1.0000
  C   C33       1.0  0.8264473178064452  0.4073121040492264  0.9598892666959604  1.0000
  C   C34       1.0  0.7908105263901771  0.4071198532154834  0.07827593488892748  1.0000
  C   C35       1.0  0.011637210859846592  0.4061859405419134  0.07885924964051096  1.0000
  O   O2        1.0  0.04195673753252627  0.46638970841490357  0.9847393347518514  1.0000
  C   C36       1.0  0.053559132879617895  0.33890390016595173  0.18487573580897432  1.0000
  C   C37       1.0  0.1182307833687677  0.3882860610019762  0.21681767604252405  1.0000
  C   C38       1.0  0.1584750829184649  0.32468130498733005  0.3155623279102482  1.0000
  C   C39       1.0  0.13489019620219378  0.2107704420624743  0.38258639093495694  1.0000
  C   C40       1.0  0.0711307243020316  0.15992611213363395  0.35063253648382875  1.0000
  C   C41       1.0  0.030690397177478568  0.2231554215466229  0.25198731909427985  1.0000
  H   H18       1.0  0.6901828120328943  0.4098187616273057  0.4050405232001315  1.0000
  H   H19       1.0  0.9268926948196031  0.4093056337807072  0.28772440977311314  1.0000
  H   H20       1.0  0.9267318438686531  0.40655721837305303  0.8709255105624731  1.0000
  H   H21       1.0  0.7350885861895485  0.4073836133184354  0.07776740149658257  1.0000
  H   H22       1.0  0.7986925491318263  0.4085934153716617  0.6317213209175234  1.0000
  H   H23       1.0  0.13734010923675122  0.4766409033795911  0.1661562077696086  1.0000
  H   H24       1.0  0.20800297179188945  0.36373976639520156  0.34007915374340475  1.0000
  H   H25       1.0  0.16613960291046181  0.16162224856819485  0.4589105387369441  1.0000
  H   H26       1.0  0.05314123315713926  0.07109669717289657  0.40193685861490375  1.0000
  H   H27       1.0  0.9819883244098261  0.18080101882795319  0.22729363960906793  1.0000
  Zn  Zn1       1.0  0.7511287568023933  0.40849561044797733  0.5775629181920081  1.0000
  Zn  Zn2       1.0  0.9018965939144166  0.4059793307964661  0.5794771381611934  1.0000
  C   C42       1.0  0.8264712639089342  0.402110315843198  0.8157136923833873  1.0000
  C   C43       1.0  0.8265557333195496  0.41236623657203014  0.34132651291123417  1.0000
  C   C44       1.0  0.8265357255759784  0.6444294874665358  0.5734279113975557  1.0000
  C   C45       1.0  0.8264912200463894  0.17004550551439723  0.5836123619380985  1.0000
  O   O3        1.0  0.8837616555031916  0.4131517886018854  0.3904394228181747  1.0000
  O   O4        1.0  0.8836946415379205  0.3994139859827751  0.7680532569531237  1.0000
  O   O5        1.0  0.8837459236125277  0.5950897947488472  0.5724057652732726  1.0000
  O   O6        1.0  0.8837103220001319  0.2174759899657055  0.5860868164733994  1.0000
  O   O7        1.0  0.7693149772670157  0.5969989521388335  0.5709532392197416  1.0000
  O   O8        1.0  0.7692636953488624  0.4013247036671514  0.7666006621985  1.0000
  O   O9        1.0  0.7693307096365865  0.41506246072494457  0.38898526664755084  1.0000
  O   O10       1.0  0.7692793761123169  0.2193866528189676  0.5846327576673428  1.0000
