data_image0
_chemical_formula_structural       NC9NC5H8C6BrH5C9H8Zn2C4O8
_chemical_formula_sum              "N2 C33 H21 Br1 Zn2 O8"
_cell_length_a       17.807436237873137
_cell_length_b       10.302969083221269
_cell_length_c       9.275155815604963
_cell_angle_alpha    86.05280197498422
_cell_angle_beta     89.76311116066847
_cell_angle_gamma    88.39001038669201

_space_group_name_H-M_alt    "P 1"
_space_group_IT_number       1

loop_
  _space_group_symop_operation_xyz
  'x, y, z'

loop_
  _atom_site_type_symbol
  _atom_site_label
  _atom_site_symmetry_multiplicity
  _atom_site_fract_x
  _atom_site_fract_y
  _atom_site_fract_z
  _atom_site_occupancy
  N   N1        1.0  0.7022043129673052  0.37515228043199467  0.3988309449369656  1.0000
  C   C1        1.0  0.6415770087601743  0.33988091541742826  0.38659756423275415  1.0000
  C   C2        1.0  0.5661633057777709  0.2960072214815064  0.3713805669230832  1.0000
  C   C3        1.0  0.5476929945309249  0.22373015384334624  0.2548576924310413  1.0000
  C   C4        1.0  0.47446988273398233  0.1810200195834455  0.2399912750685946  1.0000
  C   C5        1.0  0.4186682466437436  0.21020927063801387  0.34161172007999396  1.0000
  C   C6        1.0  0.340851250609758  0.16493496939926855  0.32590364729960264  1.0000
  C   C7        1.0  0.2787684860190857  0.24688356358955033  0.35468838578254935  1.0000
  C   C8        1.0  0.2054031187661434  0.2039705714974609  0.33983715043006635  1.0000
  C   C9        1.0  0.1422715771487573  0.2886127231520883  0.36902571719557087  1.0000
  N   N2        1.0  0.09152680336070597  0.35665916641322926  0.3924925186812416  1.0000
  C   C10       1.0  0.1935368798199344  0.07885087418707193  0.29617304558101054  1.0000
  C   C11       1.0  0.254762244316092  0.9968883614323669  0.2673789969494209  1.0000
  C   C12       1.0  0.3280074487724207  0.03940523194063815  0.2820054729928396  1.0000
  C   C13       1.0  0.43783075338907945  0.2829823939172169  0.45837787639420324  1.0000
  C   C14       1.0  0.5111061748835615  0.3255008830382069  0.47307156625668934  1.0000
  H   H1        1.0  0.5898291399409904  0.2006477997901599  0.17527722237232912  1.0000
  H   H2        1.0  0.4612581173083323  0.1266561536343811  0.14797348045058523  1.0000
  H   H3        1.0  0.28737013756913343  0.3445605920486523  0.3867335880287024  1.0000
  H   H4        1.0  0.1370336290530375  0.04473643927124104  0.28441577524231887  1.0000
  H   H5        1.0  0.24545791619431837  0.9000210539352433  0.2340016848574562  1.0000
  H   H6        1.0  0.3745795572907208  0.973520727482825  0.2608672305523263  1.0000
  H   H7        1.0  0.39641615967186655  0.30553678007361684  0.5393948658980712  1.0000
  H   H8        1.0  0.5248425308487402  0.3810761659818401  0.5639334561118994  1.0000
  C   C15       1.0  0.8968691596681089  0.9846581045644832  0.3956679713767379  1.0000
  C   C16       1.0  0.9748324985987922  0.978229327806095  0.4186879944752897  1.0000
  C   C17       1.0  0.01350651041618334  0.8581024564378633  0.43010697806668596  1.0000
  C   C18       1.0  0.9748325566932644  0.743146963328093  0.4186877200560424  1.0000
  C   C19       1.0  0.8968691709073805  0.7471431206473355  0.39566787564376127  1.0000
  C   C20       1.0  0.8582639847420876  0.8684816968997998  0.38426909169412315  1.0000
  Br  Br1       1.0  0.11955007309704468  0.8510125716306235  0.4614185624938296  1.0000
  H   H9        1.0  0.8675245099865679  0.31437949548694566  0.3870028042307627  1.0000
  H   H10       1.0  0.00586823013051463  0.06615364790694978  0.4278519890059145  1.0000
  H   H11       1.0  0.005868316416426598  0.6510727046376513  0.4278513383825686  1.0000
  H   H12       1.0  0.7981356600303894  0.8725017235374412  0.3665153571950499  1.0000
  H   H13       1.0  0.8675243017723384  0.42134552966912026  0.387004937330931  1.0000
  C   C21       1.0  0.8954927368024932  0.36268439508095013  0.9724591032048813  1.0000
  C   C22       1.0  0.836724590393029  0.4287359418825092  0.04123074327329345  1.0000
  C   C23       1.0  0.7829882133939403  0.5031768193130084  0.960820822179052  1.0000
  C   C24       1.0  0.7870234415733527  0.5131188399816458  0.8101733278494745  1.0000
  C   C25       1.0  0.8442798516810016  0.44644156493356707  0.7397179349487919  1.0000
  C   C26       1.0  0.8982455794648785  0.3691168079140863  0.8188767102278618  1.0000
  C   C27       1.0  0.7317685357870568  0.5906649756805951  0.7274755104666975  1.0000
  C   C28       1.0  0.6855025062348594  0.6555991599826039  0.6582006930040749  1.0000
  C   C29       1.0  0.6293669988472097  0.734385789917793  0.5741359303869089  1.0000
  H   H14       1.0  0.06986066931292712  0.24965528476749643  0.08257816086624392  1.0000
  H   H15       1.0  0.8333495430527672  0.4252974282016256  0.15807722937011404  1.0000
  H   H16       1.0  0.7386567864364121  0.5540794386809129  0.016355585815180044  1.0000
  H   H17       1.0  0.845667870771324  0.4524805088253132  0.6225490406511063  1.0000
  H   H18       1.0  0.014590681588177336  0.2884064872306209  0.5434001716125727  1.0000
  H   H19       1.0  0.6446326084721452  0.7373908365676712  0.45788840979804357  1.0000
  H   H20       1.0  0.5734167728790581  0.69081220202262  0.5900731162194446  1.0000
  H   H21       1.0  0.6274657956968278  0.8347237078856339  0.6106715982157351  1.0000
  Zn  Zn1       1.0  0.8145543997809757  0.3698121663578141  0.39701014683743496  1.0000
  Zn  Zn2       1.0  0.979176736883493  0.3619887877233141  0.39432516472296264  1.0000
  C   C30       1.0  0.89772356864526  0.3627290237104277  0.6588857214567565  1.0000
  C   C31       1.0  0.8960093661500871  0.3690734841125507  0.13244970223430674  1.0000
  C   C32       1.0  0.8968466248001594  0.6029737750265793  0.38992502602066104  1.0000
  C   C33       1.0  0.8968862540709598  0.12882717624402873  0.40141047542156105  1.0000
  O   O1        1.0  0.9586560706724006  0.36824312539896153  0.18512507208184914  1.0000
  O   O2        1.0  0.9600214075328729  0.35762063649769993  0.6041720974500855  1.0000
  O   O3        1.0  0.9593124269910306  0.5516213629059339  0.386984446679697  1.0000
  O   O4        1.0  0.9593649946883479  0.17424241012638486  0.4023126157108152  1.0000
  O   O5        1.0  0.834366085798572  0.5575585466258344  0.38902269675825485  1.0000
  O   O6        1.0  0.8350750660870935  0.36355937944106187  0.6062102706861565  1.0000
  O   O7        1.0  0.8337097236412073  0.37418180993051847  0.18716151261545466  1.0000
  O   O8        1.0  0.8344186480055009  0.18018108619337567  0.4043491642945154  1.0000
