data_image0
_chemical_formula_structural       NC6NC2H4C7NH5C6NCOH5Zn2C4O8
_chemical_formula_sum              "N4 C26 H14 O9 Zn2"
_cell_length_a       14.927258858638513
_cell_length_b       9.275154477615127
_cell_length_c       9.27373355559583
_cell_angle_alpha    86.40037001266045
_cell_angle_beta     90.01105750145625
_cell_angle_gamma    89.43371000992973

_space_group_name_H-M_alt    "P 1"
_space_group_IT_number       1

loop_
  _space_group_symop_operation_xyz
  'x, y, z'

loop_
  _atom_site_type_symbol
  _atom_site_label
  _atom_site_symmetry_multiplicity
  _atom_site_fract_x
  _atom_site_fract_y
  _atom_site_fract_z
  _atom_site_occupancy
  N   N1        1.0  0.8337929878414803  0.5608913974342604  0.4164506034186275  1.0000
  C   C1        1.0  0.7562664968494202  0.5608913690433562  0.41645061389236493  1.0000
  C   C2        1.0  0.6598339885957895  0.5608914835857579  0.4164505644977529  1.0000
  C   C3        1.0  0.6129202264547258  0.5358454851227842  0.2896939571083603  1.0000
  C   C4        1.0  0.5192089149465892  0.5358455093218698  0.2896938237763338  1.0000
  C   C5        1.0  0.4720179256951771  0.5608913062676582  0.41645058241963473  1.0000
  C   C6        1.0  0.3755853504499912  0.5608914208129603  0.4164505330191113  1.0000
  N   N2        1.0  0.2980588594579318  0.5608913924220553  0.4164505434928485  1.0000
  C   C7        1.0  0.5189316208446857  0.5859373047335317  0.5432071898031161  1.0000
  C   C8        1.0  0.6126429323528227  0.5859372805344463  0.5432073231351424  1.0000
  H   H1        1.0  0.6487242715757787  0.5163582848278564  0.1910700417430924  1.0000
  H   H2        1.0  0.48362061485161884  0.5163584822768663  0.1910700375919947  1.0000
  H   H3        1.0  0.483127642780649  0.6054244958726576  0.6418312131927912  1.0000
  H   H4        1.0  0.6482312318539657  0.6054244060714696  0.6418312197141454  1.0000
  C   C9        1.0  0.06852247054005539  0.13748418861024914  0.41478275763309946  1.0000
  C   C10       1.0  0.04392578639000713  0.21929933461538664  0.2877052525977617  1.0000
  C   C11       1.0  0.012042803244801675  0.1519692211739148  0.16735923311718937  1.0000
  C   C12       1.0  0.0042315677142481575  0.0019057341915547099  0.17267338335142443  1.0000
  C   C13       1.0  0.029658379625183258  0.9188518231946279  0.29685425775250396  1.0000
  C   C14       1.0  0.06333803866197489  0.9842876427067084  0.4181308748810141  1.0000
  C   C15       1.0  0.9862542022659174  0.2373497405137679  0.03875011283721162  1.0000
  N   N3        1.0  0.9655273202373821  0.3059801256033046  0.9353813230619762  1.0000
  H   H5        1.0  0.08591205228600707  0.21795243315282464  0.7685645847852437  1.0000
  H   H6        1.0  0.04758408363834567  0.3362128349848786  0.2834287954722785  1.0000
  H   H7        1.0  0.979250153362775  0.9487864147597143  0.08017990908658867  1.0000
  H   H8        1.0  0.024954252988108615  0.8023828659543462  0.29672741764067334  1.0000
  H   H9        1.0  0.07884840415675012  0.6880616204613419  0.6551747619863335  1.0000
  C   C16       1.0  0.06590680345639943  0.556343167524239  0.9932118284591223  1.0000
  C   C17       1.0  0.9836207449165718  0.5480675342408745  0.06713058210770527  1.0000
  C   C18       1.0  0.9020778458969153  0.5514765679657381  0.9921945867647395  1.0000
  C   C19       1.0  0.9027684325207623  0.5678480055278106  0.8409115807498017  1.0000
  C   C20       1.0  0.9837206353609981  0.5739721171442159  0.7657803281169104  1.0000
  C   C21       1.0  0.06595369771813586  0.5654286201475094  0.8397017827761508  1.0000
  N   N4        1.0  0.8195065728229043  0.5464195401911603  0.07218908941231672  1.0000
  C   C22       1.0  0.7392034207001901  0.4800239754876414  0.02514416485411707  1.0000
  O   O1        1.0  0.7391995057682084  0.4037205323289581  0.9174916469295685  1.0000
  H   H10       1.0  0.2763966474580366  0.6564605920477857  0.08992108832578682  1.0000
  H   H11       1.0  0.8408404846016017  0.5774478857564243  0.7803349321276314  1.0000
  H   H12       1.0  0.20846587133256378  0.6267652550309295  0.5548380356639702  1.0000
  H   H13       1.0  0.8189510299456113  0.5847568309030668  0.17575966459276832  1.0000
  H   H14       1.0  0.6778995041934607  0.49211604805014453  0.08561282305153184  1.0000
  Zn  Zn1       1.0  0.967770121790193  0.5608876218588001  0.41645889895346355  1.0000
  Zn  Zn2       1.0  0.16408180935262776  0.5608834847541304  0.4164540243161402  1.0000
  C   C23       1.0  0.06597800314956048  0.55796731699427  0.6796743268511838  1.0000
  C   C24       1.0  0.06587606058054729  0.5638056103366385  0.15323874502093135  1.0000
  C   C25       1.0  0.06431307345961673  0.8241620999857272  0.41175454465562666  1.0000
  C   C26       1.0  0.06754093389302596  0.2976090958764184  0.4211585972103892  1.0000
  O   O2        1.0  0.14036504384490534  0.5663022140282941  0.20694336531318802  1.0000
  O   O3        1.0  0.14048505503825515  0.5554664811653376  0.6259655876253569  1.0000
  O   O4        1.0  0.13913959905505402  0.7704221510298823  0.40961847387800043  1.0000
  O   O5        1.0  0.14171043277109074  0.3513465533195519  0.4232903710361364  1.0000
  O   O6        1.0  0.9901414313801756  0.7704245532962788  0.40962255222755584  1.0000
  O   O7        1.0  0.991486876749287  0.5554706149033974  0.6259695959751006  1.0000
  O   O8        1.0  0.9913668658271304  0.5663062789229463  0.20694564061465168  1.0000
  O   O9        1.0  0.992712254818777  0.3513506090613012  0.42329275435609715  1.0000
