data_image0
_chemical_formula_structural       NC8NH4C6ClH5C6NH7Zn2C4O8
_chemical_formula_sum              "N3 C24 H16 Cl1 Zn2 O8"
_cell_length_a       14.927258825633057
_cell_length_b       9.276545438789551
_cell_length_c       9.274774538082514
_cell_angle_alpha    85.10039089897613
_cell_angle_beta     90.34966621466518
_cell_angle_gamma    89.40960858786079

_space_group_name_H-M_alt    "P 1"
_space_group_IT_number       1

loop_
  _space_group_symop_operation_xyz
  'x, y, z'

loop_
  _atom_site_type_symbol
  _atom_site_label
  _atom_site_symmetry_multiplicity
  _atom_site_fract_x
  _atom_site_fract_y
  _atom_site_fract_z
  _atom_site_occupancy
  N   N1        1.0  0.8273419340677306  0.5919034032500925  0.40898352525440895  1.0000
  C   C1        1.0  0.749815509926665  0.5919033767179183  0.40898353490310413  1.0000
  C   C2        1.0  0.6533828683949463  0.5919033759483026  0.4089835900532126  1.0000
  C   C3        1.0  0.606550097194647  0.5043823400357226  0.31908086053654583  1.0000
  C   C4        1.0  0.5128387861040152  0.504382250464104  0.31908083198380743  1.0000
  C   C5        1.0  0.4655668703083808  0.5919034297494332  0.4089835021567618  1.0000
  C   C6        1.0  0.5123996410300353  0.679424476916933  0.4988861234747761  1.0000
  C   C7        1.0  0.606111019112245  0.6794245664855344  0.49888615203344466  1.0000
  C   C8        1.0  0.3691342289779851  0.5919033326212013  0.4089834470928881  1.0000
  N   N2        1.0  0.29160780415695176  0.591903413702563  0.40898345875691255  1.0000
  H   H1        1.0  0.6424170471720899  0.4362858382819157  0.24913151016984014  1.0000
  H   H2        1.0  0.477313391815348  0.4362858137638384  0.24913160750810867  1.0000
  H   H3        1.0  0.4765326910525925  0.74752097867074  0.5688354738414816  1.0000
  H   H4        1.0  0.6416363468879791  0.7475209919338976  0.5688354847018664  1.0000
  C   C9        1.0  0.0621819448254759  0.16847031288448708  0.4087455985045796  1.0000
  C   C10       1.0  0.061999905535505155  0.25328096206399203  0.27553616247776586  1.0000
  C   C11       1.0  0.053678971748061244  0.18933552207643856  0.14522605403572886  1.0000
  C   C12       1.0  0.04534726788998911  0.039736595924425806  0.1461205925814264  1.0000
  C   C13       1.0  0.04690186244892236  0.9534088080998643  0.27688496764701176  1.0000
  C   C14       1.0  0.05677652487045015  0.01532529172208209  0.4092339068956967  1.0000
  Cl  Cl1       1.0  0.052340286398539604  0.29739070647003474  0.9804609862091817  1.0000
  H   H5        1.0  0.10888652039925506  0.42945482979978755  0.6356489864213437  1.0000
  H   H6        1.0  0.06618638120504827  0.37002639223717226  0.27267876853409656  1.0000
  H   H7        1.0  0.03851791556135242  0.9898922895165739  0.045304911698992534  1.0000
  H   H8        1.0  0.04251181875655918  0.8371714366148013  0.27423111001702294  1.0000
  H   H9        1.0  0.027658835843393573  0.7145589265298827  0.6426071035845948  1.0000
  C   C15       1.0  0.05784796775101176  0.5955857400566273  0.9851755581714281  1.0000
  C   C16       1.0  0.1207823246196218  0.6806769358608844  0.05196112417844833  1.0000
  C   C17       1.0  0.18781150556516923  0.7538903322083188  0.9712384148384854  1.0000
  C   C18       1.0  0.1924508716400264  0.7423445819028541  0.8222543419745647  1.0000
  C   C19       1.0  0.1297836520563117  0.6604298199405345  0.753768044896685  1.0000
  C   C20       1.0  0.06111047256101076  0.5882097856203894  0.8328039312949196  1.0000
  N   N3        1.0  0.25177557338031975  0.8387809236225223  0.04102911022321831  1.0000
  H   H10       1.0  0.9257409979580437  0.3137131739653676  0.11093335932203763  1.0000
  H   H11       1.0  0.11912611801831097  0.6875156303751935  0.16798519684729651  1.0000
  H   H12       1.0  0.24420764158941344  0.7980550933123216  0.7587556884105111  1.0000
  H   H13       1.0  0.1338039781386542  0.6564189135063578  0.6375926822956686  1.0000
  H   H14       1.0  0.9693524726696152  0.4027483620941182  0.5666152228969605  1.0000
  H   H15       1.0  0.2491164344479726  0.8478232345978602  0.152404247117341  1.0000
  H   H16       1.0  0.30224655871519057  0.8933575253240414  0.9818184876244244  1.0000
  Zn  Zn1       1.0  0.9613191009212271  0.5918994622459417  0.40899184664537525  1.0000
  Zn  Zn2       1.0  0.15763077157019945  0.5918954141340591  0.4089869816533602  1.0000
  C   C21       1.0  0.0605284615348014  0.5838597068426716  0.6725807086288431  1.0000
  C   C22       1.0  0.0584235436063114  0.5999369876159613  0.14539826231890807  1.0000
  C   C23       1.0  0.057771499557331504  0.8553016868773502  0.4033904419733323  1.0000
  C   C24       1.0  0.061180449950331686  0.32849327451281174  0.41458860492187233  1.0000
  O   O1        1.0  0.13311600819874592  0.6013894791492493  0.19916861561698007  1.0000
  O   O2        1.0  0.13483201796628186  0.5824030587177458  0.6188062468331532  1.0000
  O   O3        1.0  0.13260473779340676  0.8015958774102192  0.40143320283241124  1.0000
  O   O4        1.0  0.13534322090139828  0.3821966717147134  0.41654155141313853  1.0000
  O   O5        1.0  0.9836065845984504  0.801598204668305  0.40143727687966657  1.0000
  O   O6        1.0  0.9858338534131976  0.5824071190473195  0.6188102449270254  1.0000
  O   O7        1.0  0.9841178373472814  0.601393504330468  0.1991708785017463  1.0000
  O   O8        1.0  0.9863450505285785  0.38220068564101256  0.41654392249655836  1.0000
