data_image0
_chemical_formula_structural       NC10NC3NH7C6SCOC6H10C7OC3FC3H9Zn2C4O8
_chemical_formula_sum              "N3 C43 H26 S1 O10 F1 Zn2"
_cell_length_a       19.210446455230148
_cell_length_b       10.302038109246572
_cell_length_c       10.29938172300155
_cell_angle_alpha    85.58271297890445
_cell_angle_beta     89.97418890370308
_cell_angle_gamma    89.9653702289085

_space_group_name_H-M_alt    "P 1"
_space_group_IT_number       1

loop_
  _space_group_symop_operation_xyz
  'x, y, z'

loop_
  _atom_site_type_symbol
  _atom_site_label
  _atom_site_symmetry_multiplicity
  _atom_site_fract_x
  _atom_site_fract_y
  _atom_site_fract_z
  _atom_site_occupancy
  N   N1        1.0  0.6559304538463903  0.41948043152793246  0.5675674933600383  1.0000
  C   C1        1.0  0.5957020713714352  0.4216874426171806  0.5677990094409456  1.0000
  C   C2        1.0  0.5208978387188282  0.42442373216882107  0.5680858293251776  1.0000
  C   C3        1.0  0.4852952820487328  0.5406283878683196  0.5832169590899232  1.0000
  C   C4        1.0  0.4126298227998441  0.5407798739681926  0.5831643875125296  1.0000
  C   C5        1.0  0.3757311354826804  0.42513253995670025  0.5681724305240403  1.0000
  C   C6        1.0  0.2984089076583341  0.42377637204529384  0.5680216125601056  1.0000
  C   C7        1.0  0.2606721939604719  0.5273054503565865  0.5046776890983036  1.0000
  C   C8        1.0  0.1878937304979341  0.5259035488778412  0.5045683808862216  1.0000
  C   C9        1.0  0.1518505989959467  0.42123000130038807  0.5677520428570921  1.0000
  C   C10       1.0  0.0769209833526485  0.41992821693261934  0.5676149971796307  1.0000
  N   N2        1.0  0.016683054172972202  0.41888153811175033  0.5675048473231574  1.0000
  C   C11       1.0  0.1888636695099449  0.31782657761992583  0.6310709791069431  1.0000
  C   C12       1.0  0.2616439512629258  0.3189542927026463  0.6312304868357199  1.0000
  C   C13       1.0  0.4139436749205564  0.31074774756213164  0.5533297677965989  1.0000
  N   N3        1.0  0.48471381338279357  0.31319214174923227  0.5534957386056829  1.0000
  H   H1        1.0  0.5134024391821629  0.6300421879557692  0.5952802611292071  1.0000
  H   H2        1.0  0.3853670296777514  0.6307757244054923  0.596622498789094  1.0000
  H   H3        1.0  0.2874130722302934  0.608526020851927  0.4537010873099978  1.0000
  H   H4        1.0  0.1597606720092187  0.6062969417863553  0.4549220229175989  1.0000
  H   H5        1.0  0.1614833258504063  0.23647000855162512  0.6806176919553041  1.0000
  H   H6        1.0  0.28913196091140286  0.23868039833755983  0.6823145790825507  1.0000
  H   H7        1.0  0.3876722055283984  0.21988918422580594  0.5398252654078224  1.0000
  C   C14       1.0  0.8362441565844306  0.03790265737697919  0.5674960238598715  1.0000
  C   C15       1.0  0.7767487742023843  0.042750254983957126  0.48798740948511643  1.0000
  C   C16       1.0  0.7474738461368345  0.9282030379873607  0.4479432519889574  1.0000
  C   C17       1.0  0.7769726756055042  0.8076172708798103  0.48793336487702627  1.0000
  C   C18       1.0  0.8363760210006173  0.8004493598847803  0.5675875746260668  1.0000
  C   C19       1.0  0.8657412513566182  0.9162455506654729  0.60687083201169  1.0000
  S   S1        1.0  0.6719551088950307  0.935836591861834  0.34534808775212555  1.0000
  C   C20       1.0  0.7231543384206561  0.9442078972386341  0.19891837448334626  1.0000
  O   O1        1.0  0.7399456315897965  0.8389002004553123  0.1525657761317145  1.0000
  C   C21       1.0  0.7461215573652086  0.07031886865804471  0.1334173470498119  1.0000
  C   C22       1.0  0.7953521131702348  0.07254993567234802  0.03190306275055743  1.0000
  C   C23       1.0  0.8177333598198477  0.190832860914669  0.9701765661869203  1.0000
  C   C24       1.0  0.7912608015196295  0.30812375827561755  0.008682129024056628  1.0000
  C   C25       1.0  0.7422397962114271  0.3073645737451842  0.10884334350331915  1.0000
  C   C26       1.0  0.7196264811255134  0.18938575490728946  0.1708900504339321  1.0000
  H   H8        1.0  0.9483053413835565  0.23606970894076018  0.7175292168549017  1.0000
  H   H9        1.0  0.7530711028028311  0.13530347989885438  0.45671596838647877  1.0000
  H   H10       1.0  0.753519334150228  0.719896462557552  0.4561733576054409  1.0000
  H   H11       1.0  0.9116082998277635  0.9115880788033989  0.6681633458402898  1.0000
  H   H12       1.0  0.85908260542136  0.4704093112700242  0.597549974175555  1.0000
  H   H13       1.0  0.8168898449214692  0.9829415425876691  0.0006019933815828417  1.0000
  H   H14       1.0  0.8557165986938264  0.19150308963815504  0.8924729772584232  1.0000
  H   H15       1.0  0.8086674032015915  0.3995868526545421  0.9608051956334682  1.0000
  H   H16       1.0  0.721614625398285  0.3983538823113535  0.13838361423520149  1.0000
  H   H17       1.0  0.6812356524767784  0.19210361710400695  0.2474613810625374  1.0000
  C   C27       1.0  0.8363686597258346  0.419074789762083  0.18617409616046454  1.0000
  C   C28       1.0  0.8583745557492389  0.288615018961208  0.19501585950353048  1.0000
  C   C29       1.0  0.8702300357319243  0.2232695847065096  0.08226655260368386  1.0000
  C   C30       1.0  0.8583080289633221  0.2889081933455546  0.9597498562203429  1.0000
  C   C31       1.0  0.8362514697796404  0.41927718157603716  0.9489094963423135  1.0000
  C   C32       1.0  0.8255848914765856  0.4837097290198211  0.06271117677001346  1.0000
  C   C33       1.0  0.8927621314488533  0.08509680731478975  0.09149135103684579  1.0000
  O   O2        1.0  0.8713096735099259  0.01190584609736401  0.007305027659623374  1.0000
  C   C34       1.0  0.9396357175632627  0.029959072461316346  0.1961218167279999  1.0000
  C   C35       1.0  0.9340052880228469  0.8980391553347863  0.24138010438530338  1.0000
  C   C36       1.0  0.978507873415399  0.8447708867165071  0.33892246026271744  1.0000
  F   F1        1.0  0.9723217868269571  0.7177443951726498  0.38257708264097956  1.0000
  C   C37       1.0  0.029360583887596332  0.9222914718077722  0.3913908709545817  1.0000
  C   C38       1.0  0.03599324453640974  0.05300456577448797  0.34606720616194253  1.0000
  C   C39       1.0  0.9916287658512005  0.10668427690510729  0.2485958515867108  1.0000
  H   H18       1.0  0.7938181919181745  0.6646568243083697  0.3768563455320397  1.0000
  H   H19       1.0  0.8655774079257698  0.23722489265514676  0.289814030614455  1.0000
  H   H20       1.0  0.8669271268528425  0.2383565009120128  0.8727164860326253  1.0000
  H   H21       1.0  0.80861965867701  0.5842841904252998  0.05509078073922247  1.0000
  H   H22       1.0  0.827217272688126  0.46902147784313075  0.6173148728858329  1.0000
  H   H23       1.0  0.8947810111253611  0.8366027277954686  0.20200658558587656  1.0000
  H   H24       1.0  0.06383284332511496  0.8810356821245536  0.46679662270346545  1.0000
  H   H25       1.0  0.07576342555744953  0.11269276787382053  0.3860793443773862  1.0000
  H   H26       1.0  0.9984900784482786  0.2076076324040921  0.21334605407154816  1.0000
  Zn  Zn1       1.0  0.7600358590252626  0.419304142584314  0.567556913694475  1.0000
  Zn  Zn2       1.0  0.9125776295910886  0.4190472498439819  0.5675260614619213  1.0000
  C   C40       1.0  0.836271192523762  0.4140665060076487  0.8047355354360639  1.0000
  C   C41       1.0  0.8363439621076418  0.42428652187960947  0.33034756704609425  1.0000
  C   C42       1.0  0.8363482883852549  0.6563104245271978  0.5623950929622914  1.0000
  C   C43       1.0  0.8362668139139642  0.18204104353410355  0.5726880785815736  1.0000
  O   O3        1.0  0.8942244793336276  0.4259324729361183  0.37872179197490596  1.0000
  O   O4        1.0  0.8941663494690074  0.41222459971629705  0.7563375204142206  1.0000
  O   O5        1.0  0.8942278247759314  0.6078396291859038  0.5606458988376832  1.0000
  O   O6        1.0  0.8941629519910944  0.2303174528163436  0.5744133161887306  1.0000
  O   O7        1.0  0.7784504845702384  0.6080339397010286  0.5606696589713631  1.0000
  O   O8        1.0  0.7783890095404805  0.4124204701464545  0.7563612114898902  1.0000
  O   O9        1.0  0.7784471396834248  0.4261282977065939  0.3787439216494672  1.0000
  O   O10       1.0  0.7783856123214825  0.23051326832606311  0.5744355432297019  1.0000
