data_image0
_chemical_formula_structural       NC9NC4H8C8NH7C8NH11Zn2C4O8
_chemical_formula_sum              "N4 C33 H26 Zn2 O8"
_cell_length_a       16.32274767691083
_cell_length_b       9.274263428431858
_cell_length_c       9.275652972338538
_cell_angle_alpha    85.89520880153039
_cell_angle_beta     89.90519038886141
_cell_angle_gamma    90.1410557844374

_space_group_name_H-M_alt    "P 1"
_space_group_IT_number       1

loop_
  _space_group_symop_operation_xyz
  'x, y, z'

loop_
  _atom_site_type_symbol
  _atom_site_label
  _atom_site_symmetry_multiplicity
  _atom_site_fract_x
  _atom_site_fract_y
  _atom_site_fract_z
  _atom_site_occupancy
  N   N1        1.0  0.7741070480388021  0.5576086665750976  0.3971697784599826  1.0000
  C   C1        1.0  0.7211958655935857  0.5045250930645291  0.3369580701558835  1.0000
  C   C2        1.0  0.6554272841459056  0.43859488140298075  0.2621746469622437  1.0000
  C   C3        1.0  0.6660020987784275  0.3484140856826743  0.15987946847829912  1.0000
  C   C4        1.0  0.586159263756133  0.30440540509692227  0.10996282467084484  1.0000
  C   C5        1.0  0.52792468251126  0.36881114943759213  0.1830230008442988  1.0000
  C   C6        1.0  0.4378026208214473  0.35178931594081303  0.1637177687679663  1.0000
  C   C7        1.0  0.3830207476790808  0.4268583163463151  0.24886591735270988  1.0000
  C   C8        1.0  0.2981544841159253  0.4123106374665171  0.23236644241956414  1.0000
  C   C9        1.0  0.2429857071854455  0.48968739138748113  0.3201313498439735  1.0000
  N   N2        1.0  0.1986488120564582  0.5518855661080133  0.3906794704307117  1.0000
  C   C10       1.0  0.2670157418421688  0.32257255313263  0.13058180425462407  1.0000
  C   C11       1.0  0.3204767765110959  0.2476029896019465  0.045546819371487864  1.0000
  C   C12       1.0  0.4051799942486236  0.26175882010696805  0.06160170091134565  1.0000
  C   C13       1.0  0.566697088548056  0.4627217914075319  0.28954618789904996  1.0000
  H   H1        1.0  0.7245293545884874  0.3133470102285252  0.1200991916734977  1.0000
  H   H2        1.0  0.5770647777392415  0.2307007517973314  0.0263568977777795  1.0000
  H   H3        1.0  0.4058927734871324  0.49691402021539877  0.3283261049428108  1.0000
  H   H4        1.0  0.2014940485755332  0.31058828115360493  0.1169899085021242  1.0000
  H   H5        1.0  0.29621558960517  0.17818221634221576  0.9668070806417637  1.0000
  H   H6        1.0  0.44431100594267287  0.201787997943923  0.9935796243392908  1.0000
  H   H7        1.0  0.550175394945227  0.42487817323775545  0.40222304966549505  1.0000
  H   H8        1.0  0.5505172823915946  0.5781321837038869  0.2648560444983459  1.0000
  C   C14       1.0  0.983790900785854  0.13120055458370716  0.39427048273207244  1.0000
  C   C15       1.0  0.9726311405259609  0.2138368615605082  0.26271275187733534  1.0000
  C   C16       1.0  0.9695112781803614  0.1481016439064835  0.1322245425633215  1.0000
  C   C17       1.0  0.9781399157839188  0.9981899846766155  0.13005628652377643  1.0000
  C   C18       1.0  0.9870973656580523  0.9140729022810563  0.2607641359968633  1.0000
  C   C19       1.0  0.988972800806493  0.978282556891538  0.39359114574451914  1.0000
  C   C20       1.0  0.973554505969273  0.9273310433175407  0.9894926381868636  1.0000
  C   C21       1.0  0.8884202865799729  0.889329860992136  0.9587597757292419  1.0000
  N   N3        1.0  0.8212257039290976  0.8593350547811941  0.9345125136017169  1.0000
  H   H9        1.0  0.055926057360070836  0.21069932904414743  0.725476735952904  1.0000
  H   H10       1.0  0.9680924333378218  0.3305012860606152  0.2604214325203191  1.0000
  H   H11       1.0  0.961127898150843  0.2144799015403076  0.032464473377143976  1.0000
  H   H12       1.0  0.9906262525965043  0.7975231718976483  0.2588115899498513  1.0000
  H   H13       1.0  0.03435940012635564  0.6816729486986177  0.6185841754067438  1.0000
  H   H14       1.0  0.011426256564462056  0.8277422243900752  0.9944916247718032  1.0000
  H   H15       1.0  0.9973574596920672  0.001228108271316807  0.8994304124858271  1.0000
  C   C22       1.0  0.984540969388653  0.551955044624983  0.970690201964687  1.0000
  C   C23       1.0  0.9319834463423357  0.6470170080105753  0.03757397472139078  1.0000
  C   C24       1.0  0.8859456040114778  0.7504081190286531  0.9555049401266298  1.0000
  C   C25       1.0  0.8913502386568771  0.7573626655977723  0.8046319607032508  1.0000
  C   C26       1.0  0.9421044709206842  0.6623892201567296  0.7363676333715178  1.0000
  C   C27       1.0  0.9882227515476882  0.5575280322287642  0.8171713965061285  1.0000
  C   C28       1.0  0.8290534562783703  0.8498574133394595  0.028848510940783445  1.0000
  C   C29       1.0  0.7443931218822256  0.7805217588135249  0.05098006329547355  1.0000
  N   N4        1.0  0.6894286979715734  0.8787414332740373  0.1199591818145902  1.0000
  H   H16       1.0  0.043274760228516396  0.3368548122925821  0.26655135393056795  1.0000
  H   H17       1.0  0.9280622609096588  0.6430567354072163  0.15446429453230515  1.0000
  H   H18       1.0  0.8555011219925495  0.8355402646797615  0.7395417734162639  1.0000
  H   H19       1.0  0.9436213611656219  0.6685637241240074  0.6193201812880882  1.0000
  H   H20       1.0  0.09975653132179318  0.4239116757444054  0.5450797489719608  1.0000
  H   H21       1.0  0.854863087414003  0.874854705837044  0.1351502864856673  1.0000
  H   H22       1.0  0.8231322068590761  0.9540763400724711  0.9625557621247927  1.0000
  H   H23       1.0  0.7186336947464206  0.7566827449993114  0.9442595448602055  1.0000
  H   H24       1.0  0.7495439287888219  0.6771430863062105  0.11916717813627885  1.0000
  H   H25       1.0  0.6312722518006666  0.8310868780187384  0.12528540613030925  1.0000
  H   H26       1.0  0.7086554735000155  0.8857019016213253  0.22678006134661732  1.0000
  Zn  Zn1       1.0  0.8966206492566202  0.5559532871390065  0.3953051423017788  1.0000
  Zn  Zn2       1.0  0.0761351959643739  0.553529187697776  0.39255592336990675  1.0000
  C   C30       1.0  0.9874898174004938  0.5507287718448778  0.6571729688054304  1.0000
  C   C31       1.0  0.9852679998616654  0.5587554972953523  0.1306882068467521  1.0000
  C   C32       1.0  0.9879641095267916  0.818128235348494  0.38797623261435094  1.0000
  C   C33       1.0  0.9847936362132824  0.29135430226010395  0.39988502220625727  1.0000
  O   O1        1.0  0.053636794365120144  0.5601115658840241  0.18334168967447262  1.0000
  O   O2        1.0  0.05536840170365976  0.5475317770634314  0.6024324784018875  1.0000
  O   O3        1.0  0.05575048675685278  0.7634602478381269  0.3850542221778446  1.0000
  O   O4        1.0  0.05325464764885868  0.34418310554271453  0.4007198387626252  1.0000
  O   O5        1.0  0.9195011363126078  0.7652993701228149  0.387141227839652  1.0000
  O   O6        1.0  0.919119061521972  0.5493726317084981  0.6045194058258605  1.0000
  O   O7        1.0  0.9173874463935255  0.5619523588588493  0.18542688430616416  1.0000
  O   O8        1.0  0.9170053000808044  0.3460238889129005  0.4028051414607985  1.0000
