data_image0
_chemical_formula_structural       NC8NC6H8C12H10C8NH11Zn2C4O8
_chemical_formula_sum              "N3 C38 H29 Zn2 O8"
_cell_length_a       17.457602349358154
_cell_length_b       10.299137764757564
_cell_length_c       9.275652972338538
_cell_angle_alpha    85.91964994455579
_cell_angle_beta     93.30040864466163
_cell_angle_gamma    91.70779885892506

_space_group_name_H-M_alt    "P 1"
_space_group_IT_number       1

loop_
  _space_group_symop_operation_xyz
  'x, y, z'

loop_
  _atom_site_type_symbol
  _atom_site_label
  _atom_site_symmetry_multiplicity
  _atom_site_fract_x
  _atom_site_fract_y
  _atom_site_fract_z
  _atom_site_occupancy
  N   N1        1.0  0.7165487126713463  0.4435648848150304  0.4744917706065059  1.0000
  C   C1        1.0  0.6554143835886844  0.3975633896038832  0.462722750554684  1.0000
  C   C2        1.0  0.5793607390368449  0.34034330961106307  0.44809268166527616  1.0000
  C   C3        1.0  0.5211754800825749  0.381020243404162  0.5312346438336712  1.0000
  C   C4        1.0  0.44656307878165663  0.3259227972200125  0.5172859699802013  1.0000
  C   C5        1.0  0.3848071707652757  0.36887327862186775  0.6053365095936993  1.0000
  C   C6        1.0  0.31001414938864097  0.38696212481479875  0.5434165929241503  1.0000
  C   C7        1.0  0.2518293360585586  0.42745585587017176  0.6266784831337533  1.0000
  C   C8        1.0  0.17558834710859003  0.446135465128012  0.562298562397872  1.0000
  N   N2        1.0  0.114303507951596  0.46114749178737235  0.510537276244337  1.0000
  C   C9        1.0  0.26794770703640847  0.45010737693135067  0.7724247933272288  1.0000
  C   C10       1.0  0.34195783614896524  0.43241019770873734  0.8347749040464472  1.0000
  C   C11       1.0  0.40013313043142995  0.3920996634428768  0.7520211430752273  1.0000
  C   C12       1.0  0.43141803049231264  0.22946115088680588  0.4186046527289107  1.0000
  C   C13       1.0  0.48959341745222207  0.18906565316803348  0.33590669954344987  1.0000
  C   C14       1.0  0.5634235392898956  0.24427924216020425  0.35046592738553506  1.0000
  H   H1        1.0  0.5338325705968134  0.45667601490546844  0.6051847323517683  1.0000
  H   H2        1.0  0.2972090482414135  0.37129345155791627  0.43014684351172905  1.0000
  H   H3        1.0  0.2233563411296595  0.4813947119150214  0.8377371744596966  1.0000
  H   H4        1.0  0.35424785270127246  0.4496341075138621  0.9476296417414587  1.0000
  H   H5        1.0  0.45682249193587593  0.3774216989724121  0.803217738071617  1.0000
  H   H6        1.0  0.3748769308424304  0.1840491250097493  0.4067953098795549  1.0000
  H   H7        1.0  0.4774449808914959  0.11451824544050161  0.2606257204585827  1.0000
  H   H8        1.0  0.6080170726652129  0.21212563118378958  0.2857213654083921  1.0000
  C   C15       1.0  0.9153565420970514  0.07095413854433352  0.49266534894505454  1.0000
  C   C16       1.0  0.9147096953883512  0.0798705797262307  0.34083641353846494  1.0000
  C   C17       1.0  0.9144569552399069  0.9672622343265836  0.2637044790394225  1.0000
  C   C18       1.0  0.9148597587355718  0.8446196518597862  0.34045365371490943  1.0000
  C   C19       1.0  0.9155030547313128  0.8337486134873768  0.49237685229595196  1.0000
  C   C20       1.0  0.915748772714157  0.9474276582629074  0.56754751360848  1.0000
  C   C21       1.0  0.9137717463931819  0.9777398215386595  0.10308438350621452  1.0000
  C   C22       1.0  0.9597471466750803  0.8969935728230586  0.029711094780742416  1.0000
  C   C23       1.0  0.9590067774702888  0.9071022216567922  0.8785119644074633  1.0000
  C   C24       1.0  0.9124766463301289  0.9975822273472329  0.7989944218875351  1.0000
  C   C25       1.0  0.8665898410359932  0.07820692164513797  0.8705143650492052  1.0000
  C   C26       1.0  0.867137233823587  0.06858464503285644  0.021696981397397282  1.0000
  H   H9        1.0  0.9155661934215343  0.39499849124442044  0.5510652480131191  1.0000
  H   H10       1.0  0.9154630001290555  0.1746799264443173  0.2823034188147333  1.0000
  H   H11       1.0  0.9136101069381116  0.7574432623521049  0.28146559217851674  1.0000
  H   H12       1.0  0.9162455993058737  0.9398345801929028  0.6846564650607929  1.0000
  H   H13       1.0  0.9162292183672491  0.6059169598073221  0.7790796946638829  1.0000
  H   H14       1.0  0.9969664524201518  0.8273107020487833  0.08926635983460596  1.0000
  H   H15       1.0  0.9947030037705162  0.8449197408908241  0.8229764257279228  1.0000
  H   H16       1.0  0.911978301522905  0.005218866935348571  0.681962718698399  1.0000
  H   H17       1.0  0.8303941652727836  0.14804307476749745  0.8087559559514705  1.0000
  H   H18       1.0  0.8303981783914001  0.13091477828759301  0.0748434755648848  1.0000
  C   C27       1.0  0.9137207007262431  0.4497444861222477  0.0690964744149869  1.0000
  C   C28       1.0  0.8639549491163895  0.5325018505419314  0.1307000949833408  1.0000
  C   C29       1.0  0.8202507295176475  0.6231059874971365  0.04400285468965203  1.0000
  C   C30       1.0  0.8252752941641003  0.6296556755181719  0.8936703132779784  1.0000
  C   C31       1.0  0.8733511789921261  0.5468814253039527  0.8305054525991071  1.0000
  C   C32       1.0  0.9171389261021735  0.4549582780745691  0.9159457032775262  1.0000
  C   C33       1.0  0.7663997919961204  0.7095805707384533  0.11163132158409317  1.0000
  C   C34       1.0  0.6874729127275185  0.6426331652895052  0.12529123942433928  1.0000
  N   N3        1.0  0.6354347566211478  0.7281041131125054  0.18874857940884704  1.0000
  H   H19       1.0  0.969939723330768  0.25926312539284924  0.37087476579808465  1.0000
  H   H20       1.0  0.8603034804807056  0.5287269546268125  0.24719815028066863  1.0000
  H   H21       1.0  0.7912563017010178  0.6981089988513512  0.8249765508868956  1.0000
  H   H22       1.0  0.8747379280057737  0.5525207528963567  0.7136090426812998  1.0000
  H   H23       1.0  0.02236961856628428  0.34065364229036943  0.6550488937853021  1.0000
  H   H24       1.0  0.7904400652925995  0.7334644760811913  0.22051518307768503  1.0000
  H   H25       1.0  0.7602733524875257  0.8030781406937743  0.04472953248277056  1.0000
  H   H26       1.0  0.6634732343449284  0.6197945950439525  0.01599348951436252  1.0000
  H   H27       1.0  0.692872909393113  0.5498507087141347  0.19401007643841872  1.0000
  H   H28       1.0  0.5812169819056563  0.6820926561413185  0.1882553153344415  1.0000
  H   H29       1.0  0.6534082685080917  0.7353993126652594  0.29749473958304695  1.0000
  Zn  Zn1       1.0  0.8313321875803169  0.4486354136319468  0.4849020515921694  1.0000
  Zn  Zn2       1.0  0.9995200643968324  0.45606638690024504  0.5001388043226564  1.0000
  C   C35       1.0  0.9164900821242629  0.4487985452238528  0.7558748728051015  1.0000
  C   C36       1.0  0.9143640073452882  0.45590497608837705  0.2291662903976535  1.0000
  C   C37       1.0  0.9154482230902924  0.6895286721110965  0.48668514566595733  1.0000
  C   C38       1.0  0.9154058089990516  0.2151732866998659  0.49835608980173157  1.0000
  O   O1        1.0  0.9784063285683163  0.4607868421898935  0.288669453294631  1.0000
  O   O2        1.0  0.980098465938815  0.44955563352840117  0.7079356379745514  1.0000
  O   O3        1.0  0.9792562972337878  0.6439482266533483  0.490562950288049  1.0000
  O   O4        1.0  0.9792484394476147  0.2663942551546766  0.5060420276656257  1.0000
  O   O5        1.0  0.851603755135236  0.6383075428430558  0.4789988230420588  1.0000
  O   O6        1.0  0.852445923826172  0.4439165096849167  0.6963714332564868  1.0000
  O   O7        1.0  0.8507537795006231  0.45514766241561255  0.2771035150131558  1.0000
  O   O8        1.0  0.8515958908113519  0.26075506675620597  0.49447619749251787  1.0000
