data_image0
_chemical_formula_structural       NC12NC2H8C6NO2H5C6OCH7Zn2C4O8
_chemical_formula_sum              "N3 C31 H20 O11 Zn2"
_cell_length_a       17.80743265337812
_cell_length_b       9.273423624067512
_cell_length_c       9.273891588657152
_cell_angle_alpha    86.01562366306231
_cell_angle_beta     91.22048166911064
_cell_angle_gamma    90.04087344610896

_space_group_name_H-M_alt    "P 1"
_space_group_IT_number       1

loop_
  _space_group_symop_operation_xyz
  'x, y, z'

loop_
  _atom_site_type_symbol
  _atom_site_label
  _atom_site_symmetry_multiplicity
  _atom_site_fract_x
  _atom_site_fract_y
  _atom_site_fract_z
  _atom_site_occupancy
  N   N1        1.0  0.720431417051334  0.5482184767677702  0.44665240978198595  1.0000
  C   C1        1.0  0.6700093328684175  0.580353552279316  0.37039176788850453  1.0000
  C   C2        1.0  0.607279204907148  0.6203272906589512  0.2755331278740327  1.0000
  C   C3        1.0  0.6197361406041655  0.6790454801033348  0.13497632118644165  1.0000
  C   C4        1.0  0.5588966106120908  0.7173734612924243  0.042777821876112565  1.0000
  C   C5        1.0  0.4854495374059605  0.6972691990046269  0.0904036078184105  1.0000
  C   C6        1.0  0.4720136223565819  0.6384237954287941  0.23148001291352172  1.0000
  C   C7        1.0  0.533710540537942  0.6000992611729179  0.32366018649382755  1.0000
  C   C8        1.0  0.3939824946127133  0.6171110434052427  0.28228082983315406  1.0000
  C   C9        1.0  0.374960794199256  0.6485922084095568  0.42323597876851227  1.0000
  C   C10       1.0  0.30148390039122785  0.6285345312613069  0.47090673959305335  1.0000
  C   C11       1.0  0.24608153759622686  0.5767217565168863  0.37855246248941765  1.0000
  C   C12       1.0  0.17046023804397334  0.5560642475685909  0.42777831041660697  1.0000
  N   N2        1.0  0.10966606769892753  0.5394569989992215  0.4673525057667743  1.0000
  C   C13       1.0  0.264408998295967  0.5450584798525893  0.2381999914411901  1.0000
  C   C14       1.0  0.3378339359485308  0.5651299888369998  0.19024526275326825  1.0000
  H   H1        1.0  0.6764010734317774  0.6951613474818905  0.0967487301979515  1.0000
  H   H2        1.0  0.5686604909207782  0.763140042480234  0.9342358748177397  1.0000
  H   H3        1.0  0.4391982496865061  0.7295208209181976  0.017591745755618723  1.0000
  H   H4        1.0  0.5246369903179414  0.5527927877720602  0.4320652806998706  1.0000
  H   H5        1.0  0.4166566571023106  0.690550168081776  0.495968279977751  1.0000
  H   H6        1.0  0.2878639915983742  0.6537899807130618  0.5796463722190763  1.0000
  H   H7        1.0  0.2220026779776261  0.5045122431896414  0.16592480369099438  1.0000
  H   H8        1.0  0.3509151295013741  0.538172110345114  0.0818436153734774  1.0000
  C   C15       1.0  0.9127249074100628  0.12025983003707652  0.45736136741833544  1.0000
  C   C16       1.0  0.9022060272283063  0.20318905381226557  0.32560982846106246  1.0000
  C   C17       1.0  0.8986396497063971  0.13803702020907926  0.1934252281492479  1.0000
  C   C18       1.0  0.9058385601429519  0.987423487772452  0.19386452129725473  1.0000
  C   C19       1.0  0.9150367148543844  0.9034120319169265  0.3236807128307386  1.0000
  C   C20       1.0  0.9173796689888881  0.9674045728590287  0.45665634270032274  1.0000
  N   N3        1.0  0.8884890252988402  0.2248543829622931  0.05956945450233864  1.0000
  O   O1        1.0  0.8812820313815225  0.3726251299949983  0.059266733182952835  1.0000
  O   O2        1.0  0.8858377467072784  0.1675349302833413  0.9416525776797183  1.0000
  H   H9        1.0  0.8920031206101293  0.3840524568098167  0.6928202331360163  1.0000
  H   H10       1.0  0.8985477595573429  0.31974452804951636  0.32580014390187495  1.0000
  H   H11       1.0  0.9035955074154659  0.9341229383101923  0.0936517696813011  1.0000
  H   H12       1.0  0.9185349206230662  0.7870702634782037  0.3202367252562453  1.0000
  H   H13       1.0  0.8829102222991445  0.8403765300544702  0.8040782385209149  1.0000
  C   C21       1.0  0.916261697358196  0.5399843249710847  0.03380214419481975  1.0000
  C   C22       1.0  0.9781033977604705  0.5995244365012491  0.1055961698130381  1.0000
  C   C23       1.0  0.035744057681734054  0.6699313158324274  0.02877122095452433  1.0000
  C   C24       1.0  0.03174971099328716  0.6811549114599167  0.8771056654912593  1.0000
  C   C25       1.0  0.9714811185374412  0.6207058964014182  0.8040540841999033  1.0000
  C   C26       1.0  0.9138428627150355  0.5476799771967829  0.880215556799492  1.0000
  O   O3        1.0  0.09552488298938377  0.7277416455245338  0.10709055093426836  1.0000
  C   C27       1.0  0.15779002901766637  0.8022613443481819  0.04324017247972133  1.0000
  H   H14       1.0  0.7371289136660063  0.4554128564053759  0.13539245950873816  1.0000
  H   H15       1.0  0.07531744280075481  0.7352611716605708  0.814438590678146  1.0000
  H   H16       1.0  0.9709159483506339  0.6281535805604133  0.6869344923949657  1.0000
  H   H17       1.0  0.7943505386003668  0.48499780969561074  0.5984916313440056  1.0000
  H   H18       1.0  0.1381655980717151  0.9003250906811203  0.9776911828305876  1.0000
  H   H19       1.0  0.18871282440192916  0.7299692360932151  0.9745525187528483  1.0000
  H   H20       1.0  0.19642563662215062  0.8358735670153787  0.13009964714698463  1.0000
  Zn  Zn1       1.0  0.8327560877328377  0.5456863280519599  0.45263432182234653  1.0000
  Zn  Zn2       1.0  0.9973412962809162  0.5419774886772113  0.46138235867234756  1.0000
  C   C28       1.0  0.9142668376380353  0.5404791256930139  0.7202300100360183  1.0000
  C   C29       1.0  0.9158323532369919  0.5471864717998103  0.19378690592241354  1.0000
  C   C30       1.0  0.9165123663750212  0.8072240163083597  0.451046503599794  1.0000
  C   C31       1.0  0.9135867585968187  0.2804398501555776  0.4629704876501777  1.0000
  O   O4        1.0  0.9781474557519922  0.5481898000422321  0.2507990930678364  1.0000
  O   O5        1.0  0.9768680953750499  0.5366597822541228  0.6698569664909898  1.0000
  O   O6        1.0  0.9786805419661032  0.7520596874739294  0.45248933452399737  1.0000
  O   O7        1.0  0.9763349533646498  0.33278990542397247  0.4681666139840431  1.0000
  O   O8        1.0  0.85376237448428  0.7548739125723447  0.4458500635177942  1.0000
  O   O9        1.0  0.8519499376315904  0.5394757396485703  0.6632176172003886  1.0000
  O   O10       1.0  0.8532293027338587  0.5510056914168917  0.2441580111286923  1.0000
  O   O11       1.0  0.8514167999779819  0.3356057874642313  0.4615256401028278  1.0000
