data_image0
_chemical_formula_structural       NC8NC6H8C7NC2NH6C7F3H3Zn2C4O8
_chemical_formula_sum              "N4 C34 H17 F3 Zn2 O8"
_cell_length_a       17.457602349358154
_cell_length_b       9.273995741505848
_cell_length_c       9.272721663655245
_cell_angle_alpha    86.0144275597797
_cell_angle_beta     93.38388695232669
_cell_angle_gamma    92.2639659462817

_space_group_name_H-M_alt    "P 1"
_space_group_IT_number       1

loop_
  _space_group_symop_operation_xyz
  'x, y, z'

loop_
  _atom_site_type_symbol
  _atom_site_label
  _atom_site_symmetry_multiplicity
  _atom_site_fract_x
  _atom_site_fract_y
  _atom_site_fract_z
  _atom_site_occupancy
  N   N1        1.0  0.7238297694670592  0.604950312046465  0.47911737588070974  1.0000
  C   C1        1.0  0.662417822023652  0.5538710660740418  0.46717237542492357  1.0000
  C   C2        1.0  0.5860188619952493  0.4903348923310697  0.4523234133380094  1.0000
  C   C3        1.0  0.528134012021704  0.5354234774407638  0.5356554114781469  1.0000
  C   C4        1.0  0.45318920977328353  0.47424408966164533  0.5214960301157712  1.0000
  C   C5        1.0  0.39175069893213993  0.5218525201382513  0.6097473511277332  1.0000
  C   C6        1.0  0.31701659148958256  0.5420097507817536  0.5478651375725074  1.0000
  C   C7        1.0  0.2591312074684267  0.5868947311119983  0.6313164418492836  1.0000
  C   C8        1.0  0.1829507259540372  0.607710747753517  0.566975248383265  1.0000
  N   N2        1.0  0.12171449763783061  0.6244397398587838  0.5152450754038463  1.0000
  C   C9        1.0  0.2754919608904978  0.611895801074362  0.7772156438211557  1.0000
  C   C10       1.0  0.3494457889577392  0.5921731149827948  0.8395297059435307  1.0000
  C   C11       1.0  0.4073231078311204  0.5474910561805038  0.7565874500412484  1.0000
  C   C12       1.0  0.4374061355214221  0.36721451268382976  0.42241067058559767  1.0000
  C   C13       1.0  0.4952830928752031  0.3224380284235763  0.3395239341395111  1.0000
  C   C14       1.0  0.5694467551883323  0.3837457533458011  0.35429458870515895  1.0000
  H   H1        1.0  0.5412889096530844  0.6193714890238315  0.6099207628956343  1.0000
  H   H2        1.0  0.3040344241734584  0.5247292470967779  0.4344837348414867  1.0000
  H   H3        1.0  0.23113268827032907  0.6465749627164392  0.8426748390539951  1.0000
  H   H4        1.0  0.3619216436641125  0.6111814015916313  0.9525016618320146  1.0000
  H   H5        1.0  0.4639653836039344  0.5311337012714012  0.8077539021172  1.0000
  H   H6        1.0  0.38059083062041094  0.31679000894430853  0.410427511907541  1.0000
  H   H7        1.0  0.48264231903926713  0.23972246370661063  0.2639311681354799  1.0000
  H   H8        1.0  0.6138035634465281  0.3481038436556476  0.28940027229500354  1.0000
  C   C15       1.0  0.9204746070139269  0.1910876522154845  0.4959192377310584  1.0000
  C   C16       1.0  0.9333264648492509  0.27423123469034727  0.3666819859044826  1.0000
  C   C17       1.0  0.9530742386816439  0.20939189103776454  0.24347941410843177  1.0000
  C   C18       1.0  0.9608018317364748  0.05933451350654772  0.24601918750671972  1.0000
  C   C19       1.0  0.9463320516968161  0.9748274692833786  0.3739150078077691  1.0000
  C   C20       1.0  0.9250769976671737  0.03829164559124166  0.4984562934202519  1.0000
  C   C21       1.0  0.9826595343671564  0.9926657362890973  0.1140061460148525  1.0000
  N   N3        1.0  0.9848251079130079  0.06633073853783134  0.9831750439816914  1.0000
  C   C22       1.0  0.007417053285302837  0.969047631464357  0.8945368595734008  1.0000
  C   C23       1.0  0.01874064893778882  0.8391117702174583  0.9721147607408139  1.0000
  N   N4        1.0  0.003203578316784973  0.8541216686718691  0.1101245461588245  1.0000
  H   H9        1.0  0.8592130147275903  0.4538378974504118  0.6978861746467897  1.0000
  H   H10       1.0  0.963438079307495  0.27755700813924  0.14646526963061324  1.0000
  H   H11       1.0  0.9272366476114748  0.7416946312957088  0.7384460479797721  1.0000
  H   H12       1.0  0.015357464869194312  0.9918215315527351  0.7802924575094106  1.0000
  H   H13       1.0  0.037390788704201997  0.7406770834401561  0.9310618100039747  1.0000
  H   H14       1.0  0.0077821741069683485  0.7742719817627068  0.19482835266233223  1.0000
  C   C24       1.0  0.9207317326858061  0.6122504927440303  0.07355310194939335  1.0000
  C   C25       1.0  0.9527664366901227  0.495860950878725  0.15888903270738686  1.0000
  C   C26       1.0  0.991576884196619  0.38838145566608184  0.09623431677962402  1.0000
  C   C27       1.0  0.9959898107143585  0.3952385111966601  0.9455018050251645  1.0000
  C   C28       1.0  0.9634837791713954  0.508602407309316  0.8591472634464052  1.0000
  C   C29       1.0  0.9248198889929043  0.6171288805700978  0.9208224371525601  1.0000
  C   C30       1.0  0.023741404033521988  0.26246069603306665  0.1891831879974173  1.0000
  F   F1        1.0  0.049824710360298896  0.3056523238104359  0.323889358056608  1.0000
  F   F2        1.0  0.084615896069683  0.20579152379711174  0.12544139028018053  1.0000
  F   F3        1.0  0.9668117577697364  0.15586677333306342  0.20678998998605924  1.0000
  H   H15       1.0  0.8739318190460086  0.9533722354192976  0.14638233208106421  1.0000
  H   H16       1.0  0.023906667885831075  0.3118896908455315  0.8939168141450399  1.0000
  H   H17       1.0  0.7883654226113566  0.8536841194196965  0.7877502020989433  1.0000
  Zn  Zn1       1.0  0.838650726441654  0.6105707194469858  0.48955136747438105  1.0000
  Zn  Zn2       1.0  0.006893519151558446  0.6188075733393736  0.504822859284753  1.0000
  C   C31       1.0  0.9240141927669678  0.610459967014788  0.7606530418764088  1.0000
  C   C32       1.0  0.9215319006031302  0.6189202366385067  0.23372149869063508  1.0000
  C   C33       1.0  0.9241753572122191  0.878118806325325  0.492227682496021  1.0000
  C   C34       1.0  0.9213706697044302  0.35125966184569  0.5021469245819512  1.0000
  O   O1        1.0  0.9856476731067833  0.6242782134911298  0.2932709085012337  1.0000
  O   O2        1.0  0.9875907991413923  0.6113524810555712  0.7126939224546716  1.0000
  O   O3        1.0  0.9877200880152891  0.8274903453058413  0.49593847196619417  1.0000
  O   O4        1.0  0.9855183263571653  0.40814035612654836  0.5100262456431315  1.0000
  O   O5        1.0  0.8600258618230108  0.8212379338505038  0.48434797589700884  1.0000
  O   O6        1.0  0.8598965819895261  0.6051018022732051  0.7011033546555638  1.0000
  O   O7        1.0  0.8579534473640712  0.6180274744564562  0.28167860611104323  1.0000
  O   O8        1.0  0.857824101077138  0.4018896073968783  0.49843405138052727  1.0000
