data_image0
_chemical_formula_structural       NC10NC5H10C7OC4NC3H8C7OC2NC3H11Zn2C4O8
_chemical_formula_sum              "N4 C45 H29 O10 Zn2"
_cell_length_a       19.4436361288709
_cell_length_b       10.299371701877257
_cell_length_c       10.298749378158432
_cell_angle_alpha    85.57636868446646
_cell_angle_beta     89.71352480550038
_cell_angle_gamma    89.42830201241743

_space_group_name_H-M_alt    "P 1"
_space_group_IT_number       1

loop_
  _space_group_symop_operation_xyz
  'x, y, z'

loop_
  _atom_site_type_symbol
  _atom_site_label
  _atom_site_symmetry_multiplicity
  _atom_site_fract_x
  _atom_site_fract_y
  _atom_site_fract_z
  _atom_site_occupancy
  N   N1        1.0  0.647656584020975  0.40943059628976064  0.5624998477080643  1.0000
  C   C1        1.0  0.5888236048857971  0.4193287014769077  0.5768887703032416  1.0000
  C   C2        1.0  0.5154980154290048  0.4316729514643884  0.5948872625959486  1.0000
  C   C3        1.0  0.4732978367985244  0.39970093786870753  0.5001934136255101  1.0000
  C   C4        1.0  0.39739486324874507  0.41013780332220917  0.5055258672972684  1.0000
  C   C5        1.0  0.35766841878648314  0.38536189509215973  0.6125981649848784  1.0000
  C   C6        1.0  0.28154640247945406  0.3892819018881426  0.5996391481636729  1.0000
  C   C7        1.0  0.24100184808324754  0.4469184869141385  0.6934395070481902  1.0000
  C   C8        1.0  0.16933729626521485  0.45055899558207657  0.6828960705034075  1.0000
  C   C9        1.0  0.1372225477519602  0.39616683369416617  0.5788386774705578  1.0000
  C   C10       1.0  0.06342873496795251  0.39986862618418995  0.568139968643938  1.0000
  N   N2        1.0  0.004103514640177902  0.4028446730608972  0.5595389160783641  1.0000
  C   C11       1.0  0.1770422013150486  0.33782305949673014  0.48542132068282257  1.0000
  C   C12       1.0  0.24872314200716952  0.3341283930352294  0.4957129378838683  1.0000
  C   C13       1.0  0.3858159426383262  0.34486684212580543  0.7436888123312306  1.0000
  C   C14       1.0  0.44449001757213613  0.3879761992024997  0.7909515543304477  1.0000
  C   C15       1.0  0.48869582161600034  0.48585363004547044  0.7166145303947589  1.0000
  H   H1        1.0  0.4953816110727992  0.370607625971574  0.4098679278405193  1.0000
  H   H2        1.0  0.37268543392378717  0.43265685153782696  0.4123679976916136  1.0000
  H   H3        1.0  0.2648874897555143  0.49018802826646857  0.774311018029818  1.0000
  H   H4        1.0  0.13900674522798853  0.4958543382621796  0.7558401981323293  1.0000
  H   H5        1.0  0.15268474144368122  0.29474908726304894  0.40488439480917865  1.0000
  H   H6        1.0  0.2783879724369039  0.2865894849153187  0.42346435982696984  1.0000
  H   H7        1.0  0.3548536809727916  0.28063309928880886  0.807917087323897  1.0000
  H   H8        1.0  0.45965057540991494  0.35388336454563607  0.8888815697008507  1.0000
  H   H9        1.0  0.45859144531062657  0.5765742500130018  0.6913945495842537  1.0000
  H   H10       1.0  0.5319920304626748  0.5114229847772723  0.7797145229300884  1.0000
  C   C16       1.0  0.8258473524798119  0.024767818738483886  0.5608926746933287  1.0000
  C   C17       1.0  0.8291778478612984  0.03405829763238021  0.4241914958235619  1.0000
  C   C18       1.0  0.8300766815246331  0.921589680199486  0.35518729539343974  1.0000
  C   C19       1.0  0.8291863820982794  0.798789798362562  0.424508840825387  1.0000
  C   C20       1.0  0.825919325284344  0.7874973253197206  0.5611573056198037  1.0000
  C   C21       1.0  0.8240877540398746  0.9010909984001241  0.6285442472275587  1.0000
  C   C22       1.0  0.8343157903722757  0.931242676222448  0.210892996921491  1.0000
  O   O1        1.0  0.8674142496640147  0.8448887812189927  0.15566872512257524  1.0000
  C   C23       1.0  0.8009951817310648  0.0387782714141609  0.12925242876396048  1.0000
  C   C24       1.0  0.8304420803007324  0.08288824792062721  0.009029985024213929  1.0000
  C   C25       1.0  0.798935686887985  0.18338000855322067  0.9304959473668769  1.0000
  C   C26       1.0  0.8297167148338114  0.22864956400291492  0.8080761344347498  1.0000
  N   N3        1.0  0.854463291804241  0.2650366809935003  0.7096683316658376  1.0000
  C   C27       1.0  0.7374688188189349  0.23969086510605897  0.9711809069332088  1.0000
  C   C28       1.0  0.7074411717977092  0.1953811335763298  0.08966851520372265  1.0000
  C   C29       1.0  0.7387500861454591  0.09519049704360216  0.16819279492242734  1.0000
  H   H11       1.0  0.8318471307494463  0.12893701565375415  0.37127936272659023  1.0000
  H   H12       1.0  0.8303890920563005  0.7119343673791284  0.3714832458206232  1.0000
  H   H13       1.0  0.8215205617827243  0.8931248193927642  0.7339311092848264  1.0000
  H   H14       1.0  0.8252431683184674  0.45568815872031104  0.6136915056181794  1.0000
  H   H15       1.0  0.8781370102639834  0.03991843121376261  0.977054917235077  1.0000
  H   H16       1.0  0.7126695543307351  0.3173702037199867  0.911143617212613  1.0000
  H   H17       1.0  0.6596287064395191  0.2383694010780164  0.12049148041402957  1.0000
  H   H18       1.0  0.7139092480097627  0.060932246329858046  0.2585611594945274  1.0000
  C   C30       1.0  0.8258516191668761  0.4061611723242027  0.17962420908627452  1.0000
  C   C31       1.0  0.8634316429175859  0.5223318935272054  0.16933300103933943  1.0000
  C   C32       1.0  0.8817443501527884  0.5818894958524599  0.04689638533432916  1.0000
  C   C33       1.0  0.8634343809955637  0.5223807044942961  0.9340889658657917  1.0000
  C   C34       1.0  0.8259150369120316  0.40610396809220445  0.9424257725609717  1.0000
  C   C35       1.0  0.8072037679806584  0.34891556538395857  0.06561523615808107  1.0000
  C   C36       1.0  0.9219862627773531  0.7039142496905112  0.03592466743618283  1.0000
  O   O2        1.0  0.9649639608059052  0.7214630183096605  0.9442271314559622  1.0000
  C   C37       1.0  0.9134737721455192  0.80602261869572  0.1289205175880226  1.0000
  C   C38       1.0  0.8414468510846141  0.9274297890894261  0.2729651191831479  1.0000
  N   N4        1.0  0.7759664746430093  0.9504913327524422  0.33118879448531646  1.0000
  C   C39       1.0  0.8982078745796723  0.002632354303963255  0.3019178155074493  1.0000
  C   C40       1.0  0.9620087189272086  0.9808301206283042  0.2442170700032635  1.0000
  C   C41       1.0  0.9696533845375918  0.8834982541849159  0.15779630072729844  1.0000
  H   H19       1.0  0.7557553037660311  0.18562517469545267  0.4065020193431452  1.0000
  H   H20       1.0  0.8791431299456823  0.5658875245809762  0.2567638890566042  1.0000
  H   H21       1.0  0.8779438636107646  0.5676347033251704  0.8395779580536331  1.0000
  H   H22       1.0  0.7782396252367282  0.2593664487928471  0.07279608232297807  1.0000
  H   H23       1.0  0.7552713103935049  0.18615707484364785  0.750891717338165  1.0000
  H   H24       1.0  0.8047480227740988  0.7735981899908151  0.16247296167735945  1.0000
  H   H25       1.0  0.7333121777573971  0.8950072395607421  0.3102955367004007  1.0000
  H   H26       1.0  0.7696715541244616  0.02312621766585332  0.39575402559330297  1.0000
  H   H27       1.0  0.8929300477171855  0.07834441377149837  0.3687210166075232  1.0000
  H   H28       1.0  0.005657288169201856  0.039490844397394476  0.26651152911258746  1.0000
  H   H29       1.0  0.01961811506702693  0.8679303437119544  0.11437570572446097  1.0000
  Zn  Zn1       1.0  0.7505194700843609  0.4075265691694051  0.5616528983619351  1.0000
  Zn  Zn2       1.0  0.9012406199793767  0.4047380916740668  0.5603965438164459  1.0000
  C   C42       1.0  0.825901041870273  0.40094113814392074  0.7982381635088792  1.0000
  C   C43       1.0  0.8258606942289557  0.41132513086309913  0.32381139299578576  1.0000
  C   C44       1.0  0.8259017485204372  0.6433256821007443  0.5559317136463802  1.0000
  C   C45       1.0  0.8258599360067269  0.16893902754658224  0.5661179119900457  1.0000
  O   O3        1.0  0.8830616302633585  0.4119943240909958  0.37172514711376126  1.0000
  O   O4        1.0  0.8830939710326338  0.3981545753214068  0.7493704911437447  1.0000
  O   O5        1.0  0.8830937707189618  0.5938831741014539  0.5537063254172766  1.0000
  O   O6        1.0  0.8830617791388895  0.21626573556000994  0.5673892158893563  1.0000
  O   O7        1.0  0.7686982594911165  0.5959989262364471  0.5546602267109257  1.0000
  O   O8        1.0  0.768698459943121  0.4002718877690782  0.7503243237275339  1.0000
  O   O9        1.0  0.7686661190854572  0.4141115913988113  0.3726774181503052  1.0000
  O   O10       1.0  0.7686662679653974  0.21838299357174892  0.5683415842986745  1.0000
