data_image0
_chemical_formula_structural       NC8NH4C6NH7C10H6Zn2C4O8
_chemical_formula_sum              "N3 C28 H17 Zn2 O8"
_cell_length_a       13.859017124695912
_cell_length_b       9.274771166103582
_cell_length_c       9.275153671780862
_cell_angle_alpha    85.60840141486051
_cell_angle_beta     89.40939075953553
_cell_angle_gamma    90.59707951677755

_space_group_name_H-M_alt    "P 1"
_space_group_IT_number       1

loop_
  _space_group_symop_operation_xyz
  'x, y, z'

loop_
  _atom_site_type_symbol
  _atom_site_label
  _atom_site_symmetry_multiplicity
  _atom_site_fract_x
  _atom_site_fract_y
  _atom_site_fract_z
  _atom_site_occupancy
  N   N1        1.0  0.930562334185282  0.5745814040424091  0.4066195070362053  1.0000
  C   C1        1.0  0.8584346718762245  0.5515731102161836  0.3504769771966678  1.0000
  C   C2        1.0  0.7687121295715371  0.5229541570831495  0.2806428848081923  1.0000
  C   C3        1.0  0.6808218621256095  0.5508547370169559  0.34872233742059344  1.0000
  C   C4        1.0  0.5934818222651987  0.5229553817094383  0.28064230304724  1.0000
  C   C5        1.0  0.5942145502792382  0.4671478913829937  0.14446191672672248  1.0000
  C   C6        1.0  0.6819211975052143  0.4393545468644575  0.07664452044477543  1.0000
  C   C7        1.0  0.7690798846252174  0.4671455443942057  0.14446309982055117  1.0000
  C   C8        1.0  0.5031948430606965  0.5515740357105902  0.35047647729661424  1.0000
  N   N2        1.0  0.4306134635147925  0.5745817261745614  0.40661929035506716  1.0000
  H   H1        1.0  0.6803959219902554  0.5940519095763304  0.45412921750212454  1.0000
  H   H2        1.0  0.5271356572946434  0.445189095135117  0.09087593123136894  1.0000
  H   H3        1.0  0.6823463463165675  0.3962456069556426  0.971451105723852  1.0000
  H   H4        1.0  0.8365918278286419  0.4451846494867275  0.09087811777429566  1.0000
  C   C9        1.0  0.17762479069355352  0.15098703821215764  0.4074053482749507  1.0000
  C   C10       1.0  0.1563085225919896  0.23396563800122894  0.27846082976124253  1.0000
  C   C11       1.0  0.14400669836312874  0.16858401244381382  0.14869821055634258  1.0000
  C   C12       1.0  0.1530781926884528  0.01884390775310551  0.14694022703353404  1.0000
  C   C13       1.0  0.172622399861881  0.9345413435120612  0.2741134254497757  1.0000
  C   C14       1.0  0.18356008880541963  0.9981650887596378  0.4058459893930315  1.0000
  N   N3        1.0  0.12329300212742766  0.2546584822448583  0.018336516737217593  1.0000
  H   H5        1.0  0.2840441975755179  0.23145537482232517  0.7229722336193338  1.0000
  H   H6        1.0  0.1514472360550432  0.3505569245491449  0.27790695186362946  1.0000
  H   H7        1.0  0.14406985840899855  0.9671010603388488  0.04710098315854072  1.0000
  H   H8        1.0  0.17690308425495882  0.8183667582673078  0.26998385103488376  1.0000
  H   H9        1.0  0.2513122634037921  0.7016485134049917  0.6205432052892144  1.0000
  H   H10       1.0  0.1166453482946448  0.3667322588682443  0.01828968627903982  1.0000
  H   H11       1.0  0.11435919148626295  0.2069389138536146  0.9208685737500137  1.0000
  C   C15       1.0  0.1835052184996396  0.5734919514356496  0.9831980241841269  1.0000
  C   C16       1.0  0.2097678262229665  0.7009730902528706  0.046707066346832304  1.0000
  C   C17       1.0  0.22702472719819983  0.8298119649587087  0.9614775150402948  1.0000
  C   C18       1.0  0.2181306776332268  0.8327744201122177  0.8115315458053356  1.0000
  C   C19       1.0  0.19374386300512425  0.7069022012941595  0.746401138560302  1.0000
  C   C20       1.0  0.1776796731280672  0.5756601161497374  0.8300533124749201  1.0000
  C   C21       1.0  0.2527936391141352  0.9596660026197098  0.028347550939697097  1.0000
  C   C22       1.0  0.27436975787028417  0.06838194685122989  0.08435911899585258  1.0000
  C   C23       1.0  0.2996343252515976  0.19568352949092116  0.14995425593229506  1.0000
  C   C24       1.0  0.3212062761613046  0.30437868779998745  0.20596321114153415  1.0000
  H   H12       1.0  0.18626038922560761  0.334576840222679  0.2821742467001551  1.0000
  H   H13       1.0  0.214635470618592  0.7010461265724557  0.1633223223301734  1.0000
  H   H14       1.0  0.23099217573323538  0.9322249949488847  0.744641810097527  1.0000
  H   H15       1.0  0.18967253298900233  0.7114186251036563  0.6295611500505225  1.0000
  H   H16       1.0  0.18728923366535158  0.22090915397954938  0.7542074717504064  1.0000
  H   H17       1.0  0.34014821197171186  0.3998219487511294  0.25514397509779885  1.0000
  Zn  Zn1       1.0  0.07486620712740756  0.5745776670939571  0.4066277827817839  1.0000
  Zn  Zn2       1.0  0.2863094191443416  0.5745737264996906  0.40662286265093006  1.0000
  C   C25       1.0  0.17873839072830155  0.5695037892822028  0.6699900828689136  1.0000
  C   C26       1.0  0.18243955627436548  0.579649424680315  0.14326070068383334  1.0000
  C   C27       1.0  0.18247273946950468  0.8380156619049088  0.4003948086436955  1.0000
  C   C28       1.0  0.17870512271181438  0.31113581919457256  0.4128560549752651  1.0000
  O   O1        1.0  0.26232346322264855  0.581708140456171  0.19697734152727575  1.0000
  O   O2        1.0  0.2593349844694479  0.5674409934251866  0.6162692946879305  1.0000
  O   O3        1.0  0.26234942629632707  0.7842677302229251  0.3985692005841557  1.0000
  O   O4        1.0  0.2593089500605368  0.36488141370182303  0.4146773275002451  1.0000
  O   O5        1.0  0.10186660405608405  0.7842699798947206  0.39857331792656026  1.0000
  O   O6        1.0  0.0988521748954252  0.5674449759629137  0.6162733319582139  1.0000
  O   O7        1.0  0.10184066528616165  0.5817120682886416  0.19697964529259915  1.0000
  O   O8        1.0  0.09882615130415484  0.3648853314937982  0.41467973939046643  1.0000
