data_image0
_chemical_formula_structural       NC9NC5H8C7OCH10C8NH7Zn2C4O8
_chemical_formula_sum              "N3 C34 H25 O9 Zn2"
_cell_length_a       17.807436237873137
_cell_length_b       10.30083208314754
_cell_length_c       9.274266800404106
_cell_angle_alpha    85.96676049995207
_cell_angle_beta     88.95510806583813
_cell_angle_gamma    88.38439813745397

_space_group_name_H-M_alt    "P 1"
_space_group_IT_number       1

loop_
  _space_group_symop_operation_xyz
  'x, y, z'

loop_
  _atom_site_type_symbol
  _atom_site_label
  _atom_site_symmetry_multiplicity
  _atom_site_fract_x
  _atom_site_fract_y
  _atom_site_fract_z
  _atom_site_occupancy
  N   N1        1.0  0.7138759979418878  0.37659266386414203  0.39781676621000556  1.0000
  C   C1        1.0  0.6533403168957904  0.3413215903722155  0.38559300619099324  1.0000
  C   C2        1.0  0.5780405831744652  0.2974482590715401  0.3703879759484603  1.0000
  C   C3        1.0  0.5604288801598252  0.2252356778234872  0.2538566906461295  1.0000
  C   C4        1.0  0.4873171037495232  0.18252593359614333  0.2390019066816076  1.0000
  C   C5        1.0  0.4307684791758455  0.21165102506173025  0.34064252812852724  1.0000
  C   C6        1.0  0.3530691295467406  0.1663771017330249  0.32494680281941757  1.0000
  C   C7        1.0  0.2907708345216223  0.24832476570982728  0.35370930017705327  1.0000
  C   C8        1.0  0.2175167021379681  0.20541210556949285  0.3388697798608318  1.0000
  C   C9        1.0  0.1541665237887754  0.29005367527490855  0.3680352076876494  1.0000
  N   N2        1.0  0.1032459722947935  0.35809964984378384  0.3914834074370592  1.0000
  C   C10       1.0  0.2059774486517988  0.08029362967055165  0.2952397204559849  1.0000
  C   C11       1.0  0.26741841262051036  0.9983320503759141  0.26646791536758885  1.0000
  C   C12       1.0  0.34055405209348505  0.04084865324204867  0.2810827575525088  1.0000
  C   C13       1.0  0.44907056658835137  0.2843596080891957  0.4574169818540334  1.0000
  C   C14       1.0  0.5222359299721226  0.32687778299213277  0.4720990579143014  1.0000
  H   H1        1.0  0.6031500152442592  0.20220351571039427  0.1742605050462891  1.0000
  H   H2        1.0  0.4747832337923689  0.12821362732821084  0.1469764406374403  1.0000
  H   H3        1.0  0.2991321976444541  0.34600226716423244  0.38572729623132385  1.0000
  H   H4        1.0  0.1495622667092026  0.04617942442919398  0.2834917782533719  1.0000
  H   H5        1.0  0.2583641011912289  0.9014653899776115  0.23311709257209132  1.0000
  H   H6        1.0  0.3872847417658287  0.9749634967335109  0.25996301266136873  1.0000
  H   H7        1.0  0.4070604739762507  0.3068626752108612  0.5384503289995552  1.0000
  H   H8        1.0  0.5353028047150882  0.38240259726309467  0.5629678040754096  1.0000
  C   C15       1.0  0.9085849300677905  0.9860093102104575  0.3948009832716557  1.0000
  C   C16       1.0  0.8882685279096472  0.9954054463016621  0.24876026992248446  1.0000
  C   C17       1.0  0.8771599550076224  0.8830341657327658  0.1756725105372876  1.0000
  C   C18       1.0  0.8882158469493281  0.7601464537935867  0.2483802595998321  1.0000
  C   C19       1.0  0.9085441894594708  0.7486727839427612  0.39451161818229047  1.0000
  C   C20       1.0  0.9184329358306417  0.8621505786611311  0.4669500333161054  1.0000
  C   C21       1.0  0.8575803096498249  0.8941753092475412  0.018316121327818458  1.0000
  O   O1        1.0  0.9246475932113435  0.8963516758845943  0.934819266176969  1.0000
  C   C22       1.0  0.9070247416015513  0.90682000140084  0.786800508952612  1.0000
  H   H9        1.0  0.9172214475884336  0.3097957729783098  0.45029106182908296  1.0000
  H   H10       1.0  0.8810161902905679  0.09004772813676373  0.19125127622693827  1.0000
  H   H11       1.0  0.8809266610734411  0.6736413144400754  0.19061039995002949  1.0000
  H   H12       1.0  0.9341082249229787  0.8541406839308996  0.5795786169940926  1.0000
  H   H13       1.0  0.9477179013297676  0.5197668360312554  0.6697243334405043  1.0000
  H   H14       1.0  0.8230876059448491  0.984922731675047  0.9947788402100204  1.0000
  H   H15       1.0  0.823119119061798  0.8098295468192941  0.9944477938213446  1.0000
  H   H16       1.0  0.9602114786987259  0.9084063649983136  0.7226197421369611  1.0000
  H   H17       1.0  0.8751455992652585  0.9990401412535668  0.7572583749441391  1.0000
  H   H18       1.0  0.8751601137218703  0.8215550358122087  0.7569009275120511  1.0000
  C   C23       1.0  0.9102927000230173  0.3644197186087789  0.971318531976712  1.0000
  C   C24       1.0  0.8666374343825846  0.27353282549173175  0.05321344447555408  1.0000
  C   C25       1.0  0.8184352777399351  0.19296118853513566  0.9861319701800384  1.0000
  C   C26       1.0  0.8122816323934865  0.20207962716424085  0.8355308430866943  1.0000
  C   C27       1.0  0.8569684841335675  0.2898129728612313  0.7523140808689501  1.0000
  C   C28       1.0  0.9068363733669094  0.3702623773044138  0.8179940062146978  1.0000
  C   C29       1.0  0.7611127894297649  0.11381135958173783  0.7633158277606498  1.0000
  C   C30       1.0  0.8018038490689964  0.9931599030398008  0.7314840291802667  1.0000
  N   N3        1.0  0.8339240046548155  0.897937788873248  0.7063584891216519  1.0000
  H   H19       1.0  0.9930416592841919  0.6462882301563799  0.049299164126918926  1.0000
  H   H20       1.0  0.8685559797012775  0.26671632927455224  0.17019881915917434  1.0000
  H   H21       1.0  0.7852828303714522  0.12413697477330743  0.0519419611725631  1.0000
  H   H22       1.0  0.8540424303613017  0.29291488280638517  0.6354695519586797  1.0000
  H   H23       1.0  0.9652785993127347  0.5573836768582954  0.5206312044473003  1.0000
  H   H24       1.0  0.7396800757200693  0.16237771651683275  0.6608773217636306  1.0000
  H   H25       1.0  0.7118384469764152  0.08947036189140367  0.8342890155180811  1.0000
  Zn  Zn1       1.0  0.826239726643277  0.37125257202885714  0.3959974343301267  1.0000
  Zn  Zn2       1.0  0.9908821775815257  0.3634292381825288  0.39331459488397336  1.0000
  C   C31       1.0  0.9074883101051349  0.3639848287604752  0.6579562316813641  1.0000
  C   C32       1.0  0.909635391344928  0.37069853547804965  0.13135590910835626  1.0000
  C   C33       1.0  0.908571454375692  0.6044736971126521  0.38882166721490896  1.0000
  C   C34       1.0  0.9085521906630513  0.1302081101549064  0.4004905519404764  1.0000
  O   O2        1.0  0.9718957449405051  0.36983118409077975  0.18404779339482835  1.0000
  O   O3        1.0  0.9701877689511198  0.3589134682744821  0.6032277197166658  1.0000
  O   O4        1.0  0.9710615732555269  0.5531113212321687  0.3858996679509523  1.0000
  O   O5        1.0  0.9710218848955339  0.1756333423462033  0.40137573798194415  1.0000
  O   O6        1.0  0.8460999631449122  0.5590484705362637  0.38793629214009306  1.0000
  O   O7        1.0  0.8452261590674673  0.3648521772206245  0.6052642664480796  1.0000
  O   O8        1.0  0.8469341421846429  0.3757698358218908  0.18608260691307765  1.0000
  O   O9        1.0  0.8460602816958784  0.18157198553528509  0.40341065958672945  1.0000
