data_image0
_chemical_formula_structural       NC9NC5H8C6NCH9C6ClH5Zn2C4O8
_chemical_formula_sum              "N3 C31 H22 Cl1 Zn2 O8"
_cell_length_a       17.807436237873137
_cell_length_b       9.273386996610926
_cell_length_c       10.302974078461046
_cell_angle_alpha    85.46621229036245
_cell_angle_beta     89.39214410348853
_cell_angle_gamma    87.7895077601149

_space_group_name_H-M_alt    "P 1"
_space_group_IT_number       1

loop_
  _space_group_symop_operation_xyz
  'x, y, z'

loop_
  _atom_site_type_symbol
  _atom_site_label
  _atom_site_symmetry_multiplicity
  _atom_site_fract_x
  _atom_site_fract_y
  _atom_site_fract_z
  _atom_site_occupancy
  N   N1        1.0  0.6990027940088299  0.5420761310502823  0.5554281865927961  1.0000
  C   C1        1.0  0.6386285083108733  0.5029735882748885  0.5444631294582218  1.0000
  C   C2        1.0  0.5635295325515737  0.45433433125969175  0.5308237888706273  1.0000
  C   C3        1.0  0.5458709317414555  0.37497907791911755  0.4259676758947226  1.0000
  C   C4        1.0  0.4729543702779354  0.32763021408229126  0.41264232822151414  1.0000
  C   C5        1.0  0.4166499788405114  0.35921709503707006  0.5041412450240927  1.0000
  C   C6        1.0  0.3391577742366206  0.3090251413944223  0.49006171836466983  1.0000
  C   C7        1.0  0.2764859921387456  0.39987193868495496  0.5158637724339943  1.0000
  C   C8        1.0  0.2034283561467689  0.3522974599918238  0.5025524199805966  1.0000
  C   C9        1.0  0.13969017544747486  0.4461348695744444  0.5287140334344234  1.0000
  N   N2        1.0  0.0884577018615789  0.5215736548244394  0.549747253571822  1.0000
  C   C10       1.0  0.19246052068410066  0.21358951834883122  0.46341407690742065  1.0000
  C   C11       1.0  0.2542750169049465  0.12272732852565896  0.437603657647273  1.0000
  C   C12       1.0  0.3272156118073746  0.16986339693515262  0.4507131577021632  1.0000
  C   C13       1.0  0.434996988311087  0.43912168388777256  0.6092157394906277  1.0000
  C   C14       1.0  0.5079675749319211  0.4862589836839222  0.6223857865528228  1.0000
  H   H1        1.0  0.5884021489540942  0.3499941373151465  0.3543138753605388  1.0000
  H   H2        1.0  0.4603671649100233  0.2679793744257344  0.3298334832527221  1.0000
  H   H3        1.0  0.2843928355147824  0.5081741334263498  0.5445783188103264  1.0000
  H   H4        1.0  0.1362017492312919  0.17576893923970882  0.45287610713606763  1.0000
  H   H5        1.0  0.24566486006452695  0.015336431925355491  0.40768780915915626  1.0000
  H   H6        1.0  0.3742548496183469  0.09680804431992751  0.43177422478256505  1.0000
  H   H7        1.0  0.3931859170911907  0.46350762695866127  0.6821644571072998  1.0000
  H   H8        1.0  0.5210757341307158  0.5472661382004047  0.7041514329958406  1.0000
  C   C15       1.0  0.8960447301056811  0.10804907883359573  0.5531919446709723  1.0000
  C   C16       1.0  0.9092397747671583  0.19083005016082824  0.43561395966202804  1.0000
  C   C17       1.0  0.9153591617345964  0.12600502341554232  0.3181319293798101  1.0000
  C   C18       1.0  0.9083760734827683  0.9760719764297098  0.3152250734421922  1.0000
  C   C19       1.0  0.8965053448687453  0.8922583735410711  0.4323759699891816  1.0000
  C   C20       1.0  0.8914229876998121  0.9555892421755136  0.5519947021313423  1.0000
  N   N3        1.0  0.9138601871780325  0.9062439685484586  0.19532861992817208  1.0000
  C   C21       1.0  0.9263790258629042  0.9834814365214894  0.06845561078205598  1.0000
  H   H9        1.0  0.9113977449797942  0.3693855351635574  0.766111988837936  1.0000
  H   H10       1.0  0.9130727188844325  0.30727416237295446  0.433965270434337  1.0000
  H   H11       1.0  0.9248361223178886  0.19410824569515728  0.2298078745815333  1.0000
  H   H12       1.0  0.8929582893911359  0.7760440351480237  0.430379644075916  1.0000
  H   H13       1.0  0.9190921637793814  0.8227706468314837  0.8677983858006204  1.0000
  H   H14       1.0  0.908547293904852  0.7941565373528309  0.19809826173653433  1.0000
  H   H15       1.0  0.8797923810302529  0.06450750500377778  0.04657825155971351  1.0000
  H   H16       1.0  0.9807715989717669  0.03816974536757646  0.06787169418189576  1.0000
  H   H17       1.0  0.9282734442314886  0.9059451201560668  0.9915697770452527  1.0000
  C   C22       1.0  0.8937338732278007  0.5318191886386507  0.17135081708362532  1.0000
  C   C23       1.0  0.8814793319553411  0.3826231296684277  0.18098689476580399  1.0000
  C   C24       1.0  0.8753990013887858  0.3085961068084402  0.06881126194152554  1.0000
  C   C25       1.0  0.8814793651208517  0.3826232093987614  0.9458789951893074  1.0000
  C   C26       1.0  0.8937338717171659  0.5318191142484476  0.9338358362902345  1.0000
  C   C27       1.0  0.8998014202847859  0.6056899061138067  0.047226372332618505  1.0000
  Cl  Cl1       1.0  0.8600901705248335  0.12221478520177255  0.08235255488683912  1.0000
  H   H18       1.0  0.8983503807251135  0.5880187461200306  0.495024005707121  1.0000
  H   H19       1.0  0.8766054249443066  0.3232843724461454  0.2753446174485006  1.0000
  H   H20       1.0  0.8766054775695901  0.3232843490898527  0.8601436506376872  1.0000
  H   H21       1.0  0.9092524566183435  0.7207543866368198  0.038866415462369026  1.0000
  H   H22       1.0  0.8983502377982097  0.5880187408775287  0.6019963773296415  1.0000
  Zn  Zn1       1.0  0.8113910875308183  0.5361557086767186  0.5537963057799444  1.0000
  Zn  Zn2       1.0  0.9760694542888311  0.527482313882544  0.5513898240747128  1.0000
  C   C28       1.0  0.8937635347499792  0.5260702736107905  0.7897179598864295  1.0000
  C   C29       1.0  0.8936987954231455  0.5375694750628928  0.3154682685415464  1.0000
  C   C30       1.0  0.8922927400159405  0.7953863277128985  0.5470475856261003  1.0000
  C   C31       1.0  0.8951695434185741  0.26825169011832184  0.5581387152879544  1.0000
  O   O1        1.0  0.9561816392790008  0.5362015198442172  0.36292216340797423  1.0000
  O   O2        1.0  0.9562677668020324  0.5208542342056142  0.7404372289037089  1.0000
  O   O3        1.0  0.9550792389966776  0.7383303982304674  0.5444791949468433  1.0000
  O   O4        1.0  0.957370110834492  0.3187253691022698  0.5588801008290374  1.0000
  O   O5        1.0  0.8300903747885043  0.7449126564183675  0.5463060298400029  1.0000
  O   O6        1.0  0.8312788931358159  0.5274382261973525  0.7422639921251728  1.0000
  O   O7        1.0  0.8311927659370191  0.5427854615451531  0.364747365816656  1.0000
  O   O8        1.0  0.8323812375457208  0.32530930048167517  0.5607054005879051  1.0000
