data_image0
_chemical_formula_structural       NC9NC4H8C7OCH9C8NH11Zn2C4O8
_chemical_formula_sum              "N3 C33 H28 O9 Zn2"
_cell_length_a       16.32274767691083
_cell_length_b       10.30083208314754
_cell_length_c       9.275652972338538
_cell_angle_alpha    85.92062759394871
_cell_angle_beta     89.90519038886141
_cell_angle_gamma    89.51862078510035

_space_group_name_H-M_alt    "P 1"
_space_group_IT_number       1

loop_
  _space_group_symop_operation_xyz
  'x, y, z'

loop_
  _atom_site_type_symbol
  _atom_site_label
  _atom_site_symmetry_multiplicity
  _atom_site_fract_x
  _atom_site_fract_y
  _atom_site_fract_z
  _atom_site_occupancy
  N   N1        1.0  0.7644922071845414  0.4023784031026445  0.3978869974570823  1.0000
  C   C1        1.0  0.7119087001832493  0.35458510389455755  0.3376508462051669  1.0000
  C   C2        1.0  0.6465470941885287  0.29522545411202117  0.26283706468000206  1.0000
  C   C3        1.0  0.6576785788098406  0.21403201765609237  0.1605003614015108  1.0000
  C   C4        1.0  0.5781074015338837  0.1744092134647124  0.11056345328606265  1.0000
  C   C5        1.0  0.5194752551012816  0.23239632334495353  0.18365328583236118  1.0000
  C   C6        1.0  0.42945826615767996  0.21707087466882324  0.16434021585514264  1.0000
  C   C7        1.0  0.37421300544725733  0.28465854747155706  0.2495229308328053  1.0000
  C   C8        1.0  0.2894365421145639  0.2715606807775044  0.23301675725199592  1.0000
  C   C9        1.0  0.23379013226463902  0.3412261178860081  0.32081729370122813  1.0000
  N   N2        1.0  0.1890692988819704  0.3972256630941591  0.39139405415974654  1.0000
  C   C10       1.0  0.2588517370510655  0.19076583538006495  0.13119079814410672  1.0000
  C   C11       1.0  0.31277554548193237  0.12326768963808177  0.04612129265491394  1.0000
  C   C12       1.0  0.39739138179921846  0.1360127593107321  0.06218269241130226  1.0000
  C   C13       1.0  0.5576679674727566  0.31694789200675944  0.2902197151326753  1.0000
  H   H1        1.0  0.7164222974304584  0.18245970406271583  0.12070393755462484  1.0000
  H   H2        1.0  0.569467881213384  0.10804991782546258  0.026923588229544  1.0000
  H   H3        1.0  0.3966525898737932  0.347732545599841  0.32901537638522305  1.0000
  H   H4        1.0  0.1934040205606928  0.17997590812751074  0.11759338409441568  1.0000
  H   H5        1.0  0.2889428806439659  0.06076534534887323  0.9673495883240466  1.0000
  H   H6        1.0  0.4368925826963522  0.08201859015739267  0.9941330015778158  1.0000
  H   H7        1.0  0.5413798757841053  0.2828757441332814  0.4028791513657034  1.0000
  H   H8        1.0  0.5407757535217901  0.42085655990463966  0.2655827137872211  1.0000
  C   C14       1.0  0.9768082012542133  0.01846584534873628  0.3947913571626582  1.0000
  C   C15       1.0  0.9533725973185371  0.027288095934445266  0.24879236756508163  1.0000
  C   C16       1.0  0.9406177643068702  0.9145973810898804  0.17572587857486388  1.0000
  C   C17       1.0  0.953311816598015  0.7920276164305476  0.24841246573503709  1.0000
  C   C18       1.0  0.9767612362737208  0.7811281653507183  0.3945020749456538  1.0000
  C   C19       1.0  0.9881800831626809  0.8948841604345085  0.4669198724402288  1.0000
  C   C20       1.0  0.9178865176660106  0.9251993162111355  0.018413490033697633  1.0000
  O   O1        1.0  0.9902962218806611  0.9297422583714452  0.9349079410573636  1.0000
  C   C21       1.0  0.9697807780731783  0.9397305965954769  0.7869302446354376  1.0000
  H   H9        1.0  0.9449596991707255  0.1217300061501958  0.19129949472928898  1.0000
  H   H10       1.0  0.9448564479709575  0.7053210612423919  0.19065880170506902  1.0000
  H   H11       1.0  0.006261577336587051  0.8873170938613907  0.5795162752965612  1.0000
  H   H12       1.0  0.021893445618757598  0.5533340984584002  0.6696357949111666  1.0000
  H   H13       1.0  0.8800638606269139  0.014785098869584122  0.9948958476149269  1.0000
  H   H14       1.0  0.8800953277877952  0.8396932695782162  0.9945648637190132  1.0000
  H   H15       1.0  0.027222072331567922  0.9431920398422322  0.7227421189721235  1.0000
  H   H16       1.0  0.9347557740150075  0.030883616610362968  0.7574080381896457  1.0000
  H   H17       1.0  0.9347684717942867  0.8533993066098354  0.7570506663056151  1.0000
  C   C22       1.0  0.9749610273356552  0.3972882174274576  0.9714048176859121  1.0000
  C   C23       1.0  0.9218167037219945  0.4828763675637946  0.03833236282749232  1.0000
  C   C24       1.0  0.8751406464790626  0.5759635879137908  0.9563109358703525  1.0000
  C   C25       1.0  0.8805023519472489  0.5822250489092211  0.8054411587486956  1.0000
  C   C26       1.0  0.9318428383728957  0.49671659507683263  0.7371330997912017  1.0000
  C   C27       1.0  0.978608408434885  0.4023058047226585  0.817888578374207  1.0000
  C   C28       1.0  0.8176346159662905  0.6655018304377833  0.0297002992668527  1.0000
  C   C29       1.0  0.7334022782153229  0.6030761220048952  0.05179992521430755  1.0000
  N   N3        1.0  0.6778315617493192  0.6915072877906268  0.12082427012303244  1.0000
  H   H18       1.0  0.035022593595604334  0.20362473391038208  0.2671669242521233  1.0000
  H   H19       1.0  0.9179199643466861  0.47931077314426584  0.15522085908490135  1.0000
  H   H20       1.0  0.8441706588889455  0.652611519472502  0.7403869692449864  1.0000
  H   H21       1.0  0.9333216145046582  0.5022757520071939  0.6200884908298194  1.0000
  H   H22       1.0  0.09096697817754328  0.28200556714954206  0.5457354056371756  1.0000
  H   H23       1.0  0.8432899432679054  0.6880079090741673  0.13601358510532968  1.0000
  H   H24       1.0  0.8110700416759661  0.7593343669286587  0.9634555392658415  1.0000
  H   H25       1.0  0.7077900050655385  0.5816128887539984  0.9450684298283166  1.0000
  H   H26       1.0  0.7391912232532817  0.5100001005517947  0.11993943814494923  1.0000
  H   H27       1.0  0.6199692786596745  0.6486019544205706  0.12612855134543136  1.0000
  H   H28       1.0  0.6970153715464663  0.6977740804036774  0.22764835468353375  1.0000
  Zn  Zn1       1.0  0.8870160267647591  0.4008879977011268  0.3960215990601954  1.0000
  Zn  Zn2       1.0  0.06654553700657839  0.3987054824286418  0.3932712639235881  1.0000
  C   C30       1.0  0.9779174449109419  0.39618415419255415  0.6578870198751143  1.0000
  C   C31       1.0  0.9756460798256441  0.40341094142155143  0.1314059539153738  1.0000
  C   C32       1.0  0.9767411277787823  0.6369347616241712  0.3888134108719825  1.0000
  C   C33       1.0  0.9768223361241548  0.16265877502161485  0.40047964128962676  1.0000
  O   O2        1.0  0.04400650355924739  0.4046318650994225  0.18406006116062223  1.0000
  O   O3        1.0  0.0458157636934382  0.3933057698251952  0.6031450573782013  1.0000
  O   O4        1.0  0.04486496075816926  0.5877149500817778  0.38586622792583625  1.0000
  O   O5        1.0  0.04495724476704477  0.21022269423644113  0.40133878348190166  1.0000
  O   O6        1.0  0.908604257739649  0.5893707866394817  0.3879540804328544  1.0000
  O   O7        1.0  0.9095550602439232  0.3949631660973727  0.605232832445071  1.0000
  O   O8        1.0  0.9077457927005056  0.4062892058473744  0.18614610340681417  1.0000
  O   O9        1.0  0.9086965343711306  0.21188002633694622  0.4034249337901525  1.0000
