data_image0
_chemical_formula_structural       NC12NC2H8C12OCH12C12BrH8Zn2C4O8
_chemical_formula_sum              "N2 C43 H28 O9 Br1 Zn2"
_cell_length_a       19.240039667572717
_cell_length_b       10.29979075500242
_cell_length_c       10.299148005577397
_cell_angle_alpha    85.54790519994738
_cell_angle_beta     89.97327996829169
_cell_angle_gamma    89.9807799165636

_space_group_name_H-M_alt    "P 1"
_space_group_IT_number       1

loop_
  _space_group_symop_operation_xyz
  'x, y, z'

loop_
  _atom_site_type_symbol
  _atom_site_label
  _atom_site_symmetry_multiplicity
  _atom_site_fract_x
  _atom_site_fract_y
  _atom_site_fract_z
  _atom_site_occupancy
  N   N1        1.0  0.654579505806656  0.4214773437430086  0.567309378857177  1.0000
  C   C1        1.0  0.5944311369947481  0.4214774277358844  0.5673092969120306  1.0000
  C   C2        1.0  0.5196130998667985  0.4214775450411512  0.5673091595947461  1.0000
  C   C3        1.0  0.4831251482196135  0.3569973958272754  0.6707294539667265  1.0000
  C   C4        1.0  0.4104543984271227  0.35688650234535796  0.6708160058748098  1.0000
  C   C5        1.0  0.37328086496967927  0.4214776376392113  0.5673089318971968  1.0000
  C   C6        1.0  0.41048300981731267  0.4860689598902835  0.4638020524609996  1.0000
  C   C7        1.0  0.4831536966002535  0.48595783089190103  0.46388872688705596  1.0000
  C   C8        1.0  0.2960757745679943  0.421477558992285  0.5673088364806111  1.0000
  C   C9        1.0  0.2588978515902706  0.3082110829741047  0.6091869024633334  1.0000
  C   C10       1.0  0.18622716680704848  0.30831799614969  0.6090955675147317  1.0000
  C   C11       1.0  0.1497434876527879  0.4214774298109887  0.5673088973999179  1.0000
  C   C12       1.0  0.0749254504561894  0.42147731603215965  0.5673091460783959  1.0000
  N   N2        1.0  0.014777133559395401  0.42147727517824785  0.5673093545100376  1.0000
  C   C13       1.0  0.1862073193547266  0.5346369393073576  0.5255221743881983  1.0000
  C   C14       1.0  0.2588780191817623  0.5347440326270096  0.5254306768285724  1.0000
  H   H1        1.0  0.510828821909431  0.30707536255926504  0.751477062280143  1.0000
  H   H2        1.0  0.3833494776310959  0.307762387517641  0.7526791398135544  1.0000
  H   H3        1.0  0.383401399833046  0.5351931017777777  0.3819388676700368  1.0000
  H   H4        1.0  0.5108797943226782  0.5358797638573658  0.3831413943874651  1.0000
  H   H5        1.0  0.2859993555583129  0.21905146848516946  0.640360188533545  1.0000
  H   H6        1.0  0.15852013430729409  0.22005740678429686  0.6413018303684479  1.0000
  H   H7        1.0  0.15848452840746496  0.6228975041338547  0.4933159260867763  1.0000
  H   H8        1.0  0.2859629940278886  0.6239037262988227  0.4942573459809356  1.0000
  C   C15       1.0  0.8347441065975749  0.04010955826966179  0.5673483024790117  1.0000
  C   C16       1.0  0.8145926490504145  0.028923366706445908  0.6987932016007017  1.0000
  C   C17       1.0  0.8043266062118917  0.906118958160466  0.7653641786409577  1.0000
  C   C18       1.0  0.8144677994875473  0.7936410835677046  0.6987274131167391  1.0000
  C   C19       1.0  0.8346192264134982  0.8028350605051187  0.5672815814318617  1.0000
  C   C20       1.0  0.8446461610187969  0.926510331352766  0.5023287051826406  1.0000
  C   C21       1.0  0.7830117396509638  0.8953387044078631  0.9044267577279811  1.0000
  C   C22       1.0  0.7322883632810507  0.8044655896908587  0.9494946628733296  1.0000
  C   C23       1.0  0.712289998624622  0.7945931952699983  0.0802405035790763  1.0000
  C   C24       1.0  0.7425649694691174  0.8749251140816192  0.16759320540972622  1.0000
  C   C25       1.0  0.7934729106497103  0.9664070271811505  0.12439710318468655  1.0000
  C   C26       1.0  0.8132559419361919  0.9759183146618745  0.9931245354684973  1.0000
  O   O1        1.0  0.8255785447501077  0.049094100406397397  0.2082698825444752  1.0000
  C   C27       1.0  0.8106442860925603  0.05005038389115969  0.3436130155089842  1.0000
  H   H9        1.0  0.8424530864909296  0.3718234514123929  0.5172834466113296  1.0000
  H   H10       1.0  0.8059128098699551  0.11594174768775113  0.749224583017833  1.0000
  H   H11       1.0  0.8075263638913844  0.6987328513618686  0.7500979561638018  1.0000
  H   H12       1.0  0.8601926940183388  0.9343716090562493  0.4009245190333237  1.0000
  H   H13       1.0  0.8422632608961169  0.4788869238960067  0.5171790885239229  1.0000
  H   H14       1.0  0.7074455396297276  0.7422470471591032  0.8832817012293948  1.0000
  H   H15       1.0  0.673028536812467  0.7246178289486774  0.11392105723589929  1.0000
  H   H16       1.0  0.7260690121519365  0.8651596937075313  0.26826502363431703  1.0000
  H   H17       1.0  0.8530778122534407  0.045467231461563846  0.9609569178670623  1.0000
  H   H18       1.0  0.8226376983199095  0.9535133245121614  0.3942382218489757  1.0000
  H   H19       1.0  0.8434312923695937  0.12468271219862803  0.3858295156956972  1.0000
  H   H20       1.0  0.755157223709396  0.07495876751208753  0.35804926029344464  1.0000
  C   C28       1.0  0.8347763813854072  0.4215243643957859  0.18592676642690328  1.0000
  C   C29       1.0  0.769391363542173  0.4823040552403542  0.18048442821121768  1.0000
  C   C30       1.0  0.7361419076924273  0.5130673925632703  0.06058678520181625  1.0000
  C   C31       1.0  0.7691594105338092  0.4822312504253006  0.9452073996996757  1.0000
  C   C32       1.0  0.8345869183455744  0.42142029283570404  0.9487031289757173  1.0000
  C   C33       1.0  0.866992391960039  0.3914393280373374  0.06948653044995966  1.0000
  C   C34       1.0  0.6669729464736124  0.577366902142662  0.055874364253631  1.0000
  C   C35       1.0  0.6523571296227841  0.6786844423825971  0.1359435197477894  1.0000
  C   C36       1.0  0.5872239225822017  0.7390932769165655  0.131313375755256  1.0000
  C   C37       1.0  0.5359661539154812  0.6991496641042851  0.04695222867753102  1.0000
  C   C38       1.0  0.549883774772588  0.5986189877624666  0.9670305391468247  1.0000
  C   C39       1.0  0.6149579285273326  0.5379881882949475  0.9712681640934007  1.0000
  Br  Br1       1.0  0.44703507751822086  0.7818201505266658  0.040894775681760136  1.0000
  H   H21       1.0  0.7437410402014342  0.5042502480024214  0.2698220241226474  1.0000
  H   H22       1.0  0.7441947318212643  0.5073261570050376  0.852388734515824  1.0000
  H   H23       1.0  0.9174264935781542  0.3445623739597861  0.0729682995725822  1.0000
  H   H24       1.0  0.958271854486088  0.3073780361497873  0.7479521734137662  1.0000
  H   H25       1.0  0.6915682169203993  0.7123014722866494  0.20084815429084332  1.0000
  H   H26       1.0  0.5767155015132426  0.8171594373335473  0.19311105487234848  1.0000
  H   H27       1.0  0.5102611874337966  0.5671539393224112  0.9018187154903562  1.0000
  H   H28       1.0  0.6243034694990416  0.45923273830947275  0.9096716394591158  1.0000
  Zn  Zn1       1.0  0.758524768358366  0.4214738557432154  0.5673168609387083  1.0000
  Zn  Zn2       1.0  0.9108318888809244  0.421470168283715  0.5673124727903046  1.0000
  C   C40       1.0  0.8346220363243304  0.41626629459281445  0.8045225441177304  1.0000
  C   C41       1.0  0.8347362838039858  0.426679367991066  0.3301069168930202  1.0000
  C   C42       1.0  0.8346405221305105  0.6586644351867976  0.5621187977538249  1.0000
  C   C43       1.0  0.8347177462643425  0.18427966709104848  0.5725107326369483  1.0000
  O   O2        1.0  0.8925225861002465  0.42840236919329594  0.37849342770721156  1.0000
  O   O3        1.0  0.8924333146111074  0.4145395150256304  0.7561323290211392  1.0000
  O   O4        1.0  0.8924474626295802  0.6102790789327555  0.5603895886899708  1.0000
  O   O5        1.0  0.8925083861323353  0.23266281459090998  0.5742360706594738  1.0000
  O   O6        1.0  0.7768482191320113  0.6102812094386936  0.560393263064205  1.0000
  O   O7        1.0  0.7768340708720577  0.414543205840275  0.7561359340100164  1.0000
  O   O8        1.0  0.7769233428026584  0.42840601496517433  0.3784954712204043  1.0000
  O   O9        1.0  0.776909142809242  0.2326664510607217  0.574238211546239  1.0000
