data_image0
_chemical_formula_structural       NC12NC2H8C9H8C6NH7Zn2C4O8
_chemical_formula_sum              "N3 C33 H23 Zn2 O8"
_cell_length_a       19.240039667572717
_cell_length_b       9.275152443626249
_cell_length_c       9.274774538082514
_cell_angle_alpha    84.86265069898316
_cell_angle_beta     90.34966360595384
_cell_angle_gamma    90.57354334366605

_space_group_name_H-M_alt    "P 1"
_space_group_IT_number       1

loop_
  _space_group_symop_operation_xyz
  'x, y, z'

loop_
  _atom_site_type_symbol
  _atom_site_label
  _atom_site_symmetry_multiplicity
  _atom_site_fract_x
  _atom_site_fract_y
  _atom_site_fract_z
  _atom_site_occupancy
  N   N1        1.0  0.6574633766160743  0.5927005864178128  0.40254937848691674  1.0000
  C   C1        1.0  0.5973150079839823  0.5927006805021922  0.40254928710796095  1.0000
  C   C2        1.0  0.5224969710277334  0.5927008121191619  0.4025491340701526  1.0000
  C   C3        1.0  0.48601167240062965  0.5200877565484301  0.51771980533037  1.0000
  C   C4        1.0  0.4133406100549322  0.5199637455931131  0.5178164045697335  1.0000
  C   C5        1.0  0.3761647358518233  0.5927009171506774  0.40254888068726324  1.0000
  C   C6        1.0  0.4133645416631214  0.6654382945381937  0.28728157229355467  1.0000
  C   C7        1.0  0.48603491501615737  0.6653140207911976  0.28737830856787316  1.0000
  C   C8        1.0  0.2989596446839182  0.5927008306939119  0.402548774947709  1.0000
  C   C9        1.0  0.2613008995183801  0.46647925335270113  0.44951178732230423  1.0000
  C   C10       1.0  0.18863048866977597  0.46659888830934765  0.44940988771497015  1.0000
  C   C11       1.0  0.1526273572660238  0.592700686611926  0.4025488431305462  1.0000
  C   C12       1.0  0.0778093203039706  0.5927005578518185  0.4025491199085449  1.0000
  N   N2        1.0  0.0176610039051568  0.5927005104840821  0.4025493516875729  1.0000
  C   C13       1.0  0.1895717369540637  0.718802569660105  0.35568773947847543  1.0000
  C   C14       1.0  0.2622427111470169  0.7189224062794678  0.3555856584892574  1.0000
  H   H1        1.0  0.5137197520055314  0.4638625886497636  0.6076401884573124  1.0000
  H   H2        1.0  0.3862483810672824  0.4646143270951677  0.6089734561147697  1.0000
  H   H3        1.0  0.38627023984348857  0.7207877435799315  0.1961244641360087  1.0000
  H   H4        1.0  0.5137566072267931  0.7215390746415572  0.19745823232334647  1.0000
  H   H5        1.0  0.2880176936444701  0.36713887553749225  0.4844883907262083  1.0000
  H   H6        1.0  0.1605473045647337  0.36824736100249655  0.4855310455259032  1.0000
  H   H7        1.0  0.16222509752695108  0.8171540695691885  0.31956659793123454  1.0000
  H   H8        1.0  0.2897123961173968  0.8182628724818879  0.32060900502816425  1.0000
  C   C15       1.0  0.8355194936738435  0.16905544196118272  0.40402284892325335  1.0000
  C   C16       1.0  0.8100910896475347  0.25286232069346615  0.28140703557792407  1.0000
  C   C17       1.0  0.7911166488919648  0.18850843860015454  0.15649554705345192  1.0000
  C   C18       1.0  0.797271192946987  0.039208015860124436  0.15172666125332213  1.0000
  C   C19       1.0  0.8213374684710483  0.953722012024613  0.2733062123308474  1.0000
  C   C20       1.0  0.8396115484576093  0.016334507627315135  0.4010883258601732  1.0000
  C   C21       1.0  0.7780655348110949  0.9731846439476155  0.022372958925194423  1.0000
  C   C22       1.0  0.7619852551839416  0.9178722528690425  0.9140595144475018  1.0000
  C   C23       1.0  0.7424750073593323  0.850748451537295  0.7826401456102787  1.0000
  H   H9        1.0  0.9362256508666014  0.24819745958045414  0.6922676111101873  1.0000
  H   H10       1.0  0.8064285647872141  0.36938375955510483  0.2809530411160357  1.0000
  H   H11       1.0  0.7722628219617267  0.25556199166318927  0.06301982156357244  1.0000
  H   H12       1.0  0.8242521013432946  0.8374470339823029  0.2692799257378058  1.0000
  H   H13       1.0  0.9051948815848179  0.7193187424918085  0.598238066223231  1.0000
  H   H14       1.0  0.7552200275736105  0.7339092347645061  0.79612371511609  1.0000
  H   H15       1.0  0.6858483144937668  0.8635030406716775  0.7628814233281864  1.0000
  H   H16       1.0  0.771555656087674  0.9039103086156753  0.6892171135581089  1.0000
  C   C24       1.0  0.8363360026624236  0.5963847622232872  0.9787265118521974  1.0000
  C   C25       1.0  0.8859957634943468  0.6815185690396306  0.0451681553790475  1.0000
  C   C26       1.0  0.9387162516254083  0.7547686280855841  0.9641495304537568  1.0000
  C   C27       1.0  0.9422027071149075  0.7432170957398274  0.8152121223836453  1.0000
  C   C28       1.0  0.8927812819644988  0.6612613134699452  0.7470569093910915  1.0000
  C   C29       1.0  0.8387950276064154  0.5890051139481639  0.8263846965633195  1.0000
  N   N3        1.0  0.9891729441940832  0.8397017300296026  0.033597114079213945  1.0000
  H   H17       1.0  0.7310837682195874  0.3143710414819101  0.10562358302564534  1.0000
  H   H18       1.0  0.8847777178237045  0.6883606883058597  0.16116458782011134  1.0000
  H   H19       1.0  0.9829029428575653  0.7989555050010176  0.7514882967426  1.0000
  H   H20       1.0  0.8958611819941947  0.6572483983457773  0.6308977576151418  1.0000
  H   H21       1.0  0.7657905863675037  0.403450816139079  0.5609455848372624  1.0000
  H   H22       1.0  0.9871983407364222  0.8487485693169232  0.14493570433337943  1.0000
  H   H23       1.0  0.028864517924621635  0.894305661766109  0.9741659024833665  1.0000
  Zn  Zn1       1.0  0.7614086458669356  0.5926966404990042  0.4025577062517527  1.0000
  Zn  Zn2       1.0  0.9137157307615106  0.5926925860504612  0.4025528436210637  1.0000
  C   C30       1.0  0.8383009159788911  0.5846528567290661  0.6661790559029455  1.0000
  C   C31       1.0  0.836825133040357  0.6007381888094502  0.1389316292705014  1.0000
  C   C32       1.0  0.8388177965744649  0.8562307708934583  0.39589168674358177  1.0000
  C   C33       1.0  0.8363081923251898  0.32915854070869366  0.4092190813819645  1.0000
  O   O1        1.0  0.89478900422909  0.6021914060890494  0.19269610662303327  1.0000
  O   O2        1.0  0.8959345916175963  0.583195477505515  0.6124104762269318  1.0000
  O   O3        1.0  0.8963512044207251  0.8024980647203463  0.3941515081323417  1.0000
  O   O4        1.0  0.894372339189781  0.3828888301377946  0.4109549664675438  1.0000
  O   O5        1.0  0.7807519854637175  0.8025003964146911  0.3941555833993349  1.0000
  O   O6        1.0  0.7803353808052345  0.5831995431392432  0.6124144685358877  1.0000
  O   O7        1.0  0.7791897881862714  0.6021954365568212  0.1926983638649453  1.0000
  O   O8        1.0  0.7787731234081947  0.38289284934501033  0.41095733195359796  1.0000
