data_image0
_chemical_formula_structural       Zn4O13C24HClHCl2HClHCl3H
_chemical_formula_sum              "Zn4 O13 C24 H5 Cl7"
_cell_length_a       12.759401
_cell_length_b       12.7594
_cell_length_c       12.759393
_cell_angle_alpha    90.029805
_cell_angle_beta     90.020938
_cell_angle_gamma    90.01616900000002

_space_group_name_H-M_alt    "P 1"
_space_group_IT_number       1

loop_
  _space_group_symop_operation_xyz
  'x, y, z'

loop_
  _atom_site_type_symbol
  _atom_site_label
  _atom_site_symmetry_multiplicity
  _atom_site_fract_x
  _atom_site_fract_y
  _atom_site_fract_z
  _atom_site_occupancy
  Zn  Zn1       1.0  0.6062669999999999  0.5818269999999999  0.594025  1.0000
  Zn  Zn2       1.0  0.606158  0.4061119999999999  0.418347  1.0000
  Zn  Zn3       1.0  0.43056500000000014  0.5817709999999999  0.41836000000000007  1.0000
  Zn  Zn4       1.0  0.4305580000000003  0.406185  0.593985  1.0000
  O   O1        1.0  0.5183869999999999  0.4939739999999999  0.506179  1.0000
  O   O2        1.0  0.7532730000000002  0.558511  0.570733  1.0000
  O   O3        1.0  0.5828230000000001  0.4293590000000001  0.271328  1.0000
  O   O4        1.0  0.4539210000000001  0.7287999999999998  0.441685  1.0000
  O   O5        1.0  0.7531930000000002  0.4294130000000001  0.441663  1.0000
  O   O6        1.0  0.583008  0.7288409999999999  0.570745  1.0000
  O   O7        1.0  0.4538160000000002  0.558416  0.271337  1.0000
  O   O8        1.0  0.2835430000000001  0.558487  0.441646  1.0000
  O   O9        1.0  0.45390800000000003  0.42953899999999995  0.741011  1.0000
  O   O10       1.0  0.28353800000000007  0.429484  0.570676  1.0000
  O   O11       1.0  0.5830010000000003  0.5585819999999999  0.7410409999999998  1.0000
  O   O12       1.0  0.5828150000000004  0.2591  0.441624  1.0000
  O   O13       1.0  0.4538030000000002  0.259154  0.570664  1.0000
  C   C1        1.0  0.24541999999999997  0.4939869999999999  0.506159  1.0000
  C   C2        1.0  0.12864300000000006  0.49396699999999993  0.506175  1.0000
  C   C3        1.0  0.0738049999999999  0.42669299999999993  0.573255  1.0000
  C   C4        1.0  0.9640810000000002  0.4266889999999999  0.573276  1.0000
  C   C5        1.0  0.964042  0.561236  0.439127  1.0000
  C   C6        1.0  0.07376399999999994  0.561244  0.439112  1.0000
  C   C7        1.0  0.5183250000000001  0.22100600000000004  0.506161  1.0000
  C   C8        1.0  0.518394  0.10423000000000004  0.506188  1.0000
  C   C9        1.0  0.5855810000000002  0.04947900000000015  0.573447  1.0000
  C   C10       1.0  0.58564  0.9397549999999997  0.573475  1.0000
  C   C11       1.0  0.45132300000000003  0.9395419999999999  0.438977  1.0000
  C   C12       1.0  0.4512600000000002  0.049264000000000085  0.438955  1.0000
  C   C13       1.0  0.7924199999999999  0.4939599999999999  0.506201  1.0000
  C   C14       1.0  0.9091970000000003  0.4939539999999999  0.50621  1.0000
  C   C15       1.0  0.5184660000000001  0.49407499999999993  0.780213  1.0000
  C   C16       1.0  0.5184990000000002  0.49411799999999984  0.89699  1.0000
  C   C17       1.0  0.5184780000000002  0.7680069999999998  0.506221  1.0000
  C   C18       1.0  0.5185170000000001  0.8847839999999998  0.506239  1.0000
  C   C19       1.0  0.5183690000000001  0.49394899999999986  0.233212  1.0000
  C   C20       1.0  0.5185390000000001  0.494202  0.116436  1.0000
  C   C21       1.0  0.5857230000000002  0.5613209999999998  0.951869  1.0000
  C   C22       1.0  0.5857399999999999  0.561367  0.06159300000000001  1.0000
  C   C23       1.0  0.4513080000000001  0.42699600000000004  0.061549000000000076  1.0000
  C   C24       1.0  0.4512860000000001  0.426956  0.951827  1.0000
  H   H1        1.0  0.11848499999999995  0.37191399999999986  0.627864  1.0000
  Cl  Cl1       1.0  0.6702630000000005  0.6458459999999999  0.130579  1.0000
  H   H2        1.0  0.3965880000000002  0.3723130000000001  0.10621100000000006  1.0000
  Cl  Cl2       1.0  0.36676300000000017  0.34247099999999997  0.882831  1.0000
  Cl  Cl3       1.0  0.3669290000000003  0.8704349999999998  0.354461  1.0000
  H   H3        1.0  0.919438  0.37190999999999996  0.627901  1.0000
  Cl  Cl4       1.0  0.895044  0.645805  0.354822  1.0000
  H   H4        1.0  0.6403470000000002  0.8951819999999999  0.6282460000000001  1.0000
  Cl  Cl5       1.0  0.14270800000000006  0.645831  0.35478199999999993  1.0000
  Cl  Cl6       1.0  0.6699740000000001  0.11857500000000007  0.657972  1.0000
  Cl  Cl7       1.0  0.36678100000000025  0.11809900000000004  0.354402  1.0000
  H   H5        1.0  0.6404490000000003  0.616011  0.9072229999999999  1.0000
