data_image0
_chemical_formula_structural       Zn4O13C24HF2H2FH3FHF
_chemical_formula_sum              "Zn4 O13 C24 H7 F5"
_cell_length_a       12.759399
_cell_length_b       12.759401
_cell_length_c       12.759393
_cell_angle_alpha    90.021396
_cell_angle_beta     89.967969
_cell_angle_gamma    89.984062

_space_group_name_H-M_alt    "P 1"
_space_group_IT_number       1

loop_
  _space_group_symop_operation_xyz
  'x, y, z'

loop_
  _atom_site_type_symbol
  _atom_site_label
  _atom_site_symmetry_multiplicity
  _atom_site_fract_x
  _atom_site_fract_y
  _atom_site_fract_z
  _atom_site_occupancy
  Zn  Zn1       1.0  0.581819  0.3937479999999999  0.4059390000000001  1.0000
  Zn  Zn2       1.0  0.4061  0.39385499999999984  0.58162  1.0000
  Zn  Zn3       1.0  0.581762  0.5694459999999998  0.581609  1.0000
  Zn  Zn4       1.0  0.40617899999999996  0.5694589999999997  0.405988  1.0000
  O   O1        1.0  0.493965  0.4816270000000001  0.493789  1.0000
  O   O2        1.0  0.558501  0.24674099999999993  0.42922800000000005  1.0000
  O   O3        1.0  0.429345  0.41718700000000003  0.7286399999999998  1.0000
  O   O4        1.0  0.728791  0.546089  0.558281  1.0000
  O   O5        1.0  0.42940100000000003  0.24681999999999987  0.5583  1.0000
  O   O6        1.0  0.7288330000000002  0.4170050000000002  0.42921699999999996  1.0000
  O   O7        1.0  0.558403  0.5461929999999997  0.728631  1.0000
  O   O8        1.0  0.55848  0.716469  0.558328  1.0000
  O   O9        1.0  0.42953500000000006  0.546111  0.25895999999999997  1.0000
  O   O10       1.0  0.42948  0.716478  0.4292999999999999  1.0000
  O   O11       1.0  0.558577  0.4170170000000001  0.25892499999999996  1.0000
  O   O12       1.0  0.25909000000000015  0.4171990000000002  0.5583480000000001  1.0000
  O   O13       1.0  0.25914800000000004  0.5462149999999997  0.42931099999999994  1.0000
  C   C1        1.0  0.493981  0.754594  0.49381699999999984  1.0000
  C   C2        1.0  0.49396300000000004  0.871371  0.493805  1.0000
  C   C3        1.0  0.4266910000000001  0.92621  0.42672699999999997  1.0000
  C   C4        1.0  0.426689  0.03593399999999992  0.42670900000000006  1.0000
  C   C5        1.0  0.561232  0.035969999999999835  0.5608549999999999  1.0000
  C   C6        1.0  0.56124  0.9262480000000002  0.560867  1.0000
  C   C7        1.0  0.220998  0.4816910000000002  0.4938129999999999  1.0000
  C   C8        1.0  0.10422099999999988  0.4816229999999998  0.4937879999999999  1.0000
  C   C9        1.0  0.04936399999999996  0.41436799999999985  0.5609010000000001  1.0000
  C   C10       1.0  0.93964  0.41429999999999995  0.5608660000000001  1.0000
  C   C11       1.0  0.93964  0.5487519999999997  0.4266019999999999  1.0000
  C   C12       1.0  0.04936200000000002  0.548813  0.4266319999999999  1.0000
  C   C13       1.0  0.767999  0.48153399999999974  0.4937419999999999  1.0000
  C   C14       1.0  0.884775  0.4814939999999999  0.4937219999999999  1.0000
  C   C15       1.0  0.4940710000000001  0.4815539999999999  0.21975599999999995  1.0000
  C   C16       1.0  0.49411700000000003  0.4815219999999998  0.10297900000000013  1.0000
  C   C17       1.0  0.49395100000000003  0.20759399999999995  0.49376699999999984  1.0000
  C   C18       1.0  0.4939529999999999  0.09081699999999993  0.49377499999999996  1.0000
  C   C19       1.0  0.561329  0.5486719999999998  0.04811300000000007  1.0000
  C   C20       1.0  0.561362  0.5486469999999999  0.9383889999999997  1.0000
  C   C21       1.0  0.42696599999999996  0.4143150000000001  0.9384059999999999  1.0000
  C   C22       1.0  0.426929  0.414346  0.048128000000000046  1.0000
  C   C23       1.0  0.49393500000000007  0.4816400000000002  0.7667559999999999  1.0000
  C   C24       1.0  0.494186  0.4814670000000001  0.883533  1.0000
  H   H1        1.0  0.37191300000000005  0.881533  0.372117  1.0000
  F   F1        1.0  0.10774499999999997  0.34285600000000005  0.6323719999999997  1.0000
  F   F2        1.0  0.6328879999999999  0.620128  0.880001  1.0000
  H   H2        1.0  0.3719109999999999  0.08057999999999987  0.37208600000000014  1.0000
  H   H3        1.0  0.37226499999999996  0.3596210000000001  0.8937330000000001  1.0000
  F   F3        1.0  0.35538400000000003  0.34287599999999985  0.10652399999999994  1.0000
  H   H4        1.0  0.8949800000000001  0.359533  0.615514  1.0000
  H   H5        1.0  0.616005  0.08066399999999999  0.615457  1.0000
  H   H6        1.0  0.6160269999999999  0.8815970000000002  0.6154899999999999  1.0000
  F   F4        1.0  0.10774899999999998  0.6203939999999997  0.3551930000000001  1.0000
  H   H7        1.0  0.89496  0.6034569999999997  0.37192800000000015  1.0000
  F   F5        1.0  0.632834  0.62017  0.10648500000000016  1.0000
