data_image0
_chemical_formula_structural       Zn4O13C24H5Cl2HClH2Cl
_chemical_formula_sum              "Zn4 O13 C24 H8 Cl4"
_cell_length_a       12.759401
_cell_length_b       12.7594
_cell_length_c       12.759393
_cell_angle_alpha    89.970195
_cell_angle_beta     89.97906200000001
_cell_angle_gamma    90.01616900000002

_space_group_name_H-M_alt    "P 1"
_space_group_IT_number       1

loop_
  _space_group_symop_operation_xyz
  'x, y, z'

loop_
  _atom_site_type_symbol
  _atom_site_label
  _atom_site_symmetry_multiplicity
  _atom_site_fract_x
  _atom_site_fract_y
  _atom_site_fract_z
  _atom_site_occupancy
  Zn  Zn1       1.0  0.6062669999999999  0.5818269999999999  0.405975  1.0000
  Zn  Zn2       1.0  0.606158  0.4061119999999999  0.581653  1.0000
  Zn  Zn3       1.0  0.43056500000000014  0.5817709999999999  0.5816399999999999  1.0000
  Zn  Zn4       1.0  0.4305580000000003  0.406185  0.406015  1.0000
  O   O1        1.0  0.5183869999999999  0.4939739999999999  0.49382099999999995  1.0000
  O   O2        1.0  0.7532730000000002  0.558511  0.42926699999999995  1.0000
  O   O3        1.0  0.5828230000000001  0.4293590000000001  0.728672  1.0000
  O   O4        1.0  0.4539210000000001  0.7287999999999998  0.558315  1.0000
  O   O5        1.0  0.7531930000000002  0.4294130000000001  0.5583370000000001  1.0000
  O   O6        1.0  0.583008  0.7288409999999999  0.42925500000000005  1.0000
  O   O7        1.0  0.4538160000000002  0.558416  0.7286630000000001  1.0000
  O   O8        1.0  0.2835430000000001  0.558487  0.558354  1.0000
  O   O9        1.0  0.45390800000000003  0.42953899999999995  0.258989  1.0000
  O   O10       1.0  0.28353800000000007  0.429484  0.42932400000000004  1.0000
  O   O11       1.0  0.5830010000000003  0.5585819999999999  0.25895900000000016  1.0000
  O   O12       1.0  0.5828150000000004  0.2591  0.558376  1.0000
  O   O13       1.0  0.4538030000000002  0.259154  0.42933600000000005  1.0000
  C   C1        1.0  0.24541999999999997  0.4939869999999999  0.493841  1.0000
  C   C2        1.0  0.12864300000000006  0.49396699999999993  0.49382499999999996  1.0000
  C   C3        1.0  0.5183250000000001  0.22100600000000004  0.49383900000000003  1.0000
  C   C4        1.0  0.518394  0.10423000000000004  0.49381200000000003  1.0000
  C   C5        1.0  0.0738049999999999  0.42669299999999993  0.426745  1.0000
  C   C6        1.0  0.9640810000000002  0.4266889999999999  0.42672399999999994  1.0000
  C   C7        1.0  0.964042  0.561236  0.560873  1.0000
  C   C8        1.0  0.07376399999999994  0.561244  0.560888  1.0000
  C   C9        1.0  0.5855810000000002  0.04947900000000015  0.42655299999999996  1.0000
  C   C10       1.0  0.58564  0.9397549999999997  0.42652500000000004  1.0000
  C   C11       1.0  0.45132300000000003  0.9395419999999999  0.561023  1.0000
  C   C12       1.0  0.4512600000000002  0.049264000000000085  0.561045  1.0000
  C   C13       1.0  0.7924199999999999  0.4939599999999999  0.493799  1.0000
  C   C14       1.0  0.9091970000000003  0.4939539999999999  0.49378999999999995  1.0000
  C   C15       1.0  0.5184660000000001  0.49407499999999993  0.21978699999999995  1.0000
  C   C16       1.0  0.5184990000000002  0.49411799999999984  0.10301000000000005  1.0000
  C   C17       1.0  0.5184780000000002  0.7680069999999998  0.4937789999999999  1.0000
  C   C18       1.0  0.5185170000000001  0.8847839999999998  0.493761  1.0000
  C   C19       1.0  0.5857230000000002  0.5613209999999998  0.048131000000000035  1.0000
  C   C20       1.0  0.5857399999999999  0.561367  0.938407  1.0000
  C   C21       1.0  0.4513080000000001  0.42699600000000004  0.9384509999999999  1.0000
  C   C22       1.0  0.4512860000000001  0.426956  0.04817300000000002  1.0000
  C   C23       1.0  0.5183690000000001  0.49394899999999986  0.766788  1.0000
  C   C24       1.0  0.5185390000000001  0.494202  0.883564  1.0000
  H   H1        1.0  0.11848499999999995  0.37191399999999986  0.372136  1.0000
  H   H2        1.0  0.6404490000000003  0.616011  0.09277700000000011  1.0000
  H   H3        1.0  0.3965880000000002  0.3723130000000001  0.893789  1.0000
  H   H4        1.0  0.39654300000000015  0.09384500000000007  0.6158159999999999  1.0000
  H   H5        1.0  0.919438  0.37190999999999996  0.372099  1.0000
  Cl  Cl1       1.0  0.36676300000000017  0.34247099999999997  0.11716899999999997  1.0000
  Cl  Cl2       1.0  0.6699740000000001  0.11857500000000007  0.342028  1.0000
  H   H6        1.0  0.919346  0.616009  0.615475  1.0000
  Cl  Cl3       1.0  0.14270800000000006  0.645831  0.6452180000000001  1.0000
  H   H7        1.0  0.6403470000000002  0.8951819999999999  0.3717539999999999  1.0000
  H   H8        1.0  0.3966660000000003  0.894776  0.615764  1.0000
  Cl  Cl4       1.0  0.6702630000000005  0.6458459999999999  0.869421  1.0000
