data_image0
_chemical_formula_structural       Zn4O13C24HFHF2H2F3H2
_chemical_formula_sum              "Zn4 O13 C24 H6 F6"
_cell_length_a       12.759393
_cell_length_b       12.759401000000002
_cell_length_c       12.759399
_cell_angle_alpha    89.983359
_cell_angle_beta     89.967969
_cell_angle_gamma    90.01983700000001

_space_group_name_H-M_alt    "P 1"
_space_group_IT_number       1

loop_
  _space_group_symop_operation_xyz
  'x, y, z'

loop_
  _atom_site_type_symbol
  _atom_site_label
  _atom_site_symmetry_multiplicity
  _atom_site_fract_x
  _atom_site_fract_y
  _atom_site_fract_z
  _atom_site_occupancy
  Zn  Zn1       1.0  0.405983  0.3937480000000002  0.581839  1.0000
  Zn  Zn2       1.0  0.581664  0.3938550000000003  0.40612000000000004  1.0000
  Zn  Zn3       1.0  0.5816479999999999  0.5694459999999999  0.5817799999999999  1.0000
  Zn  Zn4       1.0  0.406027  0.5694589999999999  0.4061969999999999  1.0000
  O   O1        1.0  0.49383000000000005  0.481627  0.49398399999999987  1.0000
  O   O2        1.0  0.429276  0.24674100000000004  0.5585219999999999  1.0000
  O   O3        1.0  0.728683  0.4171870000000002  0.4293649999999999  1.0000
  O   O4        1.0  0.5583199999999999  0.5460890000000003  0.728809  1.0000
  O   O5        1.0  0.5583480000000001  0.24682000000000004  0.42942199999999986  1.0000
  O   O6        1.0  0.42926  0.417005  0.728852  1.0000
  O   O7        1.0  0.7286710000000001  0.5461929999999999  0.5584210000000001  1.0000
  O   O8        1.0  0.5583629999999999  0.716469  0.5584949999999999  1.0000
  O   O9        1.0  0.2589999999999999  0.546111  0.4295529999999999  1.0000
  O   O10       1.0  0.429335  0.716478  0.42949599999999993  1.0000
  O   O11       1.0  0.258968  0.41701700000000014  0.558597  1.0000
  O   O12       1.0  0.5583910000000001  0.41719900000000004  0.25910900000000014  1.0000
  O   O13       1.0  0.42935100000000004  0.546215  0.259166  1.0000
  C   C1        1.0  0.49385100000000004  0.754594  0.493997  1.0000
  C   C2        1.0  0.493835  0.8713709999999998  0.493977  1.0000
  C   C3        1.0  0.49385400000000007  0.4816910000000003  0.22101600000000005  1.0000
  C   C4        1.0  0.49382899999999996  0.4816230000000001  0.10424000000000011  1.0000
  C   C5        1.0  0.2197969999999999  0.4815539999999999  0.49409000000000003  1.0000
  C   C6        1.0  0.10302  0.4815219999999999  0.494135  1.0000
  C   C7        1.0  0.04815199999999987  0.5486719999999999  0.5613469999999999  1.0000
  C   C8        1.0  0.9384280000000002  0.5486470000000003  0.56138  1.0000
  C   C9        1.0  0.9384490000000003  0.4143150000000002  0.4269849999999999  1.0000
  C   C10       1.0  0.048170999999999964  0.41434600000000005  0.426948  1.0000
  C   C11       1.0  0.766798  0.48164000000000007  0.4939539999999999  1.0000
  C   C12       1.0  0.883574  0.4814670000000002  0.494204  1.0000
  C   C13       1.0  0.49380900000000005  0.20759400000000022  0.49397  1.0000
  C   C14       1.0  0.4938  0.09081699999999991  0.49396399999999996  1.0000
  C   C15       1.0  0.426756  0.9262099999999998  0.42670399999999986  1.0000
  C   C16       1.0  0.426735  0.03593400000000013  0.42669999999999997  1.0000
  C   C17       1.0  0.560882  0.03597000000000006  0.561244  1.0000
  C   C18       1.0  0.5608960000000001  0.926248  0.561253  1.0000
  C   C19       1.0  0.560944  0.4143680000000003  0.04938300000000006  1.0000
  C   C20       1.0  0.560909  0.4143000000000001  0.9396589999999998  1.0000
  C   C21       1.0  0.42664100000000005  0.548752  0.9396580000000001  1.0000
  C   C22       1.0  0.42667200000000005  0.5488129999999999  0.049379999999999966  1.0000
  C   C23       1.0  0.49378299999999997  0.481534  0.7680170000000001  1.0000
  C   C24       1.0  0.493763  0.4814940000000002  0.884794  1.0000
  H   H1        1.0  0.09280699999999997  0.603371  0.616055  1.0000
  F   F1        1.0  0.6322500000000001  0.09438300000000008  0.6328389999999998  1.0000
  H   H2        1.0  0.8937600000000001  0.6033280000000001  0.6161089999999999  1.0000
  F   F2        1.0  0.6324170000000001  0.34285600000000027  0.107766  1.0000
  F   F3        1.0  0.35523099999999996  0.620394  0.107766  1.0000
  H   H3        1.0  0.6155200000000001  0.881597  0.6160410000000001  1.0000
  H   H4        1.0  0.893778  0.3596209999999999  0.3722850000000001  1.0000
  F   F4        1.0  0.35538099999999995  0.8678099999999997  0.35510600000000003  1.0000
  F   F5        1.0  0.10656899999999991  0.3428760000000002  0.35540399999999994  1.0000
  F   F6        1.0  0.632339  0.34271600000000013  0.8812819999999999  1.0000
  H   H5        1.0  0.37211099999999997  0.0805800000000001  0.371922  1.0000
  H   H6        1.0  0.371966  0.603457  0.894978  1.0000
