data_image0
_chemical_formula_structural       NC8NH4C6NH7C6NCH7Zn2C4O8
_chemical_formula_sum              "N4 C25 H18 Zn2 O8"
_cell_length_a       13.859017981522156
_cell_length_b       9.274771166103582
_cell_length_c       9.274690524155615
_cell_angle_alpha    85.95744674106099
_cell_angle_beta     89.68735533555713
_cell_angle_gamma    90.59707920365587

_space_group_name_H-M_alt    "P 1"
_space_group_IT_number       1

loop_
  _space_group_symop_operation_xyz
  'x, y, z'

loop_
  _atom_site_type_symbol
  _atom_site_label
  _atom_site_symmetry_multiplicity
  _atom_site_fract_x
  _atom_site_fract_y
  _atom_site_fract_z
  _atom_site_occupancy
  N   N1        1.0  0.9253178568836901  0.5647635067312422  0.40732386013889776  1.0000
  C   C1        1.0  0.8531343245370303  0.5571962629791245  0.3460310012889094  1.0000
  C   C2        1.0  0.7633422654646677  0.5477839740279071  0.26979065968622945  1.0000
  C   C3        1.0  0.7635747042851274  0.5294291117430849  0.12111825414342037  1.0000
  C   C4        1.0  0.6763486944763626  0.5202894181864768  0.047079082653770365  1.0000
  C   C5        1.0  0.5887094412500715  0.529430832375088  0.12111800272691431  1.0000
  C   C6        1.0  0.5881120360299107  0.5477849459439394  0.2697904741404302  1.0000
  C   C7        1.0  0.6755197938047584  0.5569603343257494  0.3441155350404877  1.0000
  C   C8        1.0  0.4978945149428083  0.5571971648709078  0.34603075924259197  1.0000
  N   N2        1.0  0.42536894374277784  0.5647638194790618  0.4073237659739955  1.0000
  H   H1        1.0  0.8310334400985925  0.5222063453516306  0.06261723145160447  1.0000
  H   H2        1.0  0.6766691530378656  0.5061113358142821  0.9322360460532942  1.0000
  H   H3        1.0  0.5215771935066101  0.5222094402271398  0.06261680588699226  1.0000
  H   H4        1.0  0.6751986742314168  0.5711670162929194  0.4591920555580433  1.0000
  C   C9        1.0  0.17238288441275754  0.1411739777058112  0.40810940040092425  1.0000
  C   C10       1.0  0.15064221237447573  0.22335806497681476  0.27922186363717794  1.0000
  C   C11       1.0  0.1379132909646832  0.15717688584576983  0.1495165894236783  1.0000
  C   C12       1.0  0.14697899853166363  0.007425948854785871  0.14775938452486237  1.0000
  C   C13       1.0  0.16694177966718352  0.9239069828880229  0.2748763836762067  1.0000
  C   C14       1.0  0.17831304971174844  0.9883424198786861  0.40655073177485734  1.0000
  N   N3        1.0  0.11677052629355678  0.24244811095585447  0.019212503774000526  1.0000
  H   H5        1.0  0.2798409348265014  0.22358672958786993  0.7235368440529732  1.0000
  H   H6        1.0  0.1457791031200824  0.33994593881847823  0.27866822960901927  1.0000
  H   H7        1.0  0.13764205603221713  0.9550679256219017  0.04796426192089598  1.0000
  H   H8        1.0  0.17120887179779026  0.8077069524960268  0.2707486350881356  1.0000
  H   H9        1.0  0.24677186995925415  0.6931487354742897  0.6211530770757596  1.0000
  H   H10       1.0  0.11012271874052026  0.354521599167855  0.019165692765808824  1.0000
  H   H11       1.0  0.10751591227752692  0.19412797790694622  0.9217876340989749  1.0000
  C   C15       1.0  0.17686708479868624  0.5610650672257478  0.9840895516161408  1.0000
  C   C16       1.0  0.2556968579872947  0.623462793299052  0.052712103005168924  1.0000
  C   C17       1.0  0.32964116050124814  0.6967849616476096  0.9720793861238982  1.0000
  C   C18       1.0  0.3239991257446171  0.7074399166975034  0.8211633223801266  1.0000
  C   C19       1.0  0.24722235120859518  0.6441828055745493  0.7513316665824838  1.0000
  C   C20       1.0  0.17382879881997404  0.5684512833072297  0.830570508916765  1.0000
  N   N4        1.0  0.4103968802823658  0.7622452717553183  0.040680720883804034  1.0000
  C   C21       1.0  0.4234562195352056  0.7571675244205167  0.19697160862244645  1.0000
  H   H12       1.0  0.06551493722727808  0.38719002751151493  0.27740826137329916  1.0000
  H   H13       1.0  0.37997228696523466  0.7639056108487197  0.7570008615253423  1.0000
  H   H14       1.0  0.020874380108711458  0.5007798097877809  0.5552568649020118  1.0000
  H   H15       1.0  0.46327207291425165  0.8162024241914012  0.9759472882462559  1.0000
  H   H16       1.0  0.4913826249209017  0.8143224872385153  0.2225447518022481  1.0000
  H   H17       1.0  0.4280581219789721  0.6431324287264892  0.24140607149590568  1.0000
  H   H18       1.0  0.36229478243345015  0.811244237734631  0.24807414082072524  1.0000
  Zn  Zn1       1.0  0.06962174802259935  0.56475981768777  0.4073321592804373  1.0000
  Zn  Zn2       1.0  0.2810649305968529  0.5647558422534562  0.40732728096426696  1.0000
  C   C22       1.0  0.1743607502425142  0.5613086880173688  0.6705780884944157  1.0000
  C   C23       1.0  0.17632824956231596  0.5682087931437264  0.14408148980971672  1.0000
  C   C24       1.0  0.17720775854246074  0.8281594046955829  0.4011019599167323  1.0000
  C   C25       1.0  0.17348115670455533  0.3013563440958196  0.4135576984182128  1.0000
  O   O1        1.0  0.256388953325484  0.5705984911760342  0.19777440609474595  1.0000
  O   O2        1.0  0.2547805234628864  0.5589148809158995  0.6168810567907751  1.0000
  O   O3        1.0  0.25707843159643273  0.7744002225186732  0.3992771736413676  1.0000
  O   O4        1.0  0.2540909735008099  0.3551131589503864  0.415378181161121  1.0000
  O   O5        1.0  0.09659563296349942  0.7744025009937008  0.3992812590776639  1.0000
  O   O6        1.0  0.09429773723262462  0.5589188917634802  0.6168850621903388  1.0000
  O   O7        1.0  0.09590617302713603  0.5706024366370805  0.197776678755458  1.0000
  O   O8        1.0  0.09360819273844648  0.35511709503716715  0.4153805618989459  1.0000
