data_image0
_chemical_formula_structural       NC10NC3NH7C7OC3NC3H11C7OC6H10Zn2C4O8
_chemical_formula_sum              "N4 C43 H28 O10 Zn2"
_cell_length_a       19.210446455230148
_cell_length_b       10.298746005989749
_cell_length_c       10.299382801718286
_cell_angle_alpha    85.57508548997963
_cell_angle_beta     89.97114799571779
_cell_angle_gamma    89.95621662588982

_space_group_name_H-M_alt    "P 1"
_space_group_IT_number       1

loop_
  _space_group_symop_operation_xyz
  'x, y, z'

loop_
  _atom_site_type_symbol
  _atom_site_label
  _atom_site_symmetry_multiplicity
  _atom_site_fract_x
  _atom_site_fract_y
  _atom_site_fract_z
  _atom_site_occupancy
  N   N1        1.0  0.6558495786604706  0.4200457339808663  0.5674739586889201  1.0000
  C   C1        1.0  0.595621000549915  0.4222534441294219  0.5677053430169534  1.0000
  C   C2        1.0  0.5208165253511797  0.4249906004024992  0.5679919995505402  1.0000
  C   C3        1.0  0.4852035843690576  0.5412318481454317  0.5831162085558468  1.0000
  C   C4        1.0  0.412538113638154  0.5413833872364069  0.583063627554337  1.0000
  C   C5        1.0  0.3756497589362001  0.42569963180557985  0.5680785585035223  1.0000
  C   C6        1.0  0.2983276515695519  0.42434303496094566  0.5679278214517312  1.0000
  C   C7        1.0  0.2605838701141018  0.5279103342910132  0.5045773048494009  1.0000
  C   C8        1.0  0.1878055298468709  0.5265079860053685  0.5044680805371976  1.0000
  C   C9        1.0  0.15176956869432673  0.4217958578459072  0.5676584037468355  1.0000
  C   C10       1.0  0.0768400684586908  0.42049366118040776  0.5675214357798313  1.0000
  N   N2        1.0  0.016602232069569196  0.4194466508552772  0.5674113484054235  1.0000
  C   C11       1.0  0.18878969691252293  0.3183542557394954  0.630983925423666  1.0000
  C   C12       1.0  0.261569877530253  0.31948232500521456  0.6311433660599681  1.0000
  C   C13       1.0  0.4138725185950097  0.3112788166622069  0.5532427084370128  1.0000
  N   N3        1.0  0.484642442950415  0.313723991715501  0.5534085328190005  1.0000
  H   H1        1.0  0.5133027393250204  0.6306737732473984  0.5951741877487455  1.0000
  H   H2        1.0  0.3852672288304285  0.6314074494733475  0.5965163886559002  1.0000
  H   H3        1.0  0.2873192400353068  0.6091609837120189  0.4535955234836291  1.0000
  H   H4        1.0  0.15966699605240003  0.6069310921675806  0.4548166002528762  1.0000
  H   H5        1.0  0.1614149138977745  0.23696766823458626  0.6805358180946043  1.0000
  H   H6        1.0  0.2890633113787047  0.2391786509704876  0.6822325814156571  1.0000
  H   H7        1.0  0.3876092161079369  0.2203917650395193  0.5397436079702991  1.0000
  C   C14       1.0  0.8361959697090777  0.03834417388859858  0.567425490633423  1.0000
  C   C15       1.0  0.8687813087819182  0.04677459865635659  0.44491628181394227  1.0000
  C   C16       1.0  0.8845261765977157  0.9339151516929751  0.3822808307614136  1.0000
  C   C17       1.0  0.8687818396370048  0.8115379886314132  0.4448671449082344  1.0000
  C   C18       1.0  0.8362624773116835  0.8011382637976828  0.5674710334355016  1.0000
  C   C19       1.0  0.820008359879552  0.9151068557927944  0.6278178042026519  1.0000
  C   C20       1.0  0.9195275516768173  0.9426252145612383  0.25345997660123326  1.0000
  O   O1        1.0  0.9620337480830037  0.8545722003748304  0.22824049113045586  1.0000
  C   C21       1.0  0.9063098029456887  0.051167095146541275  0.1532571558601996  1.0000
  C   C22       1.0  0.8403989714798064  0.11066649204438828  0.14116121698247097  1.0000
  C   C23       1.0  0.8282186513879548  0.2123407816138927  0.04525708962629582  1.0000
  N   N4        1.0  0.7611933574107478  0.27268438364189707  0.034064715080889485  1.0000
  C   C24       1.0  0.881992461821812  0.2541229344319915  0.9601140936068141  1.0000
  C   C25       1.0  0.9472682365177688  0.1944594993372788  0.970354082288075  1.0000
  C   C26       1.0  0.9593944673006061  0.0932097198291124  0.06595401293047454  1.0000
  H   H8        1.0  0.7755908827342022  0.22970854752609338  0.7997702087436056  1.0000
  H   H9        1.0  0.8826324844051269  0.14126021263036037  0.39869235973120465  1.0000
  H   H10       1.0  0.8813447179181988  0.7243171035562682  0.39716737318270495  1.0000
  H   H11       1.0  0.7948943776732907  0.9078564383514006  0.7222521132378072  1.0000
  H   H12       1.0  0.7750790062246432  0.5741695347251948  0.7993273291624623  1.0000
  H   H13       1.0  0.7982327936712655  0.07734374045245418  0.20513076223972515  1.0000
  H   H14       1.0  0.7207371802219996  0.24230865899125398  0.0970225081397822  1.0000
  H   H15       1.0  0.7515495610730926  0.34830314345842966  0.9628284356219701  1.0000
  H   H16       1.0  0.8732335809253463  0.33247584204224934  0.8856289374872385  1.0000
  H   H17       1.0  0.9885819514482591  0.22674764662537664  0.9040523895292284  1.0000
  H   H18       1.0  0.010445850060357033  0.04848417024539731  0.07247266628050175  1.0000
  C   C27       1.0  0.8362986608820008  0.41966786307403314  0.18607846464268626  1.0000
  C   C28       1.0  0.909428462766222  0.4204099662156924  0.18476217149677687  1.0000
  C   C29       1.0  0.9463129312652613  0.4192960570195932  0.06704006612812474  1.0000
  C   C30       1.0  0.9092588383175535  0.42043828703541236  0.9495166339183807  1.0000
  C   C31       1.0  0.8361597688041371  0.4198145618300542  0.9488180316518194  1.0000
  C   C32       1.0  0.8001036761592926  0.4190882166301296  0.0676646769687601  1.0000
  C   C33       1.0  0.023528617015506903  0.42146369297791697  0.06539831278685915  1.0000
  O   O2        1.0  0.05420439002884847  0.4821268444685318  0.970869763012312  1.0000
  C   C34       1.0  0.06594434424110586  0.3548043438555717  0.17089313753638624  1.0000
  C   C35       1.0  0.13137651716773013  0.4051598161981216  0.20198621707638528  1.0000
  C   C36       1.0  0.17209485286032322  0.3421529143957802  0.30022979966730373  1.0000
  C   C37       1.0  0.14823339986443007  0.2278791433119751  0.3675910474898662  1.0000
  C   C38       1.0  0.08372415021331503  0.17607505115894592  0.33647470238374644  1.0000
  C   C39       1.0  0.042807483561147615  0.2387035374093746  0.23833319228274474  1.0000
  H   H19       1.0  0.6982919530983731  0.42027927006937293  0.3957271705339595  1.0000
  H   H20       1.0  0.9377869706750429  0.42331360310480703  0.27535627141543717  1.0000
  H   H21       1.0  0.9376242496786458  0.42056254910598484  0.8585602395722671  1.0000
  H   H22       1.0  0.7437261089532013  0.41851690979877715  0.06787520455593787  1.0000
  H   H23       1.0  0.8080784267720227  0.42068002663392884  0.6210079147481968  1.0000
  H   H24       1.0  0.1507099593047727  0.4938083730696377  0.15105268406802708  1.0000
  H   H25       1.0  0.22220516715902727  0.38195687579138715  0.32409618025395526  1.0000
  H   H26       1.0  0.17985089022864154  0.17919519922015925  0.44352604939419965  1.0000
  H   H27       1.0  0.06552372267465123  0.0869686649848076  0.38803677353449584  1.0000
  H   H28       1.0  0.9935327289440959  0.19561573759547682  0.2142802493409326  1.0000
  Zn  Zn1       1.0  0.7599549992411453  0.41986938861972406  0.5674633895913646  1.0000
  Zn  Zn2       1.0  0.9124967926896373  0.41961241479557154  0.5674325526729307  1.0000
  C   C40       1.0  0.8361840392948114  0.4146127010416046  0.8046436462429396  1.0000
  C   C41       1.0  0.83626941850731  0.42487073835391276  0.3302524232492392  1.0000
  C   C42       1.0  0.8362472731713779  0.6569529375944885  0.5622872532031804  1.0000
  C   C43       1.0  0.8362061324302116  0.18252894146398216  0.5726088854451172  1.0000
  O   O3        1.0  0.8941484196405869  0.4265136843663224  0.3786268180147283  1.0000
  O   O4        1.0  0.8940807297947228  0.41277373796316946  0.7562454730644526  1.0000
  O   O5        1.0  0.8941310113349757  0.6084665453645408  0.5605409712115699  1.0000
  O   O6        1.0  0.8940980860666911  0.23082088632494038  0.5743312225037935  1.0000
  O   O7        1.0  0.7783536538090654  0.6086609171794604  0.5605647197641943  1.0000
  O   O8        1.0  0.7783033724143179  0.41296967020424113  0.7562691524646508  1.0000
  O   O9        1.0  0.7783710625868023  0.42670957104713003  0.37864893600788574  1.0000
  O   O10       1.0  0.7783207289915232  0.23101676373486368  0.5743534378644602  1.0000
