data_image0
_chemical_formula_structural       NC12NC2H8C7OC3NC3H11C6NCOC6H11Zn2C4O8
_chemical_formula_sum              "N4 C44 H30 O10 Zn2"
_cell_length_a       19.240039667572717
_cell_length_b       10.298746005989749
_cell_length_c       10.299662537453274
_cell_angle_alpha    85.54306763902352
_cell_angle_beta     89.98643935911939
_cell_angle_gamma    90.00762981599719

_space_group_name_H-M_alt    "P 1"
_space_group_IT_number       1

loop_
  _space_group_symop_operation_xyz
  'x, y, z'

loop_
  _atom_site_type_symbol
  _atom_site_label
  _atom_site_symmetry_multiplicity
  _atom_site_fract_x
  _atom_site_fract_y
  _atom_site_fract_z
  _atom_site_occupancy
  N   N1        1.0  0.6547599647926149  0.42193763482283003  0.5675644558211919  1.0000
  C   C1        1.0  0.5946115959917031  0.42193771884227527  0.567564373891031  1.0000
  C   C2        1.0  0.5197935588762994  0.42193783618995523  0.5675642365954079  1.0000
  C   C3        1.0  0.4833021455747313  0.3574278902127036  0.6709717292090476  1.0000
  C   C4        1.0  0.4106313786043898  0.357316966673171  0.6710582620256371  1.0000
  C   C5        1.0  0.3734613239744183  0.42193792884917736  0.5675640089187792  1.0000
  C   C6        1.0  0.41066694772033524  0.48655907795407977  0.46406995037461773  1.0000
  C   C7        1.0  0.48333761728140745  0.4864479188484697  0.4641566056705965  1.0000
  C   C8        1.0  0.2962562335412758  0.4219378502173169  0.5675639134936767  1.0000
  C   C9        1.0  0.2590550458998664  0.30865146889063033  0.6094239698649984  1.0000
  C   C10       1.0  0.1863843767080897  0.30875841287562195  0.6093326535753769  1.0000
  C   C11       1.0  0.1499239466011533  0.42193772101026544  0.567563974392022  1.0000
  C   C12       1.0  0.0751059094065827  0.42193760716350076  0.5675642230457902  1.0000
  N   N2        1.0  0.0149575925251621  0.42193756625755124  0.567564431464743  1.0000
  C   C13       1.0  0.18641102736293672  0.5351171049990735  0.5257952423246157  1.0000
  C   C14       1.0  0.25908174280661733  0.5352242291820675  0.5257037634556883  1.0000
  H   H1        1.0  0.5110032224172091  0.3074826304627223  0.7517094044092392  1.0000
  H   H2        1.0  0.3835241982429576  0.3081694382983118  0.7529115445364516  1.0000
  H   H3        1.0  0.3835875973020111  0.5357066334029499  0.38221661701719567  1.0000
  H   H4        1.0  0.5110663118599157  0.5363930782228858  0.38341920626063497  1.0000
  H   H5        1.0  0.28613801644558884  0.21947660134340574  0.6405831367630441  1.0000
  H   H6        1.0  0.158659163282891  0.2204824116352266  0.641524896465274  1.0000
  H   H7        1.0  0.1587064173367528  0.6233930816949895  0.4936030139829346  1.0000
  H   H8        1.0  0.2861852510894219  0.624399175929682  0.4945445517933045  1.0000
  C   C15       1.0  0.8348289054353386  0.040535536481188794  0.5675472568225735  1.0000
  C   C16       1.0  0.8673572180046071  0.04908873376877462  0.44504171220837235  1.0000
  C   C17       1.0  0.8830743375798424  0.9362905375395351  0.382407975894955  1.0000
  C   C18       1.0  0.8673577452768328  0.8138521521679384  0.44499257459827235  1.0000
  C   C19       1.0  0.8348953132854737  0.8033297112867539  0.5675928118944316  1.0000
  C   C20       1.0  0.8186695986890494  0.9172374898992175  0.6279377425287758  1.0000
  C   C21       1.0  0.9180146139711468  0.9451309222123685  0.2535911025486006  1.0000
  O   O1        1.0  0.9604539984444683  0.8571626186325129  0.2283785783584864  1.0000
  C   C22       1.0  0.9048115586638319  0.05370702366079683  0.15338436587487858  1.0000
  C   C23       1.0  0.839001444493889  0.11310376694337362  0.141276802813864  1.0000
  C   C24       1.0  0.8268344638265674  0.21481159030341465  0.04536900907773834  1.0000
  N   N3        1.0  0.7599116525182464  0.27505018186527924  0.034164831760402414  1.0000
  C   C25       1.0  0.8805207546334491  0.25673075061780265  0.9602339567338802  1.0000
  C   C26       1.0  0.9456966845330278  0.19716995505020282  0.9704854294052278  1.0000
  C   C27       1.0  0.9578096419782662  0.09588672245677876  0.06608901211858509  1.0000
  H   H9        1.0  0.7743301342196156  0.23166904945796468  0.7998852327177417  1.0000
  H   H10       1.0  0.8811844825674109  0.14362325516716679  0.3988194425281932  1.0000
  H   H11       1.0  0.8798986113505237  0.7266788627761074  0.3972942079790973  1.0000
  H   H12       1.0  0.7935995684456143  0.9098924416834123  0.7223692277477449  1.0000
  H   H13       1.0  0.7738190202566801  0.5761294350202867  0.7994422572051019  1.0000
  H   H14       1.0  0.7969037369813192  0.07967514871508596  0.20524007382601764  1.0000
  H   H15       1.0  0.7195212579769982  0.2445719968616857  0.09711663066824627  1.0000
  H   H16       1.0  0.7502786820659315  0.35069285986962656  0.9629257255524323  1.0000
  H   H17       1.0  0.8717711553576708  0.33511086676082175  0.8857460746392558  1.0000
  H   H18       1.0  0.9869431093202753  0.22956386084344152  0.9041898252842971  1.0000
  H   H19       1.0  0.008782853471862584  0.05124228113111373  0.07261662280709058  1.0000
  C   C28       1.0  0.834909970515064  0.4220731526358485  0.18619406757215495  1.0000
  C   C29       1.0  0.9058616710407073  0.45445046448747534  0.18238200469036236  1.0000
  C   C30       1.0  0.941808158984281  0.4688767622233887  0.06377819570079746  1.0000
  C   C31       1.0  0.9057400270777717  0.4541403648761796  0.9472386896152201  1.0000
  C   C32       1.0  0.8348142787803594  0.4217920597839959  0.9489460071223879  1.0000
  C   C33       1.0  0.7998589888143881  0.4054965124255365  0.06899206768286104  1.0000
  N   N4        1.0  0.014185970830580708  0.5039653134544271  0.06329670344766325  1.0000
  C   C34       1.0  0.06337244369427486  0.4641118817410339  0.9690813110505365  1.0000
  O   O2        1.0  0.05068732033500911  0.3655452950903439  0.9075239077315  1.0000
  C   C35       1.0  0.13010852990821875  0.5344465604733238  0.946735065286195  1.0000
  C   C36       1.0  0.13850461181778706  0.6625276982018649  0.9830965281101345  1.0000
  C   C37       1.0  0.2015626304175977  0.7280888013632122  0.9609098421176574  1.0000
  C   C38       1.0  0.2567300068223173  0.6670565883992362  0.9019313528304056  1.0000
  C   C39       1.0  0.2488980261162654  0.5404219568081703  0.8645640084049155  1.0000
  C   C40       1.0  0.18595847113939512  0.47440378263455174  0.8864215876035129  1.0000
  H   H20       1.0  0.7009112568663688  0.362204958335758  0.4005553768920529  1.0000
  H   H21       1.0  0.9337093109912391  0.4676707566614193  0.2718031652819515  1.0000
  H   H22       1.0  0.9326611955996497  0.4701056413018599  0.855126438116781  1.0000
  H   H23       1.0  0.745165420315208  0.38052030098657985  0.07106662531820818  1.0000
  H   H24       1.0  0.8073829121871652  0.4110641127780658  0.6220217972360458  1.0000
  H   H25       1.0  0.033158319890513877  0.5511731504077964  0.1422221115212996  1.0000
  H   H26       1.0  0.09627829073751237  0.7130672287059507  0.026873406770736574  1.0000
  H   H27       1.0  0.2075501355360827  0.8265767299492137  0.9890315794577789  1.0000
  H   H28       1.0  0.3054682206759325  0.7180390542908576  0.8848168749057247  1.0000
  H   H29       1.0  0.291638382303147  0.4933000275955818  0.8185903531210301  1.0000
  H   H30       1.0  0.18116194372631744  0.37613849391706355  0.8569248259746295  1.0000
  Zn  Zn1       1.0  0.7587052273891096  0.4219341447732114  0.5675719371497538  1.0000
  Zn  Zn2       1.0  0.9110123464472648  0.42193045800021656  0.567567548599281  1.0000
  C   C41       1.0  0.8348303476834693  0.4166710759208866  0.8047692553150949  1.0000
  C   C42       1.0  0.8348888894686035  0.42719516552734493  0.33037035795272707  1.0000
  C   C43       1.0  0.8348798407120884  0.6591472655042623  0.5624089450045735  1.0000
  C   C44       1.0  0.8348393443236519  0.18471741548148826  0.5727307374114372  1.0000
  O   O3        1.0  0.8926815719108134  0.42890709449879294  0.3787555723005911  1.0000
  O   O4        1.0  0.8926352444211553  0.4149553691041343  0.7563803362474777  1.0000
  O   O5        1.0  0.8926744313298532  0.6107579582438911  0.5606726710354553  1.0000
  O   O6        1.0  0.8926423330430407  0.23310451468720791  0.5744631401381959  1.0000
  O   O7        1.0  0.7770751888183897  0.6107600880888948  0.560676345605505  1.0000
  O   O8        1.0  0.7770360020510803  0.41495905941429373  0.7563839416640057  1.0000
  O   O9        1.0  0.7770823297789561  0.4289107401244463  0.3787576162848265  1.0000
  O   O10       1.0  0.7770430908953141  0.23310815098736404  0.5744652814915161  1.0000
