data_image0
_chemical_formula_structural       NC9NC5H8C6NCOH7C6NCH7Zn2C4O8
_chemical_formula_sum              "N4 C32 H22 O9 Zn2"
_cell_length_a       17.807436237873137
_cell_length_b       10.29961932979008
_cell_length_c       9.273390368590329
_cell_angle_alpha    86.17370271239353
_cell_angle_beta     89.39974432744097
_cell_angle_gamma    88.41592915749165

_space_group_name_H-M_alt    "P 1"
_space_group_IT_number       1

loop_
  _space_group_symop_operation_xyz
  'x, y, z'

loop_
  _atom_site_type_symbol
  _atom_site_label
  _atom_site_symmetry_multiplicity
  _atom_site_fract_x
  _atom_site_fract_y
  _atom_site_fract_z
  _atom_site_occupancy
  N   N1        1.0  0.7079021851214984  0.37241689216620677  0.398840782424456  1.0000
  C   C1        1.0  0.6473064510177022  0.33711062056252494  0.38660241312165855  1.0000
  C   C2        1.0  0.5719320178302231  0.2931935066365128  0.37137921054302336  1.0000
  C   C3        1.0  0.5538313203098185  0.22066463741283468  0.25483798712243577  1.0000
  C   C4        1.0  0.4806466135052734  0.17791213024787322  0.23996552435078344  1.0000
  C   C5        1.0  0.4245137900494488  0.20731062343114348  0.34159822790394717  1.0000
  C   C6        1.0  0.3467373350946579  0.1619915056439809  0.32588375128952674  1.0000
  C   C7        1.0  0.2845800143324003  0.24402191450304778  0.35468011232334834  1.0000
  C   C8        1.0  0.2112529484398467  0.2010665173602353  0.3398228104714196  1.0000
  C   C9        1.0  0.14804620814917  0.2857921038896247  0.36902333362097894  1.0000
  N   N2        1.0  0.0972409757878231  0.3539056254119284  0.39249974732105963  1.0000
  C   C10       1.0  0.1994995933652838  0.07582246590081909  0.29614098552123513  1.0000
  C   C11       1.0  0.2607995414368753  0.993778115866594  0.26733531197187976  1.0000
  C   C12       1.0  0.3340070903895786  0.03633682717993469  0.2819677907258711  1.0000
  C   C13       1.0  0.4433060015711485  0.2803361796309771  0.45838280963572586  1.0000
  C   C14       1.0  0.5165435438856023  0.3228966425417912  0.4730825083602874  1.0000
  H   H1        1.0  0.5962267649415044  0.19741835427465837  0.17524789246065908  1.0000
  H   H2        1.0  0.4677274400559301  0.12335024746182066  0.14793353974988133  1.0000
  H   H3        1.0  0.2931003492557645  0.34179199724011844  0.3867389666504444  1.0000
  H   H4        1.0  0.1430266276323361  0.04167441689341467  0.2843788968647145  1.0000
  H   H5        1.0  0.2515811829710566  0.8968153760483971  0.23394431899879106  1.0000
  H   H6        1.0  0.3806324587539465  0.9703904959589684  0.26082038212569136  1.0000
  H   H7        1.0  0.4016271811193146  0.30305716493677437  0.5394094929867619  1.0000
  H   H8        1.0  0.5299914783897134  0.3786680345223153  0.5639586194892925  1.0000
  C   C15       1.0  0.9024755289167407  0.9817969953410912  0.3956343329915304  1.0000
  C   C16       1.0  0.8662509462904224  0.9903200299984155  0.2613311964333678  1.0000
  C   C17       1.0  0.8491190338563063  0.8778234052069039  0.19264369564964356  1.0000
  C   C18       1.0  0.8664746682474251  0.7551519974696187  0.2614385056516566  1.0000
  C   C19       1.0  0.9026747759424155  0.7445153728027578  0.3957186219627995  1.0000
  C   C20       1.0  0.9207366302537012  0.8584455655566633  0.461780706116488  1.0000
  N   N3        1.0  0.8110077288510766  0.8904027239264544  0.05623856407917182  1.0000
  C   C21       1.0  0.822829136975385  0.8040771485663333  0.9426410911963773  1.0000
  O   O1        1.0  0.8755706119327955  0.7199031124077593  0.9478412168267059  1.0000
  H   H9        1.0  0.9700923134561844  0.17296244093341936  0.6496947492124683  1.0000
  H   H10       1.0  0.851696796495491  0.08460871465629216  0.2087429205690976  1.0000
  H   H11       1.0  0.8504141585111262  0.6680451419163596  0.21184438528245697  1.0000
  H   H12       1.0  0.9486705901604822  0.8509992240372185  0.5653052608399993  1.0000
  H   H13       1.0  0.9155619872237047  0.41297168730574346  0.44829739744621055  1.0000
  H   H14       1.0  0.7762357392872102  0.9724341381481336  0.033462137967257055  1.0000
  H   H15       1.0  0.7871726923200297  0.8137372942734284  0.8485758587208396  1.0000
  C   C22       1.0  0.9026089285014416  0.35910474285599187  0.9724296751643395  1.0000
  C   C23       1.0  0.9716078670349454  0.3532437610843713  0.04490811246870475  1.0000
  C   C24       1.0  0.03940645103931173  0.35951244530597726  0.9683902101640198  1.0000
  C   C25       1.0  0.039928727344889836  0.37191203559564845  0.8167551407255541  1.0000
  C   C26       1.0  0.9713871242130121  0.37556111436588413  0.7434594017903788  1.0000
  C   C27       1.0  0.9025414216817963  0.3672076145421869  0.8189232382696185  1.0000
  N   N4        1.0  0.10899745265772443  0.37961564074219867  0.7348432406742567  1.0000
  C   C28       1.0  0.1831725584259043  0.37624202560332676  0.800623401757592  1.0000
  H   H16       1.0  0.7840151226074553  0.30236046693148566  0.26019399466865445  1.0000
  H   H17       1.0  0.09116766073295057  0.35585642793734684  0.02866806757672391  1.0000
  H   H18       1.0  0.7274357469341867  0.27463896683917444  0.7262724419600466  1.0000
  H   H19       1.0  0.1065621358679203  0.38833836969251023  0.6220080574310876  1.0000
  H   H20       1.0  0.18806997494994507  0.45931821029693576  0.8700217311106168  1.0000
  H   H21       1.0  0.19231211279674865  0.28297541283502836  0.8660178400706614  1.0000
  H   H22       1.0  0.22720144627964856  0.383966524288382  0.7150168838972886  1.0000
  Zn  Zn1       1.0  0.8202569471637988  0.36707155499332494  0.397019231832265  1.0000
  Zn  Zn2       1.0  0.984886191837342  0.359240489964304  0.3943331457475556  1.0000
  C   C29       1.0  0.9025511385922763  0.3605024447744105  0.6589172925821045  1.0000
  C   C30       1.0  0.9025937985719273  0.36581115462152125  0.13243519731021358  1.0000
  C   C31       1.0  0.9026337274858959  0.6002905421913443  0.38995927280213594  1.0000
  C   C32       1.0  0.9025111530880705  0.12602150032919246  0.401393294676071  1.0000
  O   O2        1.0  0.9650646597301964  0.3650843736364642  0.1851151559144888  1.0000
  O   O3        1.0  0.9650300646569338  0.3552846449191505  0.6041982417852845  1.0000
  O   O4        1.0  0.9650959139079025  0.548916620525246  0.38701275178111993  1.0000
  O   O5        1.0  0.9649987543134662  0.17145240895823988  0.4023005387689423  1.0000
  O   O6        1.0  0.8401443285077939  0.5548596386730884  0.38905183971992674  1.0000
  O   O7        1.0  0.840078479667182  0.3612292226160876  0.6062372530472513  1.0000
  O   O8        1.0  0.8401130749168162  0.37102888948828183  0.1871524343135651  1.0000
  O   O9        1.0  0.8400471694859671  0.17739691655588533  0.4043379252267778  1.0000
