data_image0
_chemical_formula_structural       NC12NC2H8C6ClH5C6OCH7Zn2C4O8
_chemical_formula_sum              "N2 C31 H20 Cl1 O9 Zn2"
_cell_length_a       19.240039667572717
_cell_length_b       10.30297070629231
_cell_length_c       9.273891588657152
_cell_angle_alpha    86.0762958320409
_cell_angle_beta     89.6801242657702
_cell_angle_gamma    89.99831201696266

_space_group_name_H-M_alt    "P 1"
_space_group_IT_number       1

loop_
  _space_group_symop_operation_xyz
  'x, y, z'

loop_
  _atom_site_type_symbol
  _atom_site_label
  _atom_site_symmetry_multiplicity
  _atom_site_fract_x
  _atom_site_fract_y
  _atom_site_fract_z
  _atom_site_occupancy
  N   N1        1.0  0.658733323240125  0.40791824627438533  0.4100976644563856  1.0000
  C   C1        1.0  0.5985849546662415  0.40791832949088014  0.4100975735195125  1.0000
  C   C2        1.0  0.5237669179333202  0.4079184455025242  0.41009742113231806  1.0000
  C   C3        1.0  0.4869853547016144  0.3444050751070513  0.5248699109304926  1.0000
  C   C4        1.0  0.4143143498763521  0.34429500863226425  0.524965957906613  1.0000
  C   C5        1.0  0.3774346836745638  0.4079185359875892  0.41009716843616784  1.0000
  C   C6        1.0  0.4149306952759598  0.47154225202171673  0.2952285948913975  1.0000
  C   C7        1.0  0.4876011266522741  0.4714319512258449  0.2953247778185477  1.0000
  C   C8        1.0  0.3002295935211761  0.40791845649217257  0.41009706253252776  1.0000
  C   C9        1.0  0.2629185240316991  0.2950708855772286  0.45656352338857653  1.0000
  C   C10       1.0  0.1902481067216848  0.29517692922449384  0.4564621676734091  1.0000
  C   C11       1.0  0.1538973064181036  0.4079183279090522  0.41009713012994775  1.0000
  C   C12       1.0  0.0790792685222526  0.407918216441898  0.41009740610926554  1.0000
  N   N2        1.0  0.018930951048290092  0.40791817750837933  0.4100976374285917  1.0000
  C   C13       1.0  0.19049401712790556  0.5206598019207107  0.363732033887375  1.0000
  C   C14       1.0  0.2631649849026849  0.5207660241671623  0.36363049771940836  1.0000
  H   H1        1.0  0.514459853915811  0.2952377422273148  0.6144810297709347  1.0000
  H   H2        1.0  0.386977331856608  0.2959355522372257  0.6158151958666068  1.0000
  H   H3        1.0  0.388081182659021  0.5199017350026256  0.20437930049680886  1.0000
  H   H4        1.0  0.5155563980790003  0.5205991863588086  0.20571396507430184  1.0000
  H   H5        1.0  0.2899201235519886  0.206224621551554  0.4911518584982705  1.0000
  H   H6        1.0  0.16243848950168077  0.20723886107486522  0.4921970166920535  1.0000
  H   H7        1.0  0.16287381085704997  0.6085978456723462  0.3279972010168931  1.0000
  H   H8        1.0  0.2903498643320717  0.6096123669409999  0.32904211292215585  1.0000
  C   C15       1.0  0.8388354461653379  0.026670826499878945  0.41010384885824624  1.0000
  C   C16       1.0  0.9105290672143808  0.023753322355751786  0.4378667360866242  1.0000
  C   C17       1.0  0.9461015287170136  0.9053488899402774  0.45164183897123644  1.0000
  C   C18       1.0  0.9105290668418595  0.7886453531350714  0.43786666829773147  1.0000
  C   C19       1.0  0.8388354533607838  0.7891557689829601  0.410103931370104  1.0000
  C   C20       1.0  0.8033381169518549  0.9087619688222207  0.3963577876503215  1.0000
  Cl  Cl1       1.0  0.03566394311091202  0.9032077482855443  0.4863242004037205  1.0000
  H   H9        1.0  0.8118297169557445  0.3550729109806088  0.3996452485082887  1.0000
  H   H10       1.0  0.9390433629982655  0.11311822355745152  0.44890858730781663  1.0000
  H   H11       1.0  0.9390433357910043  0.697917029887949  0.4489084837490782  1.0000
  H   H12       1.0  0.7480458208274176  0.9100837090555344  0.3749461700680876  1.0000
  H   H13       1.0  0.811829712834232  0.4620449465154995  0.3996455206458214  1.0000
  C   C21       1.0  0.8399740682072537  0.4044748917146766  0.986828531860787  1.0000
  C   C22       1.0  0.8968925778108942  0.4593109552583286  0.05540222550139173  1.0000
  C   C23       1.0  0.949868678725201  0.5238414998685068  0.9755924741795691  1.0000
  C   C24       1.0  0.9461157066206423  0.5338612963564597  0.8241518623498232  1.0000
  C   C25       1.0  0.8906573916409185  0.47823912909131105  0.7542359705630144  1.0000
  C   C26       1.0  0.837696830642377  0.4113516197606879  0.8333791731679874  1.0000
  O   O1        1.0  0.004889085245477933  0.5770790928314309  0.05079907578861387  1.0000
  C   C27       1.0  0.06212324527410096  0.6454046623751848  0.9837226985610756  1.0000
  H   H14       1.0  0.6746551038528134  0.32473577405942766  0.0978457932483456  1.0000
  H   H15       1.0  0.9861532077101925  0.5834369661230576  0.7592297222986004  1.0000
  H   H16       1.0  0.8900965832610784  0.4849302477498054  0.6371547947568308  1.0000
  H   H17       1.0  0.7274510202569463  0.35252000552003615  0.5579365396470535  1.0000
  H   H18       1.0  0.043466482525236216  0.733259910245131  0.9193271266544971  1.0000
  H   H19       1.0  0.0911031933077042  0.58097155831157  0.9133100238988074  1.0000
  H   H20       1.0  0.09770131784978185  0.6764367450253606  0.06856623930242911  1.0000
  Zn  Zn1       1.0  0.7626785647425851  0.4079148278471676  0.4101059679421253  1.0000
  Zn  Zn2       1.0  0.914985696672636  0.4079111013883219  0.41010109749386287  1.0000
  C   C28       1.0  0.8381257381988471  0.4048797787122047  0.6733629933420073  1.0000
  C   C29       1.0  0.8395401860250036  0.4109477897294753  0.1468442135138608  1.0000
  C   C30       1.0  0.8388473375183841  0.6449831957999252  0.40436003222256905  1.0000
  C   C31       1.0  0.8388185345269245  0.17084281346167712  0.4158472514817604  1.0000
  O   O2        1.0  0.8971943340130789  0.4131130753253942  0.20054508972797702  1.0000
  O   O3        1.0  0.8960691803146622  0.4027106820392386  0.6196580056445089  1.0000
  O   O4        1.0  0.8966510976909254  0.5965972400536952  0.402436211324953  1.0000
  O   O5        1.0  0.8966123649554296  0.21922652572155066  0.41776677597459044  1.0000
  O   O6        1.0  0.7810518444848625  0.5965994035165622  0.4024402894554786  1.0000
  O   O7        1.0  0.7804699273122123  0.4027144046848064  0.6196620069206533  1.0000
  O   O8        1.0  0.7815950857185546  0.4131167386519623  0.20054735803016993  1.0000
  O   O9        1.0  0.7810131163673627  0.2192301806401287  0.4177691523438065  1.0000
