data_image0
_chemical_formula_structural       NC10NC5H10C12NH11C12IH9Zn2C4O8
_chemical_formula_sum              "N3 C43 H30 I1 Zn2 O8"
_cell_length_a       19.4436361288709
_cell_length_b       10.299770795358612
_cell_length_c       10.29977335064465
_cell_angle_alpha    85.53972113204546
_cell_angle_beta     89.71371329934453
_cell_angle_gamma    89.43566516156574

_space_group_name_H-M_alt    "P 1"
_space_group_IT_number       1

loop_
  _space_group_symop_operation_xyz
  'x, y, z'

loop_
  _atom_site_type_symbol
  _atom_site_label
  _atom_site_symmetry_multiplicity
  _atom_site_fract_x
  _atom_site_fract_y
  _atom_site_fract_z
  _atom_site_occupancy
  N   N1        1.0  0.6477499349495706  0.4097162994572705  0.5620034820443686  1.0000
  C   C1        1.0  0.5889176791873741  0.41961139790387847  0.5763868733513233  1.0000
  C   C2        1.0  0.515592992021032  0.4319518871129718  0.594378462916414  1.0000
  C   C3        1.0  0.4733903433139883  0.39999945792923364  0.49970650864440336  1.0000
  C   C4        1.0  0.3974881052670723  0.410435167670246  0.5050339519704798  1.0000
  C   C5        1.0  0.3577602463137208  0.3856374878782891  0.612108141214903  1.0000
  C   C6        1.0  0.2816384648300269  0.38956012405820983  0.5991484924714519  1.0000
  C   C7        1.0  0.241098150354596  0.44717715052185747  0.6929158061504321  1.0000
  C   C8        1.0  0.1694338207467854  0.45081979569080755  0.6823716581304536  1.0000
  C   C9        1.0  0.1373150279634847  0.39644927264938556  0.5783467481412219  1.0000
  C   C10       1.0  0.06352144119186212  0.4001532330575368  0.5676473140067139  1.0000
  N   N2        1.0  0.0041964025665922975  0.4031310227963716  0.5590456783193156  1.0000
  C   C11       1.0  0.17713039382988582  0.33812498292276727  0.4849627138725463  1.0000
  C   C12       1.0  0.2488111078745805  0.334428231852151  0.49525508727348244  1.0000
  C   C13       1.0  0.3859053366589265  0.34511584177381827  0.7432055488319405  1.0000
  C   C14       1.0  0.44458251945489513  0.38821525785792765  0.7904454873250495  1.0000
  C   C15       1.0  0.48879487679749517  0.4861073102082596  0.7160718640137096  1.0000
  H   H1        1.0  0.4954718584011708  0.37092481839437247  0.40940129353680066  1.0000
  H   H2        1.0  0.37277997310709543  0.4329731522617337  0.41187401548856295  1.0000
  H   H3        1.0  0.264987004005823  0.49042986845440856  0.7737616358596635  1.0000
  H   H4        1.0  0.1391065996351608  0.4960999256949514  0.7552898807039073  1.0000
  H   H5        1.0  0.1527697364113626  0.2950677644049675  0.4044513557819085  1.0000
  H   H6        1.0  0.2784724553706516  0.2869044077263174  0.4230333374541365  1.0000
  H   H7        1.0  0.3549388170377167  0.28086934127686924  0.8074565526439569  1.0000
  H   H8        1.0  0.45974099408980035  0.35410258056467886  0.8883822330362101  1.0000
  H   H9        1.0  0.45869669555683656  0.5768325387007973  0.6908143107884854  1.0000
  H   H10       1.0  0.5320930260962496  0.511663588609331  0.7791554016180151  1.0000
  C   C16       1.0  0.8259141353045079  0.025056205513279244  0.560564686796738  1.0000
  C   C17       1.0  0.8059402633010809  0.034638592134027986  0.42932002991546225  1.0000
  C   C18       1.0  0.7958824274725136  0.9223567500184163  0.36278170892551076  1.0000
  C   C19       1.0  0.8060661461018931  0.7993546729340273  0.42925043250913864  1.0000
  C   C20       1.0  0.8260387734927858  0.7877810173342695  0.5604956502654124  1.0000
  C   C21       1.0  0.83585125554673  0.9011888220528516  0.6254176939202276  1.0000
  C   C22       1.0  0.7747515313038662  0.9335477585015224  0.2239324770271969  1.0000
  C   C23       1.0  0.7246663541915636  0.0256640701190538  0.1791609201312654  1.0000
  C   C24       1.0  0.7048074456569878  0.03606727747240844  0.04847471747959144  1.0000
  C   C25       1.0  0.7346579404626573  0.9547811627482369  0.9604830511039584  1.0000
  C   C26       1.0  0.7845779967038126  0.8628662415670754  0.004365419380946587  1.0000
  C   C27       1.0  0.8044919994329989  0.8522059992799953  0.1350211918522524  1.0000
  N   N3        1.0  0.7143155466801289  0.9655542227528706  0.8268163550218085  1.0000
  H   H11       1.0  0.8334958558465326  0.3488576662857935  0.6105923607997046  1.0000
  H   H12       1.0  0.7990697442686319  0.12968572248935972  0.3780248011842178  1.0000
  H   H13       1.0  0.7974692388638116  0.7124991783584582  0.37890963234591657  1.0000
  H   H14       1.0  0.851259670252524  0.8930284182840875  0.726667138811897  1.0000
  H   H15       1.0  0.8336791719112566  0.45591792908128964  0.6104912159477066  1.0000
  H   H16       1.0  0.7002057535636234  0.08850786611823568  0.24556711867007563  1.0000
  H   H17       1.0  0.6660278052255566  0.10727443258916702  0.015884938294159053  1.0000
  H   H18       1.0  0.8081879443817208  0.7996928063028486  0.9372770064012421  1.0000
  H   H19       1.0  0.8437987835322873  0.781499794419418  0.16616705432221868  1.0000
  H   H20       1.0  0.7362747334134057  0.9053724019828647  0.7604945247649906  1.0000
  H   H21       1.0  0.6771456626418828  0.03379191548157265  0.7931900504030459  1.0000
  C   C28       1.0  0.8259436842242397  0.4065252898748468  0.1791612591556746  1.0000
  C   C29       1.0  0.8883022098777903  0.474376684635013  0.17230045217467183  1.0000
  C   C30       1.0  0.9199328163874891  0.5086490793876075  0.05169372674132644  1.0000
  C   C31       1.0  0.8883683339459475  0.47416130666320483  0.9370303091955088  1.0000
  C   C32       1.0  0.8260092326114381  0.4063119274832736  0.9418991625729909  1.0000
  C   C33       1.0  0.7951463591964268  0.3728727857228247  0.06342988077793078  1.0000
  C   C34       1.0  0.9859026638312668  0.5804278786196208  0.04548958559468131  1.0000
  C   C35       1.0  0.9967388522511097  0.6832467070007464  0.12520111126392353  1.0000
  C   C36       1.0  0.05886564980465492  0.750691113607461  0.11915965137945729  1.0000
  C   C37       1.0  0.11084684326964568  0.716371189070419  0.03374194030878153  1.0000
  C   C38       1.0  0.10067424768872259  0.6144262977458466  0.9541675698514585  1.0000
  C   C39       1.0  0.03861718638952194  0.5467546310308729  0.9598025295589148  1.0000
  I   I1        1.0  0.20451165016188894  0.8182794801939619  0.02493724307846224  1.0000
  H   H22       1.0  0.8021622742652118  0.38073620147361537  0.5092241871799876  1.0000
  H   H23       1.0  0.9129008649592828  0.4991691967631999  0.2610709522950778  1.0000
  H   H24       1.0  0.9120596552000503  0.5019113044027714  0.8437184085244835  1.0000
  H   H25       1.0  0.7470392096960573  0.3205296668001607  0.06795432466803741  1.0000
  H   H26       1.0  0.8022582665174326  0.38042228673999723  0.6163035788023126  1.0000
  H   H27       1.0  0.9568616707091661  0.712561320284848  0.1909201624200647  1.0000
  H   H28       1.0  0.06649047310992184  0.8298271341754071  0.18067518322555468  1.0000
  H   H29       1.0  0.14088958705642732  0.587341663817464  0.888154372762236  1.0000
  H   H30       1.0  0.03218750112532099  0.4670556443041358  0.8984380387355804  1.0000
  Zn  Zn1       1.0  0.7506126871815643  0.40781245740571115  0.5611574362349863  1.0000
  Zn  Zn2       1.0  0.9013336410341573  0.4050242542192634  0.5599024062685092  1.0000
  C   C40       1.0  0.8259944592476512  0.40117862549610117  0.7977258171792039  1.0000
  C   C41       1.0  0.8259535151149331  0.4116596942591688  0.32333413893764745  1.0000
  C   C42       1.0  0.8260112333542386  0.6436112984225968  0.5553335958418547  1.0000
  C   C43       1.0  0.8259366893287877  0.16922546196837038  0.5657264300830135  1.0000
  O   O1        1.0  0.8831546300239802  0.4123190729766874  0.3712435976088302  1.0000
  O   O2        1.0  0.8831870606750138  0.39840208546068445  0.7488634460454446  1.0000
  O   O3        1.0  0.8831998350403397  0.5941695487144971  0.5531300186487536  1.0000
  O   O4        1.0  0.8831418042209528  0.21655161999172368  0.5669769280582648  1.0000
  O   O5        1.0  0.7688044725611038  0.5962850925861436  0.5540829148666795  1.0000
  O   O6        1.0  0.7687916984416714  0.4005191896495266  0.7498162728768025  1.0000
  O   O7        1.0  0.7687592676948084  0.4144361323456784  0.37219486304313915  1.0000
  O   O8        1.0  0.7687464418958178  0.21866867004475796  0.567928290861279  1.0000
