data_image0
_chemical_formula_structural       NC12NC2H8C6SCNH5C12H16Zn2C4O8
_chemical_formula_sum              "N3 C37 H29 S1 Zn2 O8"
_cell_length_a       17.80743265337812
_cell_length_b       9.27526961838325
_cell_length_c       10.298981074953018
_cell_angle_alpha    85.8223319966089
_cell_angle_beta     91.51542336112495
_cell_angle_gamma    88.87871087483882

_space_group_name_H-M_alt    "P 1"
_space_group_IT_number       1

loop_
  _space_group_symop_operation_xyz
  'x, y, z'

loop_
  _atom_site_type_symbol
  _atom_site_label
  _atom_site_symmetry_multiplicity
  _atom_site_fract_x
  _atom_site_fract_y
  _atom_site_fract_z
  _atom_site_occupancy
  N   N1        1.0  0.6998682631701968  0.5616110355728885  0.6072949398229832  1.0000
  C   C1        1.0  0.6488968960980279  0.5944208511588982  0.5387204737324272  1.0000
  C   C2        1.0  0.5854835110089095  0.6352338805780724  0.453422476992881  1.0000
  C   C3        1.0  0.5969334108996414  0.6951958912206349  0.3270298115872441  1.0000
  C   C4        1.0  0.5354352894907441  0.7343398332470128  0.2441214466471957  1.0000
  C   C5        1.0  0.46233162295789715  0.7138142007436755  0.2869469513759859  1.0000
  C   C6        1.0  0.44990552387525695  0.653720342609992  0.4138072649486977  1.0000
  C   C7        1.0  0.5122609463276326  0.6145800113395072  0.4966991316420928  1.0000
  C   C8        1.0  0.3722393139494895  0.6319580774262339  0.45948838622633725  1.0000
  C   C9        1.0  0.35327953191071804  0.662156386015393  0.5866521559831759  1.0000
  C   C10       1.0  0.28014568120994  0.6416769149687399  0.6295184021093367  1.0000
  C   C11       1.0  0.22502990457587224  0.5907169269205028  0.5460577844161325  1.0000
  C   C12       1.0  0.14976226718569852  0.5696238431574188  0.5903226365570162  1.0000
  N   N2        1.0  0.08925241723010381  0.5526664224141211  0.6259085324273936  1.0000
  C   C13       1.0  0.24329903410258824  0.5603311460554299  0.41943627799328004  1.0000
  C   C14       1.0  0.3163799934864012  0.5808270030196552  0.3763142010705336  1.0000
  H   H1        1.0  0.6533229246600344  0.7116499863788641  0.29265514572160334  1.0000
  H   H2        1.0  0.544417073605087  0.7810667622751641  0.14651938222111172  1.0000
  H   H3        1.0  0.4155394249871845  0.7467094316912457  0.2214808415227123  1.0000
  H   H4        1.0  0.503985265605555  0.5663150287252712  0.5941708367241454  1.0000
  H   H5        1.0  0.3947375968325465  0.7034422923215463  0.6523856526781693  1.0000
  H   H6        1.0  0.26656337036653155  0.6659423258964963  0.7276231257182557  1.0000
  H   H7        1.0  0.20111697404037832  0.5204522878591415  0.3541211537430926  1.0000
  H   H8        1.0  0.32944238856951136  0.5548567856421889  0.2785062697081666  1.0000
  C   C15       1.0  0.896680997962565  0.13372403560373058  0.6149897298558706  1.0000
  C   C16       1.0  0.869904525315567  0.21733656468987592  0.5033259590028893  1.0000
  C   C17       1.0  0.8374007860787975  0.1521145358128757  0.3983486063942634  1.0000
  C   C18       1.0  0.8311786468072844  0.0021582267417623547  0.4028731309728802  1.0000
  C   C19       1.0  0.8583350805653295  0.9170054360696083  0.5122334070510821  1.0000
  C   C20       1.0  0.8924469360004487  0.9805422093736016  0.6182251907596499  1.0000
  S   S1        1.0  0.7885055397557833  0.9188876276367242  0.26848779671268885  1.0000
  C   C21       1.0  0.8749431199196592  0.9006495359145004  0.1906620016651921  1.0000
  N   N3        1.0  0.9316241016399419  0.8887050158943287  0.13966738690438474  1.0000
  H   H9        1.0  0.9777448080232891  0.3983653974062184  0.7813016891875335  1.0000
  H   H10       1.0  0.8724605815008131  0.33419479650127215  0.4984079309944263  1.0000
  H   H11       1.0  0.8164971656619789  0.21856607151498952  0.31380622775520517  1.0000
  H   H12       1.0  0.8544826002131225  0.8005033072536526  0.5129124569304058  1.0000
  H   H13       1.0  0.01669216102129534  0.853264540698755  0.8606598690936811  1.0000
  C   C22       1.0  0.8946362837984438  0.5571013052773444  0.2352225946331572  1.0000
  C   C23       1.0  0.9679587050534367  0.49785245009220697  0.24129323017171522  1.0000
  C   C24       1.0  0.0051279179565431035  0.4681773236108395  0.1271174214359687  1.0000
  C   C25       1.0  0.9677825948260098  0.4979171700482594  0.005995020086756008  1.0000
  C   C26       1.0  0.894491618179047  0.5571648765946191  0.9979923253348466  1.0000
  C   C27       1.0  0.8583720122990217  0.5865071590682573  0.11315787041908587  1.0000
  C   C28       1.0  0.08435230693053364  0.40380972632184187  0.1335017788368924  1.0000
  C   C29       1.0  0.08671449717794966  0.24823549907135  0.20010417437698025  1.0000
  C   C30       1.0  0.16406617638282928  0.20362604386338967  0.26301714837463885  1.0000
  C   C31       1.0  0.22832899987695623  0.2792122661062406  0.19125760441825546  1.0000
  C   C32       1.0  0.2217055417767524  0.44514197099946223  0.19311559889553087  1.0000
  C   C33       1.0  0.14002768319881786  0.5020689816427655  0.200112090610054  1.0000
  H   H14       1.0  0.7561045905135474  0.668369235178117  0.4311114942554522  1.0000
  H   H15       1.0  0.9962144880534677  0.4741368123879503  0.33500711877119005  1.0000
  H   H16       1.0  0.9960239360401211  0.47477584882393525  0.9177611502336029  1.0000
  H   H17       1.0  0.8018409299069159  0.6322007264799114  0.10768720703177735  1.0000
  H   H18       1.0  0.8661865789006422  0.5795531190520717  0.6674524242291695  1.0000
  H   H19       1.0  0.10390259567169169  0.39620749752757556  0.032292453874092075  1.0000
  H   H20       1.0  0.07185822899698358  0.1716590106808049  0.12573410368785498  1.0000
  H   H21       1.0  0.04416550374966999  0.23582524280050962  0.27694817494913826  1.0000
  H   H22       1.0  0.16585901083601295  0.23188251134926974  0.366179223913343  1.0000
  H   H23       1.0  0.17220592707372884  0.08449943631265278  0.2631838887074227  1.0000
  H   H24       1.0  0.227428285572709  0.2488448514758992  0.08871715798735691  1.0000
  H   H25       1.0  0.2830272038687929  0.24071210328422632  0.23694203151963733  1.0000
  H   H26       1.0  0.2475045760693637  0.4949450316531987  0.10396578267127145  1.0000
  H   H27       1.0  0.2544755579601363  0.4803646354153801  0.27815112569525735  1.0000
  H   H28       1.0  0.1258628120039964  0.5076361414452115  0.30414795311140974  1.0000
  H   H29       1.0  0.13566994295993373  0.6137631570819144  0.1529275626869191  1.0000
  Zn  Zn1       1.0  0.8122361400377357  0.5590259645082516  0.61267389311058  1.0000
  Zn  Zn2       1.0  0.9768845946664547  0.5552397329802823  0.6205401276968674  1.0000
  C   C34       1.0  0.8945460247920497  0.5514088606083409  0.8537905221488079  1.0000
  C   C35       1.0  0.894576498747634  0.5628586148217458  0.3794237189805185  1.0000
  C   C36       1.0  0.8932443707041569  0.8204751903877258  0.6124380820049016  1.0000
  C   C37       1.0  0.8958781053009717  0.29379055401506804  0.6207762190629282  1.0000
  O   O1        1.0  0.9570396962491872  0.5633476749796074  0.43080410460112833  1.0000
  O   O2        1.0  0.9570472001573351  0.5480450505606587  0.80838004854922  1.0000
  O   O3        1.0  0.9559952554597848  0.7653195341478043  0.613486211010251  1.0000
  O   O4        1.0  0.9580915847302671  0.34607320299078803  0.6256978421165464  1.0000
  O   O5        1.0  0.8310290937874796  0.7681924957913697  0.6075161759997154  1.0000
  O   O6        1.0  0.8320810298331421  0.550919744525141  0.8024099509089953  1.0000
  O   O7        1.0  0.8320735265222893  0.566222318567304  0.4248324453052332  1.0000
  O   O8        1.0  0.833125415033396  0.34894783627378256  0.6197262801530168  1.0000
