data_image0
_chemical_formula_structural       NC5NC4H6C6ClH5C6BrH2Zn2C4O8
_chemical_formula_sum              "N2 C25 H13 Cl1 Br1 Zn2 O8"
_cell_length_a       13.854160002989762
_cell_length_b       9.276545438789551
_cell_length_c       9.2754281938718
_cell_angle_alpha    86.19890630967393
_cell_angle_beta     89.94092944837037
_cell_angle_gamma    89.40960627284836

_space_group_name_H-M_alt    "P 1"
_space_group_IT_number       1

loop_
  _space_group_symop_operation_xyz
  'x, y, z'

loop_
  _atom_site_type_symbol
  _atom_site_label
  _atom_site_symmetry_multiplicity
  _atom_site_fract_x
  _atom_site_fract_y
  _atom_site_fract_z
  _atom_site_occupancy
  N   N1        1.0  0.899233677187833  0.5612169570976171  0.4114534833272039  1.0000
  C   C1        1.0  0.8267721236642929  0.5857986234841119  0.3524454914817159  1.0000
  C   C2        1.0  0.7366289298572685  0.6163788762140014  0.2790372900628566  1.0000
  C   C3        1.0  0.6492063809823387  0.5876609721139023  0.35071454550770587  1.0000
  C   C4        1.0  0.5614865174048469  0.6163788902952878  0.27903726690795927  1.0000
  C   C5        1.0  0.47166398324629943  0.5857984771625093  0.35244558298007167  1.0000
  N   N2        1.0  0.3994601070281163  0.5612168936113984  0.4114534832030339  1.0000
  C   C6        1.0  0.5612176393055089  0.6744211923943595  0.1357020786271892  1.0000
  C   C7        1.0  0.6485927014299917  0.7052877311131236  0.06392269628129554  1.0000
  C   C8        1.0  0.648298279131274  0.7634493987643582  0.909103222593261  1.0000
  C   C9        1.0  0.7362947284192093  0.6744211901127677  0.13570198838409353  1.0000
  H   H1        1.0  0.6494405597219377  0.5426260858420502  0.46165328356535884  1.0000
  H   H2        1.0  0.4932368385595503  0.6956140543104326  0.08008752071177017  1.0000
  H   H3        1.0  0.7127004826099562  0.8313455156691011  0.8853663523315193  1.0000
  H   H4        1.0  0.5829920048886698  0.8313455182351959  0.8853664173915717  1.0000
  H   H5        1.0  0.6489774174596261  0.6721834993370506  0.8375239958017552  1.0000
  H   H6        1.0  0.8040597969307505  0.6956141658682957  0.08008743538591823  1.0000
  C   C10       1.0  0.1522648101796706  0.13777926022194031  0.4112159603296221  1.0000
  C   C11       1.0  0.15272244418960246  0.22002066138114243  0.2782133138234124  1.0000
  C   C12       1.0  0.14439654152251896  0.15356189413190258  0.14810549289757868  1.0000
  C   C13       1.0  0.13541510031702897  0.003980221820221171  0.14899864157317744  1.0000
  C   C14       1.0  0.13644833532874467  0.9201745233317266  0.27956002294411086  1.0000
  C   C15       1.0  0.1464383071704003  0.9846436576054047  0.41170350989644244  1.0000
  Cl  Cl1       1.0  0.14376281005093708  0.25843920820437233  0.983596200252387  1.0000
  H   H7        1.0  0.20147336204830313  0.4031401234062993  0.6377671184131761  1.0000
  H   H8        1.0  0.1572472145400865  0.33671097987705556  0.27536035620884713  1.0000
  H   H9        1.0  0.12855155765840687  0.9521914553978587  0.04833946233474328  1.0000
  H   H10       1.0  0.13173127768900228  0.8038859664727164  0.27691028442432586  1.0000
  H   H11       1.0  0.11391989192201897  0.6883784293784443  0.6447144221454946  1.0000
  C   C16       1.0  0.14967396028087965  0.5567251726610174  0.9883034542891947  1.0000
  C   C17       1.0  0.23857003163754975  0.5594096308718131  0.06135032781429683  1.0000
  C   C18       1.0  0.3250692214336881  0.5752529012553058  0.9848227160936851  1.0000
  C   C19       1.0  0.324034294096359  0.5888318931752501  0.8342732903393868  1.0000
  C   C20       1.0  0.23683934099677123  0.5840671663988581  0.7597180726273058  1.0000
  C   C21       1.0  0.1490291595013491  0.5656977170627784  0.8346160087991734  1.0000
  Br  Br1       1.0  0.444708078746086  0.5807654331816394  0.08638982637590908  1.0000
  H   H12       1.0  0.9169743336216348  0.6281753450490866  0.08690993013490854  1.0000
  H   H13       1.0  0.3909619290591893  0.6017176814364447  0.7747008430738087  1.0000
  Zn  Zn1       1.0  0.04358824512105695  0.561213166578359  0.41146181142756255  1.0000
  Zn  Zn2       1.0  0.25510561243573004  0.5612090099636116  0.4114569827468102  1.0000
  C   C22       1.0  0.14918838715942995  0.5582573166250728  0.6746415020563925  1.0000
  C   C23       1.0  0.1495077675351515  0.5641666807466819  0.14827743454586506  1.0000
  C   C24       1.0  0.14753902832470642  0.8245073481271612  0.4058691163050474  1.0000
  C   C25       1.0  0.15115706605449628  0.29791491764094746  0.4170498961267563  1.0000
  O   O1        1.0  0.22972177357634616  0.5666562506962515  0.2019643276196312  1.0000
  O   O2        1.0  0.22951117653155936  0.5557634997076244  0.6209505286903261  1.0000
  O   O3        1.0  0.2281782151974341  0.7707637832433624  0.40391492647474614  1.0000
  O   O4        1.0  0.23105466274527442  0.3516559763314828  0.41899982179859147  1.0000
  O   O5        1.0  0.06763912263101109  0.7707662002133957  0.4039189723698499  1.0000
  O   O6        1.0  0.06897207210001266  0.5557676482842109  0.6209544987499527  1.0000
  O   O7        1.0  0.06918267087473318  0.5666603306570153  0.20196656516382755  1.0000
  O   O8        1.0  0.07051556002835646  0.3516600471241851  0.4190021673734772  1.0000
