data_image0
_chemical_formula_structural       NC10NC3NH7C12NCOCH13C13NH9Zn2C4O8
_chemical_formula_sum              "N5 C44 H29 O9 Zn2"
_cell_length_a       19.210446455230148
_cell_length_b       10.299155265289647
_cell_length_c       10.298528502251457
_cell_angle_alpha    85.52481818200187
_cell_angle_beta     89.98780616926322
_cell_angle_gamma    89.9251083167036

_space_group_name_H-M_alt    "P 1"
_space_group_IT_number       1

loop_
  _space_group_symop_operation_xyz
  'x, y, z'

loop_
  _atom_site_type_symbol
  _atom_site_label
  _atom_site_symmetry_multiplicity
  _atom_site_fract_x
  _atom_site_fract_y
  _atom_site_fract_z
  _atom_site_occupancy
  N   N1        1.0  0.6552124573349648  0.4207800293338455  0.5667910197912103  1.0000
  C   C1        1.0  0.5949832728188441  0.42298759299039057  0.567021646231928  1.0000
  C   C2        1.0  0.5201780457542562  0.4257245677542409  0.5673073630971384  1.0000
  C   C3        1.0  0.48453363559951684  0.5419565613192556  0.5823920310425408  1.0000
  C   C4        1.0  0.4118681125478192  0.5421081262250016  0.5823393895571849  1.0000
  C   C5        1.0  0.3750110864986678  0.4264335456930335  0.5673936801596389  1.0000
  C   C6        1.0  0.2976893504202414  0.42507704334760393  0.5672434077580633  1.0000
  C   C7        1.0  0.2599055278072683  0.5286763488669137  0.5038481659460665  1.0000
  C   C8        1.0  0.187127578630147  0.5272740738541919  0.503739427713616  1.0000
  C   C9        1.0  0.1511319668105748  0.4225300365359246  0.566974864173087  1.0000
  C   C10       1.0  0.07620282418118171  0.42122792653308494  0.5668383431783173  1.0000
  N   N2        1.0  0.015965275325793695  0.4201809858669683  0.5667286151896445  1.0000
  C   C11       1.0  0.1881920956968057  0.3190564398975475  0.630345063191307  1.0000
  C   C12       1.0  0.2609719728993682  0.32018441271900056  0.6305041216649141  1.0000
  C   C13       1.0  0.41326483054372964  0.312021812816379  0.5525967582732279  1.0000
  N   N3        1.0  0.4840340691361588  0.314466873009265  0.5527617320692708  1.0000
  H   H1        1.0  0.5126086422950102  0.6313911453978989  0.5944196373238941  1.0000
  H   H2        1.0  0.3845731279661865  0.6321241100078223  0.5957617427535751  1.0000
  H   H3        1.0  0.2866092843275915  0.6099527794805226  0.45283113829292776  1.0000
  H   H4        1.0  0.1589578801361281  0.6077222736925361  0.45405316037020377  1.0000
  H   H5        1.0  0.1608487422445942  0.2376448219185563  0.6799320738480252  1.0000
  H   H6        1.0  0.288496761315695  0.2398548903675359  0.6816282592312273  1.0000
  H   H7        1.0  0.38702587176466263  0.22114287380153552  0.5391283674199092  1.0000
  C   C14       1.0  0.8356699355004922  0.03908286240557035  0.5668785249902537  1.0000
  C   C15       1.0  0.8237826448133267  0.04886014390220117  0.4319390886053602  1.0000
  C   C16       1.0  0.8176881245953915  0.9366799104501453  0.3634042252942164  1.0000
  C   C17       1.0  0.8236162132514299  0.8136007817371896  0.4316312953832553  1.0000
  C   C18       1.0  0.8355144717268284  0.8018682134748809  0.566652330297226  1.0000
  C   C19       1.0  0.8414711796070871  0.9151269615370938  0.6334446986357045  1.0000
  C   C20       1.0  0.8051136657200858  0.9479967615754807  0.22065459530032516  1.0000
  C   C21       1.0  0.8404178732638011  0.04208371448024928  0.139221052018633  1.0000
  C   C22       1.0  0.8285902066823561  0.05260273024663187  0.00488413707947988  1.0000
  C   C23       1.0  0.7816546691270261  0.9683620760329628  0.9491349572943761  1.0000
  C   C24       1.0  0.7455001861923971  0.8760928495520889  0.030500479965916975  1.0000
  C   C25       1.0  0.7573532066461531  0.8653177881620805  0.1648000505417062  1.0000
  N   N4        1.0  0.767586982484605  0.9786849965705385  0.8115597103186851  1.0000
  C   C26       1.0  0.8184163210485107  0.015578923825985353  0.7133213201587236  1.0000
  O   O1        1.0  0.8822746084838898  0.01799534474157216  0.7411720566397957  1.0000
  C   C27       1.0  0.7962130823833271  0.042121512387748535  0.5747685294947149  1.0000
  H   H8        1.0  0.8402639028466121  0.36279825515695396  0.6187763054669231  1.0000
  H   H9        1.0  0.8182766167392633  0.14393643420582625  0.3801241421483663  1.0000
  H   H10       1.0  0.8198730660050219  0.7268303148540162  0.3789971339496101  1.0000
  H   H11       1.0  0.850642438698476  0.9068706711924844  0.737525859915592  1.0000
  H   H12       1.0  0.8583886347489945  0.5724396510464663  0.8213665645912707  1.0000
  H   H13       1.0  0.8775871787446037  0.10705329806499898  0.17931178706181924  1.0000
  H   H14       1.0  0.8552961696572525  0.1280393796620738  0.9452918832308614  1.0000
  H   H15       1.0  0.708264100352749  0.8118277961748369  0.9895426157636598  1.0000
  H   H16       1.0  0.7284104755117181  0.7935008464291501  0.22522573938980067  1.0000
  H   H17       1.0  0.7185596084358445  0.9499110510451138  0.7804909927652476  1.0000
  H   H18       1.0  0.745965382379924  0.0956525105043029  0.5703230432951392  1.0000
  H   H19       1.0  0.7897729227053693  0.9485418204562497  0.5295401099338686  1.0000
  H   H20       1.0  0.83584174845283  0.10217055925344698  0.5193596912194636  1.0000
  C   C28       1.0  0.8356020609778007  0.4206019876689857  0.18534852131741306  1.0000
  C   C29       1.0  0.7632310991466837  0.44058557597616116  0.1828650545143624  1.0000
  C   C30       1.0  0.7265673588720825  0.4505711670427479  0.06446021156796222  1.0000
  C   C31       1.0  0.7632103737517504  0.44032073135713623  0.9476054330323075  1.0000
  C   C32       1.0  0.8355823238608692  0.4203490219343311  0.9481823191987949  1.0000
  C   C33       1.0  0.8713147477618356  0.410614776609511  0.06752073996798957  1.0000
  C   C34       1.0  0.6500566971124997  0.4716921158314018  0.0628423610820934  1.0000
  C   C35       1.0  0.6193048491544647  0.5596807440559013  0.1437376514833144  1.0000
  C   C36       1.0  0.5472854513131818  0.5795148476670486  0.1420953042747406  1.0000
  C   C37       1.0  0.5050595855812847  0.5117213834380554  0.05977368020090123  1.0000
  C   C38       1.0  0.5351243562294619  0.423970247945447  0.9789824458270138  1.0000
  C   C39       1.0  0.6071363428815502  0.40404178501958476  0.9803882120702502  1.0000
  C   C40       1.0  0.4309155299249294  0.532191312272692  0.058203531284036325  1.0000
  N   N5        1.0  0.3713087087952964  0.548647877732463  0.056941272422474924  1.0000
  H   H21       1.0  0.972297298905353  0.38203253071300103  0.3974288830742336  1.0000
  H   H22       1.0  0.735117497989014  0.44664052738212373  0.27338375906019907  1.0000
  H   H23       1.0  0.7353579309876251  0.4497148863737239  0.8559035145092575  1.0000
  H   H24       1.0  0.9270924460067022  0.3952177519656824  0.06869991537184861  1.0000
  H   H25       1.0  0.9724058503540873  0.383422256247248  0.7418842311662321  1.0000
  H   H26       1.0  0.6510453913178756  0.6144003799216713  0.20701894074441315  1.0000
  H   H27       1.0  0.5245786175084871  0.6479479292650574  0.2047859931809557  1.0000
  H   H28       1.0  0.502902400474371  0.3707016803422072  0.915129081061698  1.0000
  H   H29       1.0  0.6291599497522086  0.3344795663060127  0.9182447565921098  1.0000
  Zn  Zn1       1.0  0.7593179275898677  0.42060369152808175  0.5667805122094951  1.0000
  Zn  Zn2       1.0  0.9118597910129889  0.4203467368008709  0.5667497630253562  1.0000
  C   C41       1.0  0.835585554233109  0.41522279801545997  0.8039919561130197  1.0000
  C   C42       1.0  0.83559382978481  0.4257292662083352  0.32953844578262953  1.0000
  C   C43       1.0  0.8355403893629971  0.6576872395194366  0.56151927625844  1.0000
  C   C44       1.0  0.8356389429193327  0.18326326434893403  0.5720111953577383  1.0000
  O   O2        1.0  0.8934799106667229  0.4273468485762436  0.37791823414936965  1.0000
  O   O3        1.0  0.8934752183202852  0.41340921328277636  0.7555884562244459  1.0000
  O   O4        1.0  0.8934379667122544  0.6092023170453322  0.5597900514643084  1.0000
  O   O5        1.0  0.8935171102231753  0.23155375422458202  0.5737165415303209  1.0000
  O   O6        1.0  0.7776605563246298  0.6093966741934731  0.5598137337081912  1.0000
  O   O7        1.0  0.7776978076131982  0.4136051308754448  0.755612068751461  1.0000
  O   O8        1.0  0.7777025000555652  0.42754272142723876  0.37794028509259014  1.0000
  O   O9        1.0  0.7777396996085445  0.231749617753785  0.573738689856389  1.0000
