data_image0
_chemical_formula_structural       NC8NC6H8C6SCNH5C7F3H5Zn2C4O8
_chemical_formula_sum              "N3 C32 H18 S1 F3 Zn2 O8"
_cell_length_a       17.457602349358154
_cell_length_b       10.302215558581764
_cell_length_c       9.272721663655245
_cell_angle_alpha    85.88255001393937
_cell_angle_beta     93.38388695232669
_cell_angle_gamma    91.70712283406877

_space_group_name_H-M_alt    "P 1"
_space_group_IT_number       1

loop_
  _space_group_symop_operation_xyz
  'x, y, z'

loop_
  _atom_site_type_symbol
  _atom_site_label
  _atom_site_symmetry_multiplicity
  _atom_site_fract_x
  _atom_site_fract_y
  _atom_site_fract_z
  _atom_site_occupancy
  N   N1        1.0  0.7154006453599168  0.4445651458632254  0.47451140476054104  1.0000
  C   C1        1.0  0.6542569637315749  0.39859032791721005  0.46271299422098044  1.0000
  C   C2        1.0  0.5781916927213013  0.3414034222530862  0.4480463715991259  1.0000
  C   C3        1.0  0.5200700396038502  0.3819862353388692  0.5312489721377889  1.0000
  C   C4        1.0  0.44544654864370975  0.3269205983732768  0.517265166611715  1.0000
  C   C5        1.0  0.3837580005484399  0.3697714447823879  0.605379858436963  1.0000
  C   C6        1.0  0.30891802827164117  0.38791433220150084  0.5434397965972699  1.0000
  C   C7        1.0  0.2507969104293753  0.4283138870482497  0.6267622875883145  1.0000
  C   C8        1.0  0.1745071041674402  0.4470497269620135  0.562361355218999  1.0000
  N   N2        1.0  0.11318301596573807  0.4621069650206011  0.5105831724950249  1.0000
  C   C9        1.0  0.2670263593992511  0.4508165614337684  0.7725897401699686  1.0000
  C   C10       1.0  0.3410837700930347  0.4330647938576433  0.8349604034979183  1.0000
  C   C11       1.0  0.39919575705313515  0.39284788227681133  0.7521463785264562  1.0000
  C   C12       1.0  0.43022558873315186  0.23058665250706925  0.4184869662109323  1.0000
  C   C13       1.0  0.48833771009174887  0.19028475155028546  0.3357287316828288  1.0000
  C   C14       1.0  0.5621793870959141  0.245465900729845  0.3503234421034671  1.0000
  H   H1        1.0  0.5327840461977508  0.45754519232788216  0.6052734051205781  1.0000
  H   H2        1.0  0.29602661735408015  0.37236069596808585  0.43010798636784764  1.0000
  H   H3        1.0  0.22248495344123453  0.482030180833627  0.8379494113142452  1.0000
  H   H4        1.0  0.35345979416559525  0.450173552995919  0.9478778084021713  1.0000
  H   H5        1.0  0.4559239408902415  0.3781251431347658  0.8033597738029219  1.0000
  H   H6        1.0  0.3736751109715676  0.18520114739028903  0.40664851843528127  1.0000
  H   H7        1.0  0.476131354539892  0.11583508110649256  0.2603733471724268  1.0000
  H   H8        1.0  0.6067233849997573  0.2133857421829113  0.28553141272704075  1.0000
  C   C15       1.0  0.9142190702738475  0.07206042152458547  0.49250099151713117  1.0000
  C   C16       1.0  0.9913617430133151  0.07161828421538186  0.5448693943388914  1.0000
  C   C17       1.0  0.02975344101328048  0.9543599326602585  0.5713863504748304  1.0000
  C   C18       1.0  0.9915618323836817  0.8364525116631829  0.545009634373739  1.0000
  C   C19       1.0  0.9143719584333999  0.8346020267729292  0.4926066849498975  1.0000
  C   C20       1.0  0.8761161188752343  0.9529439373045784  0.4666952064569052  1.0000
  S   S1        1.0  0.12830808738381455  0.9553151687577932  0.637650060602643  1.0000
  C   C21       1.0  0.10387165694729393  0.9423314487348656  0.820211745346656  1.0000
  N   N3        1.0  0.08782805609373083  0.9338188692039003  0.9398944208907425  1.0000
  H   H9        1.0  0.8848651150800283  0.39956833738668013  0.47250154729557914  1.0000
  H   H10       1.0  0.021921918419522957  0.16202900799561237  0.5655330922347976  1.0000
  H   H11       1.0  0.02225916105119176  0.7465879509531643  0.5657695337846  1.0000
  H   H12       1.0  0.8166206393271109  0.952435373061395  0.4263268313122368  1.0000
  H   H13       1.0  0.7689013143638612  0.6239071026738359  0.3936869453895233  1.0000
  C   C22       1.0  0.9122642683704698  0.45113580821647914  0.06892618038533094  1.0000
  C   C23       1.0  0.944910244814682  0.34637725322593593  0.15459613199399969  1.0000
  C   C24       1.0  0.9842851696120456  0.2496383501497499  0.09224986639472599  1.0000
  C   C25       1.0  0.9886620831942803  0.2558101695190933  0.9414976759003664  1.0000
  C   C26       1.0  0.9555606697616532  0.35784543621516396  0.8548177966288155  1.0000
  C   C27       1.0  0.9163268036124672  0.4555266912043488  0.9161815153336175  1.0000
  C   C28       1.0  0.017111019399568494  0.13630104671975518  0.1855601116550336  1.0000
  F   F1        1.0  0.042967485313783804  0.17517646835242173  0.32014232810103027  1.0000
  F   F2        1.0  0.07828313528254906  0.08529491248461006  0.12198094611946919  1.0000
  F   F3        1.0  0.9607411994411589  0.04035921952578914  0.20347282250942467  1.0000
  H   H14       1.0  0.8636727992643928  0.7581687277194407  0.14077644133432266  1.0000
  H   H15       1.0  0.9410767705408566  0.34159552844908436  0.2710935820147691  1.0000
  H   H16       1.0  0.017016684478857288  0.18079052565577003  0.8901518838643153  1.0000
  H   H17       1.0  0.9588498058785226  0.3584057362681734  0.7384614952125599  1.0000
  H   H18       1.0  0.7786299601607434  0.6684425992848644  0.7824304015693704  1.0000
  Zn  Zn1       1.0  0.8301920842172487  0.4496238972621964  0.4849292666123903  1.0000
  Zn  Zn2       1.0  0.9983916173550718  0.457037629609673  0.5001771198646934  1.0000
  C   C29       1.0  0.9155561322091658  0.4495242124917889  0.7560312588575941  1.0000
  C   C30       1.0  0.9130294071042566  0.4571390342911288  0.22907543594349256  1.0000
  C   C31       1.0  0.9143115649267816  0.6904354901482237  0.48683775801222207  1.0000
  C   C32       1.0  0.9142739170478639  0.21622619458184175  0.49826900828037135  1.0000
  O   O1        1.0  0.9771170397636321  0.461961580232612  0.28860946914930774  1.0000
  O   O2        1.0  0.9791280511415175  0.45032753622451227  0.7080695780519526  1.0000
  O   O3        1.0  0.9781221940433907  0.6448664095178172  0.4906938437121686  1.0000
  O   O4        1.0  0.9781228389498746  0.2674227131368978  0.505985090122751  1.0000
  O   O5        1.0  0.8504608052241637  0.6392388112064029  0.4791212911434006  1.0000
  O   O6        1.0  0.8514666622627857  0.4447014974373804  0.6964969487807462  1.0000
  O   O7        1.0  0.8494556426104968  0.45633548721427863  0.2770351054599336  1.0000
  O   O8        1.0  0.8504614423103422  0.2617966113924042  0.49441083458878654  1.0000
