data_image0
_chemical_formula_structural       NC12NC2H8C13OH12C12NH11Zn2C4O8
_chemical_formula_sum              "N3 C43 H31 O9 Zn2"
_cell_length_a       19.240039667572717
_cell_length_b       10.299150109392551
_cell_length_c       10.299774167527174
_cell_angle_alpha    85.55710761189597
_cell_angle_beta     89.99323073403258
_cell_angle_gamma    89.97992514300192

_space_group_name_H-M_alt    "P 1"
_space_group_IT_number       1

loop_
  _space_group_symop_operation_xyz
  'x, y, z'

loop_
  _atom_site_type_symbol
  _atom_site_label
  _atom_site_symmetry_multiplicity
  _atom_site_fract_x
  _atom_site_fract_y
  _atom_site_fract_z
  _atom_site_occupancy
  N   N1        1.0  0.6543012415726265  0.4209703470420697  0.5670532274012117  1.0000
  C   C1        1.0  0.5941528727447813  0.4209704310061717  0.5670531454406731  1.0000
  C   C2        1.0  0.5193348355903122  0.4209705482612629  0.5670530081040601  1.0000
  C   C3        1.0  0.48286666672805406  0.3565301823924896  0.6704812777066633  1.0000
  C   C4        1.0  0.41019593394557663  0.35641931744936645  0.6705678519889118  1.0000
  C   C5        1.0  0.3730026006500313  0.42097064076760926  0.5670527804025656  1.0000
  C   C6        1.0  0.4101849456943181  0.4855221511436566  0.4635379032876313  1.0000
  C   C7        1.0  0.4828556495119771  0.48541105071790486  0.46362460014118345  1.0000
  C   C8        1.0  0.2957975102311959  0.4209705620724394  0.5670526850167161  1.0000
  C   C9        1.0  0.2586282928077538  0.3077129149379087  0.608958015626965  1.0000
  C   C10       1.0  0.18595759015510369  0.30781979715317087  0.6088666598553877  1.0000
  C   C11       1.0  0.1494652233283697  0.42097043290695907  0.567052745965871  1.0000
  C   C12       1.0  0.07464718617901077  0.4209703192272377  0.5670529946521456  1.0000
  N   N2        1.0  0.014498869321376295  0.42097027846094753  0.5670532030752898  1.0000
  C   C13       1.0  0.1859203673473749  0.5341211444790481  0.5252387791635513  1.0000
  C   C14       1.0  0.2585910492732497  0.5342282067824042  0.5251472607466898  1.0000
  H   H1        1.0  0.5105857828842423  0.30663924609308074  0.7512349964152281  1.0000
  H   H2        1.0  0.383106657092613  0.30732685345974114  0.7524367705039117  1.0000
  H   H3        1.0  0.3830876917572982  0.5346146421731093  0.3816689339177727  1.0000
  H   H4        1.0  0.5105663048202188  0.5353018868268535  0.38287115724795157  1.0000
  H   H5        1.0  0.2857363156727592  0.2185594676961562  0.6401529334041284  1.0000
  H   H6        1.0  0.1582572618428497  0.21956590129648967  0.6410942085423312  1.0000
  H   H7        1.0  0.1581908722155198  0.6223750158011396  0.4930112450342886  1.0000
  H   H8        1.0  0.2856695052134386  0.623381733194092  0.49395229817451103  1.0000
  C   C15       1.0  0.834468890243937  0.03957072099673442  0.5671973174305691  1.0000
  C   C16       1.0  0.8331801585063464  0.02780600029832825  0.7040014868199316  1.0000
  C   C17       1.0  0.8324662857111381  0.9047063611582568  0.7731004227298822  1.0000
  C   C18       1.0  0.8330461789209351  0.7925505507507008  0.7036381092804189  1.0000
  C   C19       1.0  0.8343378958735215  0.8023598901813758  0.5669203347189692  1.0000
  C   C20       1.0  0.8350436143966112  0.9263306208422809  0.49949890688107335  1.0000
  C   C21       1.0  0.8310968993338853  0.8932423449996605  0.9177336044295203  1.0000
  C   C22       1.0  0.7883554117742616  0.8003817285449207  0.9857517609395378  1.0000
  C   C23       1.0  0.7870437941338262  0.7896755101013834  0.12185144037532228  1.0000
  C   C24       1.0  0.8289058133118655  0.8706719796422798  0.19239334302273559  1.0000
  C   C25       1.0  0.8709823155023234  0.9644864161036026  0.12501772741648332  1.0000
  C   C26       1.0  0.8723100665939035  0.9753684314933885  0.9889177592785167  1.0000
  C   C27       1.0  0.8260350089650615  0.8615216608510395  0.3384726098928802  1.0000
  O   O1        1.0  0.7740852140067787  0.944708682804914  0.37871134590517375  1.0000
  H   H9        1.0  0.8364498886631416  0.2690700186430557  0.3089730369756598  1.0000
  H   H10       1.0  0.8317651029835151  0.11459333861654718  0.7570075228115394  1.0000
  H   H11       1.0  0.8334394421906972  0.6974418638574255  0.7564690907025593  1.0000
  H   H12       1.0  0.8360379876596669  0.9346130664320017  0.3940443964422309  1.0000
  H   H13       1.0  0.8347879554795523  0.4786574381668067  0.5143338836738296  1.0000
  H   H14       1.0  0.7551201930166935  0.7373595422526676  0.9336455714219429  1.0000
  H   H15       1.0  0.7532311596085455  0.7183589937734247  0.1722245922748885  1.0000
  H   H16       1.0  0.9029372590099078  0.029061766806631754  0.17787008712459762  1.0000
  H   H17       1.0  0.9061459379908694  0.04713059061381596  0.9393512119607287  1.0000
  H   H18       1.0  0.8771564462088846  0.889361283564488  0.3786406810459111  1.0000
  H   H19       1.0  0.8147377923400669  0.7595101971784597  0.3762833807319204  1.0000
  H   H20       1.0  0.7743366368654041  0.935056563837402  0.4753333935275017  1.0000
  C   C28       1.0  0.8344270597131851  0.4208507995097295  0.18570676543804643  1.0000
  C   C29       1.0  0.7663663951113946  0.3715449438076419  0.18854544682768792  1.0000
  C   C30       1.0  0.7318551628252113  0.3466771034883016  0.07283596780839009  1.0000
  C   C31       1.0  0.7663186065848094  0.37177626360661636  0.953240651794479  1.0000
  C   C32       1.0  0.8343797136763353  0.42107989263098844  0.9484108268515362  1.0000
  C   C33       1.0  0.8680527047527052  0.44534156846597345  0.0651631794092964  1.0000
  C   C34       1.0  0.659850924159555  0.294514932578114  0.07689247664001031  1.0000
  C   C35       1.0  0.6403347927079719  0.19605309148582406  0.17222697621451769  1.0000
  C   C36       1.0  0.5725611656517853  0.14701358479253823  0.1759112377237975  1.0000
  C   C37       1.0  0.5232316052092437  0.19554320135808156  0.08458902186995278  1.0000
  C   C38       1.0  0.5422891634743642  0.2936148502101539  0.9894140287591071  1.0000
  C   C39       1.0  0.6100419032424163  0.3427556269619183  0.9854634503745926  1.0000
  N   N3        1.0  0.45391492384808124  0.14532754805592485  0.08849391093261906  1.0000
  H   H21       1.0  0.8603731184766339  0.43958491749703454  0.5120827180038283  1.0000
  H   H22       1.0  0.7396857050267199  0.3540403881025991  0.28083749180751855  1.0000
  H   H23       1.0  0.7402929815552184  0.35109904405978964  0.8639177499752219  1.0000
  H   H24       1.0  0.9205585249721974  0.48337787920083947  0.06220528061321984  1.0000
  H   H25       1.0  0.8603036389834342  0.43992189475813565  0.6191128180621127  1.0000
  H   H26       1.0  0.6777284916758645  0.15578163997672823  0.24289141375914047  1.0000
  H   H27       1.0  0.5585537723303489  0.07096077954996473  0.24975720686660385  1.0000
  H   H28       1.0  0.5046056046782056  0.3322208565752018  0.9184801429526838  1.0000
  H   H29       1.0  0.6232366421273164  0.4196749972877856  0.9119491845168404  1.0000
  H   H30       1.0  0.4167800401445381  0.18088685541628102  0.02081646311603503  1.0000
  H   H31       1.0  0.439218851897861  0.0722202522341382  0.1590916755811147  1.0000
  Zn  Zn1       1.0  0.7582465055461655  0.4209668620187695  0.5670607097351665  1.0000
  Zn  Zn2       1.0  0.9105536252805485  0.4209631723346754  0.5670563230197495  1.0000
  C   C40       1.0  0.8343880098605326  0.4158624674624196  0.8042453367076321  1.0000
  C   C41       1.0  0.8344137838658575  0.42606920564044304  0.32987182286508526  1.0000
  C   C42       1.0  0.8343593997344916  0.6581749848877825  0.5617977292053996  1.0000
  C   C43       1.0  0.8344423422838019  0.18375512780900902  0.5723195001710496  1.0000
  O   O2        1.0  0.8922090875272559  0.42781348399546215  0.3782532704236914  1.0000
  O   O3        1.0  0.8921902861221355  0.41411440880894373  0.7558601862598373  1.0000
  O   O4        1.0  0.8921664038313436  0.6097848315143712  0.5600820273767606  1.0000
  O   O5        1.0  0.892232917850392  0.23214307055302075  0.5740313319345292  1.0000
  O   O6        1.0  0.7765671610013773  0.6097869638030953  0.5600857008150522  1.0000
  O   O7        1.0  0.7765910430253202  0.4141181015064102  0.7558637898890637  1.0000
  O   O8        1.0  0.7766098445813363  0.4278171309644124  0.3782553127377162  1.0000
  O   O9        1.0  0.7766336748971829  0.23214670826165573  0.5740334716154589  1.0000
