data_image0
_chemical_formula_structural       NC12NC2H8C6ClH5C7ONH5Zn2C4O8
_chemical_formula_sum              "N3 C31 H18 Cl1 O9 Zn2"
_cell_length_a       19.240039667572717
_cell_length_b       10.30297070629231
_cell_length_c       9.273042158839656
_cell_angle_alpha    86.1623812568413
_cell_angle_beta     90.09323012154856
_cell_angle_gamma    89.99831201696266

_space_group_name_H-M_alt    "P 1"
_space_group_IT_number       1

loop_
  _space_group_symop_operation_xyz
  'x, y, z'

loop_
  _atom_site_type_symbol
  _atom_site_label
  _atom_site_symmetry_multiplicity
  _atom_site_fract_x
  _atom_site_fract_y
  _atom_site_fract_z
  _atom_site_occupancy
  N   N1        1.0  0.653208105950086  0.40576215736219834  0.41013683035963566  1.0000
  C   C1        1.0  0.5930597370601793  0.4057622404553718  0.4101367394250026  1.0000
  C   C2        1.0  0.5182416997976832  0.40576235626036183  0.41013658704156186  1.0000
  C   C3        1.0  0.4818589931063301  0.3424046304520725  0.5249062495162398  1.0000
  C   C4        1.0  0.4091883220628363  0.34229469422794034  0.5250022941263238  1.0000
  C   C5        1.0  0.3719094646607589  0.405762446402742  0.4101363343516369  1.0000
  C   C6        1.0  0.4090062858122492  0.4692303875491664  0.2952705904973059  1.0000
  C   C7        1.0  0.4816770514427879  0.4691202171883144  0.29536677105507003  1.0000
  C   C8        1.0  0.2947043741393355  0.4057623667637078  0.4101362284506055  1.0000
  C   C9        1.0  0.25755478456418357  0.29297780966967657  0.45660154464457714  1.0000
  C   C10       1.0  0.18488401502350868  0.29308371586703186  0.4565001914262224  1.0000
  C   C11       1.0  0.1483720872711772  0.4057622382722572  0.41013629604636037  1.0000
  C   C12       1.0  0.0735540503344076  0.4057621271793626  0.41013657201888026  1.0000
  N   N2        1.0  0.013405733664324303  0.40576208855953966  0.4101368033325077  1.0000
  C   C13       1.0  0.18480767032823797  0.5184408359249815  0.3637723419688338  1.0000
  C   C14       1.0  0.2574782852452485  0.5185469204768072  0.3636708083021247  1.0000
  H   H1        1.0  0.5096449082434599  0.2933588204705806  0.6145151608623398  1.0000
  H   H2        1.0  0.38216702266878466  0.2940584397618924  0.6158492940919549  1.0000
  H   H3        1.0  0.38184105437349664  0.5174666685245523  0.2044235340984704  1.0000
  H   H4        1.0  0.5093209080103243  0.5181659298381351  0.20575816579762662  1.0000
  H   H5        1.0  0.2846765852206746  0.2041784513715763  0.4911890276998044  1.0000
  H   H6        1.0  0.1571985832966893  0.20519410824860973  0.49223416014699684  1.0000
  H   H7        1.0  0.1570632786203159  0.6063304191673087  0.32803838939582386  1.0000
  H   H8        1.0  0.28454296336576  0.6073463574556892  0.32908327556056305  1.0000
  C   C15       1.0  0.8333102503672881  0.024514745974446146  0.4101430146091485  1.0000
  C   C16       1.0  0.905100352804594  0.021634891472051436  0.43790521792221254  1.0000
  C   C17       1.0  0.940720685446811  0.9032491396672853  0.45167998146878224  1.0000
  C   C18       1.0  0.9051003521964931  0.7865269221594421  0.43790515013498976  1.0000
  C   C19       1.0  0.8333102578494787  0.7869996885694227  0.4101430971189739  1.0000
  C   C20       1.0  0.7977651509396495  0.906587247069906  0.39639729202384943  1.0000
  Cl  Cl1       1.0  0.030403627736519168  0.9011550312505451  0.4863614885305403  1.0000
  H   H9        1.0  0.8062681755041338  0.35290264740018745  0.39968467189799134  1.0000
  H   H10       1.0  0.9336530211513194  0.11101476668344734  0.4489467971367121  1.0000
  H   H11       1.0  0.9336529935841714  0.6958135728735075  0.4489466935805247  1.0000
  H   H12       1.0  0.7423984453140567  0.9078799507075566  0.37498620189875814  1.0000
  H   H13       1.0  0.8062681723283519  0.45987468330412745  0.3996849440288194  1.0000
  C   C21       1.0  0.8329779090376573  0.40174480158036485  0.9868781246421703  1.0000
  C   C22       1.0  0.7691409492010478  0.4100120507875684  0.05955894523428307  1.0000
  C   C23       1.0  0.7065590924146138  0.4308370594011004  0.9833027969805405  1.0000
  C   C24       1.0  0.7081995225045346  0.44182669170838973  0.8318040966722855  1.0000
  C   C25       1.0  0.7708986669778807  0.43165331665268664  0.7581138455874448  1.0000
  C   C26       1.0  0.8336426349256749  0.4097695626489335  0.8334079635043676  1.0000
  C   C27       1.0  0.6401430707115089  0.4397995893725424  0.06316283107494636  1.0000
  O   O1        1.0  0.6354997526050796  0.38955913173529894  0.1905334519748083  1.0000
  N   N3        1.0  0.5810230982871538  0.5056642304230146  0.9996263831902157  1.0000
  H   H14       1.0  0.0016061952769090833  0.4513348533368487  0.08683814848893423  1.0000
  H   H15       1.0  0.6609354878306662  0.4546630984311486  0.769180973826368  1.0000
  H   H16       1.0  0.9473035530911181  0.4371472406875619  0.5504861579553677  1.0000
  H   H17       1.0  0.584370276470942  0.5617269931151765  0.9019605563127621  1.0000
  H   H18       1.0  0.5340463216551665  0.5055181076874511  0.05586885403153441  1.0000
  Zn  Zn1       1.0  0.7571533763087606  0.4057587501954541  0.4101451336408257  1.0000
  Zn  Zn2       1.0  0.9094604913130645  0.40575501713172524  0.4101402633125433  1.0000
  C   C28       1.0  0.8335154187075645  0.4030807076141841  0.6733956739258956  1.0000
  C   C29       1.0  0.8331001122143514  0.4084346991109675  0.14688986444386942  1.0000
  C   C30       1.0  0.8333021808496089  0.6428193260039913  0.4043993394675503  1.0000
  C   C31       1.0  0.8333132981608283  0.16869452164529752  0.415886275748783  1.0000
  O   O2        1.0  0.8909408811055574  0.4106728092201861  0.20058941778218678  1.0000
  O   O3        1.0  0.8912722256320514  0.40083878085227775  0.6196920092054788  1.0000
  O   O4        1.0  0.8910992553734479  0.5944307613371924  0.4024755659616399  1.0000
  O   O5        1.0  0.8911137993072007  0.21708083699932582  0.4178057529557455  1.0000
  O   O6        1.0  0.775500016339675  0.5944329303304695  0.402479643991704  1.0000
  O   O7        1.0  0.7756729865348078  0.400842508924032  0.6196960103830553  1.0000
  O   O8        1.0  0.7753416406938208  0.41067647562283094  0.20059168602850222  1.0000
  O   O9        1.0  0.7755145589774749  0.2170844951405313  0.4178081292664223  1.0000
