data_image0
_chemical_formula_structural       NC5NC4H6C6NCOH7C6ClH5Zn2C4O8
_chemical_formula_sum              "N3 C26 H18 O9 Cl1 Zn2"
_cell_length_a       13.854160002989762
_cell_length_b       9.273730183620392
_cell_length_c       10.302974078461048
_cell_angle_alpha    85.70652844495697
_cell_angle_beta     89.99987288003342
_cell_angle_gamma    90.59425878659923

_space_group_name_H-M_alt    "P 1"
_space_group_IT_number       1

loop_
  _space_group_symop_operation_xyz
  'x, y, z'

loop_
  _atom_site_type_symbol
  _atom_site_label
  _atom_site_symmetry_multiplicity
  _atom_site_fract_x
  _atom_site_fract_y
  _atom_site_fract_z
  _atom_site_occupancy
  N   N1        1.0  0.9198686201405509  0.5783026725927274  0.5716017864394096  1.0000
  C   C1        1.0  0.8477110555030185  0.6035138370499217  0.5184833185930628  1.0000
  C   C2        1.0  0.7579460316131722  0.6348772094412773  0.45240191005373487  1.0000
  C   C3        1.0  0.6701700287718813  0.6053948279047641  0.516927163047745  1.0000
  C   C4        1.0  0.582803619341436  0.6348772237702662  0.45240188921777863  1.0000
  C   C5        1.0  0.49260291311576077  0.6035136897354821  0.5184834007669241  1.0000
  N   N2        1.0  0.42009504910191037  0.5783026090980086  0.5716017862148071  1.0000
  C   C6        1.0  0.5832500568321053  0.6944483696326176  0.32336986853047556  1.0000
  C   C7        1.0  0.6710082539192649  0.7260808009350765  0.25875642165046164  1.0000
  C   C8        1.0  0.671423735153511  0.785893105568807  0.11937806631921323  1.0000
  C   C9        1.0  0.7583271458587096  0.6944483683075748  0.32336978722363807  1.0000
  H   H1        1.0  0.6698490268419602  0.5591766281339801  0.6167953210578432  1.0000
  H   H2        1.0  0.5155284207652584  0.7162342230084074  0.27330263229042284  1.0000
  H   H3        1.0  0.7367512315895925  0.8540514172347584  0.09811335335638849  1.0000
  H   H4        1.0  0.6070427539438502  0.8540514191113786  0.09811341197555157  1.0000
  H   H5        1.0  0.670795436897691  0.6953720915194643  0.05472807201319374  1.0000
  H   H6        1.0  0.8263513806282805  0.7162343354882816  0.27330255561582995  1.0000
  C   C10       1.0  0.1670379058369713  0.15480201988690445  0.5706358853699391  1.0000
  C   C11       1.0  0.1811928220326912  0.2382892944148882  0.45229026394538857  1.0000
  C   C12       1.0  0.2027697203873743  0.1734818524445971  0.3374115485198521  1.0000
  C   C13       1.0  0.21325188118798374  0.02302648723799594  0.3417718658382971  1.0000
  C   C14       1.0  0.19801458637138358  0.9383693712174306  0.45778244561071674  1.0000
  C   C15       1.0  0.172934954457868  0.0017921975824770626  0.5725789611887826  1.0000
  N   N3        1.0  0.21908537329159272  0.2632589214220431  0.21932641198165737  1.0000
  C   C16       1.0  0.19497502710716255  0.2223041377442725  0.09178710900713383  1.0000
  O   O1        1.0  0.14535683210015216  0.1104026705915766  0.0760214295771835  1.0000
  H   H7        1.0  0.18216807887168038  0.23143149061501012  0.8896733165601776  1.0000
  H   H8        1.0  0.17689850058791154  0.3551159010175051  0.44942694240636705  1.0000
  H   H9        1.0  0.23419759705338583  0.9705324765312721  0.2559750079187382  1.0000
  H   H10       1.0  0.2042257050428362  0.8220778627061504  0.45707045735735724  1.0000
  H   H11       1.0  0.17898582882533853  0.7029742611590827  0.787251495709629  1.0000
  H   H12       1.0  0.24414756198209495  0.3690323513490589  0.22645735721206542  1.0000
  H   H13       1.0  0.2173931594379519  0.2909181558048286  0.007389493837832495  1.0000
  C   C17       1.0  0.16998642616646736  0.5782971070171761  0.1903649099987621  1.0000
  C   C18       1.0  0.15215368820692093  0.4285101689627849  0.19925495944994934  1.0000
  C   C19       1.0  0.14330561948048692  0.35418997005000197  0.08670916830644648  1.0000
  C   C20       1.0  0.15215373194349602  0.42851025040957896  0.9641470606656887  1.0000
  C   C21       1.0  0.16998642318612717  0.578297032574407  0.9528499289014065  1.0000
  C   C22       1.0  0.17881588305639817  0.6524603844029881  0.06660984280265336  1.0000
  Cl  Cl1       1.0  0.121028296461896  0.16707050022325198  0.09931849479634348  1.0000
  H   H14       1.0  0.17670426732224667  0.6347192612622296  0.5143191209011135  1.0000
  H   H15       1.0  0.1450612050184574  0.36893640586859755  0.29331596943300275  1.0000
  H   H16       1.0  0.14506127232429852  0.36893638529015016  0.8781150033118927  1.0000
  H   H17       1.0  0.19256898251422583  0.7679805668360384  0.05882524480418594  1.0000
  H   H18       1.0  0.1767040835647533  0.6347192485001412  0.6212914903904473  1.0000
  Zn  Zn1       1.0  0.06422314072409341  0.5782987931795169  0.5716092827507244  1.0000
  Zn  Zn2       1.0  0.2757404475279097  0.5782946871234451  0.5716049250624338  1.0000
  C   C23       1.0  0.16994425705385696  0.5725518341574743  0.8087107269758183  1.0000
  C   C24       1.0  0.1700216536295287  0.5840434657465712  0.3345036123883047  1.0000
  C   C25       1.0  0.17181529803672632  0.8416929895231287  0.5670381896747505  1.0000
  C   C26       1.0  0.16815052840712008  0.3149005777054532  0.5761762149316945  1.0000
  O   O2        1.0  0.2503031480836506  0.5859641463392424  0.3828762094801714  1.0000
  O   O3        1.0  0.250199496711796  0.5706269492060181  0.7603344462814366  1.0000
  O   O4        1.0  0.25170930389381446  0.7879618359391889  0.5651821659998275  1.0000
  O   O5        1.0  0.24879326879693336  0.36862926992403633  0.5780283924445452  1.0000
  O   O6        1.0  0.09117024727460475  0.7879642103818967  0.565185815363275  1.0000
  O   O7        1.0  0.08966045215166038  0.5706310563271602  0.7603380303972238  1.0000
  O   O8        1.0  0.08976410323785132  0.5859682032048517  0.38287823259757797  1.0000
  O   O9        1.0  0.08825422387536781  0.36863331647465186  0.578030512873849  1.0000
