data_image0
_chemical_formula_structural       NC12NC2H8C7NH5C6H6Zn2C4O8
_chemical_formula_sum              "N3 C31 H19 Zn2 O8"
_cell_length_a       19.240039667572717
_cell_length_b       9.275154477615127
_cell_length_c       10.681121600428288
_cell_angle_alpha    85.78691594316618
_cell_angle_beta     89.99986269578453
_cell_angle_gamma    89.43370810513201

_space_group_name_H-M_alt    "P 1"
_space_group_IT_number       1

loop_
  _space_group_symop_operation_xyz
  'x, y, z'

loop_
  _atom_site_type_symbol
  _atom_site_label
  _atom_site_symmetry_multiplicity
  _atom_site_fract_x
  _atom_site_fract_y
  _atom_site_fract_z
  _atom_site_occupancy
  N   N1        1.0  0.6469609572136235  0.5778876991338693  0.6240999918787511  1.0000
  C   C1        1.0  0.5868125879522187  0.5778877923691992  0.6240999131923224  1.0000
  C   C2        1.0  0.5119945501908331  0.5778879225791016  0.6240997812443534  1.0000
  C   C3        1.0  0.475861703180924  0.506318610218995  0.7235692298060217  1.0000
  C   C4        1.0  0.40319154148863945  0.5061955109001932  0.7236522533400378  1.0000
  C   C5        1.0  0.3656623147641513  0.5778880253457037  0.6240995620528256  1.0000
  C   C6        1.0  0.4025087654375609  0.6495807473780539  0.5245470590768371  1.0000
  C   C7        1.0  0.4751800415545398  0.649457386610643  0.5246301998280796  1.0000
  C   C8        1.0  0.2884572247407248  0.5778879380184977  0.6240994697428301  1.0000
  C   C9        1.0  0.25186846529930007  0.4521473838316006  0.6640379543554029  1.0000
  C   C10       1.0  0.17919721157085158  0.45226606354368737  0.6639503033602248  1.0000
  C   C11       1.0  0.14212493850072216  0.5778877946124119  0.6240995279793837  1.0000
  C   C12       1.0  0.0673069019471159  0.577887668334388  0.6240997673187552  1.0000
  N   N2        1.0  0.007158585310700403  0.577887623010515  0.6240999681352559  1.0000
  C   C13       1.0  0.1780001758861749  0.7035096098641835  0.5842487018894591  1.0000
  C   C14       1.0  0.25067030580717803  0.7036284895451204  0.5841608948023265  1.0000
  H   H1        1.0  0.5038404748500596  0.4509080843564875  0.8012337766469402  1.0000
  H   H2        1.0  0.37635791753889297  0.4516709922713738  0.8023955324816635  1.0000
  H   H3        1.0  0.3751558584561455  0.704105296040564  0.44580373100753223  1.0000
  H   H4        1.0  0.5026310418784941  0.7048678011604255  0.446965918543746  1.0000
  H   H5        1.0  0.2794332955759477  0.3531683170850801  0.6937485591890875  1.0000
  H   H6        1.0  0.1519491671484163  0.35428523878557266  0.6946604386799251  1.0000
  H   H7        1.0  0.14981839699059196  0.8014904073817551  0.5535385805058373  1.0000
  H   H8        1.0  0.27729195392898487  0.8026076441926087  0.5544502471016444  1.0000
  C   C15       1.0  0.8290743619715205  0.1544983798759343  0.6226508371317503  1.0000
  C   C16       1.0  0.8099966524091474  0.2376774585381083  0.5122368941783386  1.0000
  C   C17       1.0  0.7852656258671213  0.17163902862243563  0.40767174340976003  1.0000
  C   C18       1.0  0.7792051012855166  0.021518504890402083  0.4122890542278368  1.0000
  C   C19       1.0  0.7989269846514361  0.9371317509279693  0.5201861991166916  1.0000
  C   C20       1.0  0.8250519103916736  0.0012658986585187837  0.6255599189942607  1.0000
  C   C21       1.0  0.7652632413233782  0.2583999196078124  0.2959270246252246  1.0000
  N   N3        1.0  0.749186872464205  0.3281397699213071  0.206112893874707  1.0000
  H   H9        1.0  0.8425507354924258  0.23116945930779442  0.9300415653729921  1.0000
  H   H10       1.0  0.8128351023611478  0.3546368582311097  0.5085212049038259  1.0000
  H   H11       1.0  0.7598274135111617  0.9693919253953757  0.33192416870529273  1.0000
  H   H12       1.0  0.7952773242420176  0.8206641553023556  0.5200759916790825  1.0000
  H   H13       1.0  0.8370753283417192  0.7024956675933812  0.8315204500893392  1.0000
  C   C22       1.0  0.8270631497394063  0.5778821081871599  0.2563601310839796  1.0000
  C   C23       1.0  0.7776967576226087  0.497695844124066  0.19466216928696745  1.0000
  C   C24       1.0  0.7776967137893365  0.49769593657199535  0.06378002965168239  1.0000
  C   C25       1.0  0.8270630947652378  0.5778821788628508  0.991850567003135  1.0000
  C   C26       1.0  0.8763887425570566  0.6580019925268321  0.05354772016820308  1.0000
  C   C27       1.0  0.8763887337709183  0.6580019701700885  0.1844400187544437  1.0000
  H   H14       1.0  0.876985654658396  0.6589724538634558  0.5498964535606763  1.0000
  H   H15       1.0  0.7390010489832127  0.43484206057892694  0.24748307470768946  1.0000
  H   H16       1.0  0.7390010341451932  0.4348421284457607  0.018979045715312948  1.0000
  H   H17       1.0  0.91508950401259  0.7208640585824421  0.0007711785691273378  1.0000
  H   H18       1.0  0.915089469234408  0.7208640080401301  0.2291955458799013  1.0000
  H   H19       1.0  0.8769858739655839  0.6589719515427976  0.6879674261215056  1.0000
  Zn  Zn1       1.0  0.7509062394418651  0.5778838279377632  0.6241071927189066  1.0000
  Zn  Zn2       1.0  0.9032133777207405  0.5778797335054544  0.6241029471656427  1.0000
  C   C28       1.0  0.8270888579784273  0.5721384092736579  0.8528074093511603  1.0000
  C   C29       1.0  0.8270324137316758  0.5836269712924724  0.39540285964967414  1.0000
  C   C30       1.0  0.8258086590678432  0.8412087934727834  0.6200197112601016  1.0000
  C   C31       1.0  0.8283125688991615  0.3145548548733368  0.6281906185563984  1.0000
  O   O1        1.0  0.8848218935480627  0.5855471560050169  0.4420652367528586  1.0000
  O   O2        1.0  0.8848969771352708  0.5702140293104367  0.8061414457435339  1.0000
  O   O3        1.0  0.8838624211561126  0.7874917674316912  0.6181637376953937  1.0000
  O   O4        1.0  0.8858563975061212  0.3682694281990018  0.6300428509417388  1.0000
  O   O5        1.0  0.7682631676815257  0.7874941332471825  0.6181672889376773  1.0000
  O   O6        1.0  0.7692977154288234  0.5702181273489049  0.8061449361650186  1.0000
  O   O7        1.0  0.7692226321265737  0.5855512038010018  0.4420672213791519  1.0000
  O   O8        1.0  0.7702571361307733  0.36827346568271435  0.6300449294221591  1.0000
