data_image0
_chemical_formula_structural       NC8NC6H8C9H10C7ONH7Zn2C4O8
_chemical_formula_sum              "N3 C34 H25 O9 Zn2"
_cell_length_a       17.457602349358154
_cell_length_b       9.272676604525723
_cell_length_c       10.297855452804892
_cell_angle_alpha    85.79104961089988
_cell_angle_beta     92.86875916188056
_cell_angle_gamma    92.2282679722568

_space_group_name_H-M_alt    "P 1"
_space_group_IT_number       1

loop_
  _space_group_symop_operation_xyz
  'x, y, z'

loop_
  _atom_site_type_symbol
  _atom_site_label
  _atom_site_symmetry_multiplicity
  _atom_site_fract_x
  _atom_site_fract_y
  _atom_site_fract_z
  _atom_site_occupancy
  N   N1        1.0  0.7308187186422  0.6142024892520737  0.633272963996881  1.0000
  C   C1        1.0  0.6694798216345769  0.5631968850352309  0.6224333521644949  1.0000
  C   C2        1.0  0.593171682530489  0.49975225676973545  0.6089584463803335  1.0000
  C   C3        1.0  0.5348659631346618  0.5443318607249199  0.6840640276515981  1.0000
  C   C4        1.0  0.46000793344010454  0.4832397761758785  0.6712139095909286  1.0000
  C   C5        1.0  0.3981237485185649  0.5303091810773173  0.7507529504760151  1.0000
  C   C6        1.0  0.323686882931187  0.550843558932478  0.6950683936834131  1.0000
  C   C7        1.0  0.2653801033941766  0.5952188335080475  0.7702810597662384  1.0000
  C   C8        1.0  0.18950871561807633  0.616426986032568  0.7123835607685229  1.0000
  N   N2        1.0  0.1285209999701535  0.6334712546022665  0.6658340918209212  1.0000
  C   C9        1.0  0.2810193717895711  0.6193295958795155  0.9016880690595571  1.0000
  C   C10       1.0  0.3546737196635929  0.59922712182443  0.9577621752456926  1.0000
  C   C11       1.0  0.4129698837727522  0.5550516606850227  0.8830081850548753  1.0000
  C   C12       1.0  0.4447405228250386  0.3768162178637682  0.581821752516446  1.0000
  C   C13       1.0  0.5030360805034382  0.332545994066672  0.5071175950864844  1.0000
  C   C14       1.0  0.577109940733631  0.39376268528002845  0.52051830750213  1.0000
  H   H1        1.0  0.5476333031872889  0.6278255988753063  0.7510704058754893  1.0000
  H   H2        1.0  0.3112647845275165  0.5342548994950913  0.5929527389395552  1.0000
  H   H3        1.0  0.23632970729732042  0.6536089524703839  0.9606840028256327  1.0000
  H   H4        1.0  0.3665910175359678  0.6175460351836914  0.05951202776829956  1.0000
  H   H5        1.0  0.4693663010144535  0.5383824620846235  0.9290507021572875  1.0000
  H   H6        1.0  0.3879982684951769  0.3264655786028543  0.570948866628598  1.0000
  H   H7        1.0  0.49078901214861215  0.25029278058894366  0.43891806960699364  1.0000
  H   H8        1.0  0.6217946496092495  0.35851714985704014  0.46202939032864876  1.0000
  C   C15       1.0  0.9274993010233141  0.20024368266571368  0.6477165115007935  1.0000
  C   C16       1.0  0.8967683838599767  0.2628279189298395  0.7527747404788734  1.0000
  C   C17       1.0  0.8730583454696168  0.17751554010184756  0.861582317602516  1.0000
  C   C18       1.0  0.8793140849196358  0.027067688321483558  0.8689956499640513  1.0000
  C   C19       1.0  0.9087877940929584  0.9629731147938502  0.7628337393176896  1.0000
  C   C20       1.0  0.9318477191004122  0.04741926642434292  0.6514023465001928  1.0000
  C   C21       1.0  0.8528586119268154  0.9421400249459084  0.9916044885581223  1.0000
  C   C22       1.0  0.8140751001807195  0.7941696083202148  0.9754964372014858  1.0000
  C   C23       1.0  0.895100962278524  0.8055256524394311  0.03709027801145559  1.0000
  H   H9        1.0  0.9445653259742768  0.49994694800429085  0.43626526326836346  1.0000
  H   H10       1.0  0.8927191813074651  0.37915429110415744  0.7523183534126874  1.0000
  H   H11       1.0  0.8503149983930073  0.22984074841043617  0.9413334686577264  1.0000
  H   H12       1.0  0.9124486494755076  0.8467498582829258  0.7643396321804459  1.0000
  H   H13       1.0  0.9517973003475974  0.9716456932123078  0.33499064480475504  1.0000
  H   H14       1.0  0.8311255370253916  0.001190603525379471  0.07160748368094816  1.0000
  H   H15       1.0  0.8105252132097732  0.7547708231156276  0.8761841900887106  1.0000
  H   H16       1.0  0.7695914153598316  0.7632143536224776  0.04678960382856511  1.0000
  H   H17       1.0  0.9407465720131511  0.77289542770094  0.9752677796139618  1.0000
  H   H18       1.0  0.897971019349682  0.7812013036058438  0.14439907857293185  1.0000
  C   C24       1.0  0.9297043363920583  0.6239763323530515  0.2681204979750045  1.0000
  C   C25       1.0  0.8513877894123699  0.654948455419213  0.2584560400051672  1.0000
  C   C26       1.0  0.8114900424985192  0.6694070503014622  0.13653717128739573  1.0000
  C   C27       1.0  0.8512928159386024  0.6546194445372637  0.023214076266934613  1.0000
  C   C28       1.0  0.9296426486349619  0.6236865860939448  0.030998325334598228  1.0000
  C   C29       1.0  0.9682874358087564  0.6082324837758546  0.15386563808098552  1.0000
  C   C30       1.0  0.7288315418015302  0.702465123638188  0.12891140975348114  1.0000
  O   O1        1.0  0.7007503599431599  0.762639710092639  0.22066376172215163  1.0000
  N   N3        1.0  0.6795746124564649  0.6659777881883089  0.02012048910712316  1.0000
  H   H19       1.0  0.07778562049415005  0.5659589569952799  0.49362540227703916  1.0000
  H   H20       1.0  0.8211136295075573  0.6666296402658183  0.3461867949828221  1.0000
  H   H21       1.0  0.8219003384888841  0.6698241795517326  0.9284817822026018  1.0000
  H   H22       1.0  0.028646271529922714  0.5843583062479678  0.16056067422083675  1.0000
  H   H23       1.0  0.07802479509197435  0.5675086497461588  0.838309680068908  1.0000
  H   H24       1.0  0.622446986270893  0.6962429192294535  0.014486739185499259  1.0000
  H   H25       1.0  0.6974755959542975  0.601054106658151  0.9496397890259324  1.0000
  Zn  Zn1       1.0  0.8455869857619953  0.6197591675552775  0.6426768851429724  1.0000
  Zn  Zn2       1.0  0.013752657036290252  0.6279027455347249  0.6564407536994068  1.0000
  C   C31       1.0  0.9296231074016252  0.6179948088234873  0.8867729529248256  1.0000
  C   C32       1.0  0.9297183810921973  0.6296690131900904  0.41234497162690986  1.0000
  C   C33       1.0  0.9310222228377951  0.8872868329472571  0.6455291860353278  1.0000
  C   C34       1.0  0.9283191993717894  0.360375253204928  0.6535887955310722  1.0000
  O   O2        1.0  0.9935410581667077  0.6346636812435318  0.4659713114982746  1.0000
  O   O3        1.0  0.9934342781802713  0.6191798399733917  0.8435926921644675  1.0000
  O   O4        1.0  0.9945632211829002  0.8366365129422196  0.6487865796731789  1.0000
  O   O5        1.0  0.9924120578413657  0.41720701585165476  0.6607773219452387  1.0000
  O   O6        1.0  0.8669275275702386  0.8304548944609177  0.6383403121933817  1.0000
  O   O7        1.0  0.8657985934651663  0.6129999545760507  0.8331463629662483  1.0000
  O   O8        1.0  0.8659053733708953  0.6284837461750938  0.4555234203982265  1.0000
  O   O9        1.0  0.8647763729815844  0.41102707042883513  0.6503295281857575  1.0000
