data_image0
_chemical_formula_structural       NC6NCNCH5C9H9C6ClH3Zn2C4O8
_chemical_formula_sum              "N3 C27 H17 Cl1 Zn2 O8"
_cell_length_a       14.933214217465613
_cell_length_b       10.297183801781406
_cell_length_c       10.302974078461048
_cell_angle_alpha    85.53397833117516
_cell_angle_beta     89.96595870270414
_cell_angle_gamma    90.03175022610812

_space_group_name_H-M_alt    "P 1"
_space_group_IT_number       1

loop_
  _space_group_symop_operation_xyz
  'x, y, z'

loop_
  _atom_site_type_symbol
  _atom_site_label
  _atom_site_symmetry_multiplicity
  _atom_site_fract_x
  _atom_site_fract_y
  _atom_site_fract_z
  _atom_site_occupancy
  N   N1        1.0  0.8431941176930249  0.4224730979315871  0.5665316095239887  1.0000
  C   C1        1.0  0.7657038311492111  0.42337094162702527  0.5656390993030085  1.0000
  C   C2        1.0  0.6693053573401433  0.4244903233654273  0.5645262494163121  1.0000
  C   C3        1.0  0.6214835145362481  0.3382239000520735  0.6502975906268946  1.0000
  C   C4        1.0  0.5279500609036225  0.33919938739149835  0.6493277281914951  1.0000
  C   C5        1.0  0.4813360975745255  0.4263918716985314  0.5626356736434737  1.0000
  C   C6        1.0  0.3847606262961348  0.4244922661673727  0.56452438342695  1.0000
  N   N2        1.0  0.30727503148436963  0.42290757547742386  0.5660996485379743  1.0000
  C   C7        1.0  0.5292566741037062  0.513747604703193  0.4757813895836913  1.0000
  N   N3        1.0  0.48394231735310944  0.6043740914953251  0.3856752517183253  1.0000
  C   C8        1.0  0.6232705114967154  0.5119017936555332  0.477616712273496  1.0000
  H   H1        1.0  0.6564831119163647  0.2702086268892532  0.7179224861869185  1.0000
  H   H2        1.0  0.491868635534719  0.27175626930494867  0.7163836372131513  1.0000
  H   H3        1.0  0.520296001886448  0.6683832253429183  0.3220334289318314  1.0000
  H   H4        1.0  0.41420069893798  0.6091961935059825  0.3808808880057455  1.0000
  H   H5        1.0  0.6604763933394483  0.5786663230082802  0.41123534963847086  1.0000
  C   C9        1.0  0.07524198949217964  0.041214766174591626  0.5664995916313822  1.0000
  C   C10       1.0  0.07263148452516832  0.05107231102017517  0.42988654019178685  1.0000
  C   C11       1.0  0.07129383936172573  0.9395061319234418  0.35989567914370646  1.0000
  C   C12       1.0  0.07262099393382697  0.8159012083891336  0.4293570485801048  1.0000
  C   C13       1.0  0.07523573478459133  0.8041558869141457  0.5661428946972036  1.0000
  C   C14       1.0  0.07652831399233428  0.9172887774199598  0.6338212602729043  1.0000
  C   C15       1.0  0.0684701461470203  0.9595999573069691  0.21213901778842634  1.0000
  C   C16       1.0  0.01603550511284402  0.8608339595712241  0.13991743261844802  1.0000
  C   C17       1.0  0.11805445496580563  0.8612376761313291  0.13569826002490837  1.0000
  H   H6        1.0  0.07162387362699901  0.14630023270495607  0.3771463650039757  1.0000
  H   H7        1.0  0.07163919171440769  0.7283005859861333  0.37808145987479347  1.0000
  H   H8        1.0  0.0785419245624937  0.9089560312845509  0.739221098652465  1.0000
  H   H9        1.0  0.08016234861113648  0.5747558207928467  0.824492853307708  1.0000
  H   H10       1.0  0.06756338363256864  0.06031467471055141  0.16464742858402714  1.0000
  H   H11       1.0  0.9861539227935494  0.7771684750632355  0.19902714590746373  1.0000
  H   H12       1.0  0.9844434029931663  0.9016773593906259  0.04809316070257319  1.0000
  H   H13       1.0  0.15014390624426832  0.7778182274676554  0.19224573026974998  1.0000
  H   H14       1.0  0.1460879393787924  0.9023146631856805  0.04140686954882766  1.0000
  C   C18       1.0  0.07523886226575471  0.4226853426435828  0.18507876329856843  1.0000
  C   C19       1.0  0.05966330729548666  0.287747565037467  0.1943900054503802  1.0000
  C   C20       1.0  0.0519351876664731  0.22079511513579209  0.08205319860959759  1.0000
  C   C21       1.0  0.05966334734504167  0.2877476384395836  0.9592821064077016  1.0000
  C   C22       1.0  0.07523885998216367  0.42268527558582303  0.9475637824054619  1.0000
  C   C23       1.0  0.08295072967447492  0.4894964275288147  0.06111515299380654  1.0000
  Cl  Cl1       1.0  0.03247762220360295  0.05222577435869691  0.09518869484068859  1.0000
  H   H15       1.0  0.05346855754301319  0.2340796598230912  0.28861853359484235  1.0000
  H   H16       1.0  0.0534686201185195  0.23407964134528408  0.8734175674713613  1.0000
  H   H17       1.0  0.09496302499117754  0.5935644916938936  0.053005718580048544  1.0000
  Zn  Zn1       1.0  0.9771178453483939  0.42259499309836895  0.5664144615203028  1.0000
  Zn  Zn2       1.0  0.17335128925407262  0.42277502322491384  0.5662274628800827  1.0000
  C   C24       1.0  0.07523689286301098  0.417510186156361  0.8034401814295604  1.0000
  C   C25       1.0  0.07523438458908727  0.42786147121060475  0.3292018675867443  1.0000
  C   C26       1.0  0.07523229523408048  0.6599437674987516  0.5610368877747647  1.0000
  C   C27       1.0  0.07523891527008497  0.18542632906791615  0.5716052312506634  1.0000
  O   O1        1.0  0.14970245116948824  0.42966128041136264  0.3774999356067006  1.0000
  O   O2        1.0  0.1497054696822691  0.41584603565960754  0.7549998125045667  1.0000
  O   O3        1.0  0.14970075315332032  0.6116142176636279  0.5592574381599966  1.0000
  O   O4        1.0  0.14970710073718116  0.2338931076387347  0.5732422126683474  1.0000
  O   O5        1.0  0.0007619669004417232  0.6114769086245272  0.5593997117890226  1.0000
  O   O6        1.0  0.0007666834124799879  0.41571028736078364  0.7551420161814534  1.0000
  O   O7        1.0  0.0007636649596607376  0.4295254868440472  0.37764057842160326  1.0000
  O   O8        1.0  0.0007683145237662424  0.23375730478000567  0.5733829528231573  1.0000
