data_image0
_chemical_formula_structural       NC10NC3NCH9C12NCOCH13C10NCOCH13Zn2C4O8
_chemical_formula_sum              "N5 C44 H35 O10 Zn2"
_cell_length_a       19.437513618241372
_cell_length_b       10.299155265289647
_cell_length_c       10.299158637457994
_cell_angle_alpha    85.56442242627145
_cell_angle_beta     90.32911859646087
_cell_angle_gamma    89.50051482239499

_space_group_name_H-M_alt    "P 1"
_space_group_IT_number       1

loop_
  _space_group_symop_operation_xyz
  'x, y, z'

loop_
  _atom_site_type_symbol
  _atom_site_label
  _atom_site_symmetry_multiplicity
  _atom_site_fract_x
  _atom_site_fract_y
  _atom_site_fract_z
  _atom_site_occupancy
  N   N1        1.0  0.647801582855993  0.4100790598263328  0.5753197322985859  1.0000
  C   C1        1.0  0.5888652210845119  0.4270894021703478  0.5723401286543379  1.0000
  C   C2        1.0  0.515420965162064  0.44834227468898447  0.5686416303230792  1.0000
  C   C3        1.0  0.4736803318577929  0.34714177271397695  0.5570034357790667  1.0000
  C   C4        1.0  0.3977892807073793  0.3572051016360748  0.5497799123053653  1.0000
  C   C5        1.0  0.3581904034791852  0.4380787101789963  0.6155060946292247  1.0000
  C   C6        1.0  0.2820109774693098  0.42946735843134454  0.6070637172592561  1.0000
  C   C7        1.0  0.24889886680589768  0.30811558915872284  0.6117325610776392  1.0000
  C   C8        1.0  0.17716636585066653  0.3017412792112242  0.6045657712550874  1.0000
  C   C9        1.0  0.1375753985240772  0.41624612655577997  0.5930924717331242  1.0000
  C   C10       1.0  0.0637285130618084  0.40953356386789963  0.5857576598218224  1.0000
  N   N2        1.0  0.004360715003926498  0.40413725370739284  0.5798609293313792  1.0000
  C   C11       1.0  0.16997088245946881  0.5372875195435047  0.5891689760003853  1.0000
  C   C12       1.0  0.24168772978679007  0.5439158563837712  0.5963977346146511  1.0000
  C   C13       1.0  0.3868447936386465  0.5303959251695158  0.7054075366510584  1.0000
  N   N3        1.0  0.4438199311600144  0.5936069919629481  0.684989910617297  1.0000
  C   C14       1.0  0.4876760662699224  0.584312990091393  0.5718832555546363  1.0000
  H   H1        1.0  0.4960844418975532  0.2520755369177319  0.5449020320514182  1.0000
  H   H2        1.0  0.373095733725691  0.287671514546606  0.4914758057809181  1.0000
  H   H3        1.0  0.2783655162956269  0.2182006945344508  0.6227723422922267  1.0000
  H   H4        1.0  0.1525908182839185  0.2075096493340323  0.6084727153650316  1.0000
  H   H5        1.0  0.13981880175664005  0.6265481169481832  0.5804415008652399  1.0000
  H   H6        1.0  0.2657816764797542  0.6385603098438151  0.5924752441066259  1.0000
  H   H7        1.0  0.3568274697149576  0.5508068238419042  0.7897706885833763  1.0000
  H   H8        1.0  0.5304141906951355  0.6546318933072854  0.5776319804074846  1.0000
  H   H9        1.0  0.45801432011893733  0.6123979901654664  0.48123096742198457  1.0000
  C   C15       1.0  0.8261612696288201  0.02570934990073858  0.5777100761469762  1.0000
  C   C16       1.0  0.8144315451599952  0.03556879863466267  0.4426347082253967  1.0000
  C   C17       1.0  0.8084177149074203  0.923431142197015  0.3740300782406858  1.0000
  C   C18       1.0  0.8142670925318135  0.8003116871973618  0.44232482709931076  1.0000
  C   C19       1.0  0.8260076455721163  0.7884968460360454  0.5774819239790958  1.0000
  C   C20       1.0  0.8318855157703064  0.9017138457486308  0.6443425039101953  1.0000
  C   C21       1.0  0.7960099320760734  0.9348349036114564  0.23113666006017827  1.0000
  C   C22       1.0  0.8309154308220749  0.028342337422990308  0.15016315326084295  1.0000
  C   C23       1.0  0.8192445508118354  0.038943056594350496  0.015690997269238054  1.0000
  C   C24       1.0  0.7728626349506527  0.9553587371044984  0.9593493778938993  1.0000
  C   C25       1.0  0.7371167548483549  0.8636815751042882  0.040244021519253645  1.0000
  C   C26       1.0  0.7488126993608053  0.8528244088317276  0.1746791610553471  1.0000
  N   N4        1.0  0.7589782396906619  0.9657942829985477  0.8216106829012997  1.0000
  C   C27       1.0  0.8092308065891883  0.001867069371949374  0.7240324113035456  1.0000
  O   O1        1.0  0.8723427556329482  0.0033571163403987065  0.7526948007119816  1.0000
  C   C28       1.0  0.7873055737123102  0.02864209197077262  0.5852124676469769  1.0000
  H   H10       1.0  0.8306943799107523  0.3493928136518083  0.6296604181018506  1.0000
  H   H11       1.0  0.8089969647611193  0.13069058333524786  0.3907555516495673  1.0000
  H   H12       1.0  0.8105750175053735  0.7135600361896451  0.3896490476761574  1.0000
  H   H13       1.0  0.8409352135676247  0.8933941430808897  0.7485285419811945  1.0000
  H   H14       1.0  0.848579321163727  0.5589067335271609  0.8324583025533707  1.0000
  H   H15       1.0  0.8676468936827377  0.09278933121525947  0.1907235286181563  1.0000
  H   H16       1.0  0.8456486210138394  0.11394272457195262  0.9564465046313324  1.0000
  H   H17       1.0  0.7003194124669696  0.7999394972336903  0.9988157661091018  1.0000
  H   H18       1.0  0.72019774324918  0.7814781552984229  0.23472844754452393  1.0000
  H   H19       1.0  0.7105252600439328  0.9377248242985974  0.7899199481921788  1.0000
  H   H20       1.0  0.7376426306919918  0.08291417350560848  0.5801262812590595  1.0000
  H   H21       1.0  0.7809467748748399  0.9351263117135477  0.5399071478862787  1.0000
  H   H22       1.0  0.8264815226110496  0.0880656807677278  0.53031581069098  1.0000
  C   C29       1.0  0.8261489767995087  0.40696402719050595  0.1962237783370877  1.0000
  C   C30       1.0  0.827719978798918  0.5436513319844936  0.18488970477227215  1.0000
  C   C31       1.0  0.8284624719684496  0.6130944547550539  0.06198481078441786  1.0000
  C   C32       1.0  0.8275882005486668  0.5440134246669397  0.9495764411088516  1.0000
  C   C33       1.0  0.8260199162187115  0.4072421594199409  0.9589682680174545  1.0000
  C   C34       1.0  0.8253129691280815  0.3395583848287178  0.08267973883209634  1.0000
  C   C35       1.0  0.8301252238041442  0.7576928366692395  0.050968300802044945  1.0000
  C   C36       1.0  0.8723394102222225  0.8248283369865897  0.13405321874567622  1.0000
  C   C37       1.0  0.873909754452243  0.9609029470575736  0.12355531599055691  1.0000
  C   C38       1.0  0.7891576579839301  0.8297545423040249  0.9577978980439616  1.0000
  N   N5        1.0  0.8334424049784863  0.1726244387637217  0.01759239889561393  1.0000
  C   C39       1.0  0.8923725870699198  0.2506361968879882  0.041551092243424785  1.0000
  O   O2        1.0  0.9517013886692773  0.20023115129833213  0.050837506119315146  1.0000
  C   C40       1.0  0.8842732331570766  0.394597074008185  0.046007849125311084  1.0000
  H   H23       1.0  0.825566257485322  0.3543860218802821  0.528059396270697  1.0000
  H   H24       1.0  0.827408583525909  0.5964777188609802  0.27182093118643236  1.0000
  H   H25       1.0  0.8290690912284409  0.5970063139740514  0.854607972843072  1.0000
  H   H26       1.0  0.8241035737823754  0.2341282339097952  0.09070710743204335  1.0000
  H   H27       1.0  0.8234775418311112  0.14907121216388797  0.7694079579364965  1.0000
  H   H28       1.0  0.9045505890072768  0.7720606064918525  0.20667149653003158  1.0000
  H   H29       1.0  0.9056475268734727  0.009717323999240517  0.1909764220354755  1.0000
  H   H30       1.0  0.7585079960663982  0.01944419120354235  0.875511631304311  1.0000
  H   H31       1.0  0.7551659149725269  0.7809309430586309  0.8940323405840606  1.0000
  H   H32       1.0  0.7888343364263573  0.2208263546151752  0.9820634525632521  1.0000
  H   H33       1.0  0.8358912867750719  0.4171196374907025  0.09680300649357297  1.0000
  H   H34       1.0  0.8824140673943699  0.4412988874840651  0.9452515361333256  1.0000
  H   H35       1.0  0.928158360266932  0.4346364421455826  0.09920945313804919  1.0000
  Zn  Zn1       1.0  0.7506968512336583  0.4083608961797585  0.576637733730248  1.0000
  Zn  Zn2       1.0  0.9014654531799179  0.4058447508615386  0.5785536010562751  1.0000
  C   C41       1.0  0.8260438167050529  0.4020155091835203  0.8147947298268303  1.0000
  C   C42       1.0  0.8261201337453088  0.4121917491756837  0.34039675285834115  1.0000
  C   C43       1.0  0.8260339990946859  0.6443119168640892  0.5723498003457774  1.0000
  C   C44       1.0  0.8261299002114888  0.16989378195441085  0.5828417513915711  1.0000
  O   O3        1.0  0.8833263535956012  0.41298569021022025  0.3895095835043205  1.0000
  O   O4        1.0  0.8832674774446093  0.3993108921367057  0.767135624594911  1.0000
  O   O5        1.0  0.8832587780738992  0.5949683189594609  0.57135961849568  1.0000
  O   O6        1.0  0.8833350015338057  0.21732827350149875  0.5852854915715028  1.0000
  O   O7        1.0  0.768827251429847  0.5968773743998468  0.5699058425543968  1.0000
  O   O8        1.0  0.7688359504948206  0.40122150797784384  0.7656817789408283  1.0000
  O   O9        1.0  0.7688948269648902  0.4148962602217777  0.3880541764500989  1.0000
  O   O10       1.0  0.7689034748856769  0.21923883425907056  0.5838301818887071  1.0000
