data_image0
_chemical_formula_structural       NC6NC3H6C6NCOH7C9H9Zn2C4O8
_chemical_formula_sum              "N3 C29 H22 O9 Zn2"
_cell_length_a       14.934028789175542
_cell_length_b       9.273730183620392
_cell_length_c       10.297187173949778
_cell_angle_alpha    85.71383111101245
_cell_angle_beta     89.94921482241688
_cell_angle_gamma    90.55680839480088

_space_group_name_H-M_alt    "P 1"
_space_group_IT_number       1

loop_
  _space_group_symop_operation_xyz
  'x, y, z'

loop_
  _atom_site_type_symbol
  _atom_site_label
  _atom_site_symmetry_multiplicity
  _atom_site_fract_x
  _atom_site_fract_y
  _atom_site_fract_z
  _atom_site_occupancy
  N   N1        1.0  0.8537906875314748  0.5772483660880485  0.57033234605953  1.0000
  C   C1        1.0  0.7762977335687861  0.5761501155736235  0.5697180965363586  1.0000
  C   C2        1.0  0.679892561722913  0.574778842380045  0.568951319546723  1.0000
  C   C3        1.0  0.6328025099069176  0.68157450182418  0.6285719979177817  1.0000
  C   C4        1.0  0.539283851352107  0.6804734654601176  0.6279572068126712  1.0000
  C   C5        1.0  0.49194303871265715  0.5726312704551431  0.5677523441232369  1.0000
  C   C6        1.0  0.39531184169390715  0.5749451338019809  0.5690452667943804  1.0000
  N   N2        1.0  0.3178432858197364  0.5767814761307279  0.5700716598241892  1.0000
  C   C7        1.0  0.5390182159154346  0.4643581163552526  0.5073063266589115  1.0000
  C   C8        1.0  0.4899636448573946  0.3471112337403019  0.44185223547015373  1.0000
  C   C9        1.0  0.6331750175122413  0.4665826556942023  0.5085482646451354  1.0000
  H   H1        1.0  0.6683766619077861  0.7657195751999468  0.6755480931979374  1.0000
  H   H2        1.0  0.5037739773820741  0.7639704997049326  0.6745713921612952  1.0000
  H   H3        1.0  0.44755479514161706  0.39617118577559535  0.3621185970434928  1.0000
  H   H4        1.0  0.4467918053277035  0.28427446799198686  0.513900718337979  1.0000
  H   H5        1.0  0.5369442613507868  0.2711687382017658  0.39945009529187553  1.0000
  H   H6        1.0  0.6701849459777264  0.3841963809386895  0.4625544440222087  1.0000
  C   C10       1.0  0.08308626117529294  0.15351690916103822  0.5692370782185949  1.0000
  C   C11       1.0  0.09625420657191269  0.23697474822078998  0.4508186277802544  1.0000
  C   C12       1.0  0.11630634120527888  0.1721314195027448  0.3358651321366468  1.0000
  C   C13       1.0  0.12602913610743682  0.0216668695795954  0.3402223972881997  1.0000
  C   C14       1.0  0.11185780707422682  0.9370398790246294  0.4563050788507527  1.0000
  C   C15       1.0  0.08855626400116896  0.0005018498088316159  0.5711781549236559  1.0000
  N   N3        1.0  0.13147868930190618  0.26187707220796996  0.21770618440030653  1.0000
  C   C16       1.0  0.10915136559770094  0.22092730381685596  0.09010891293399359  1.0000
  O   O1        1.0  0.06312618424534167  0.10906998156297609  0.07436037689783381  1.0000
  H   H7        1.0  0.09702352365022393  0.23017600001935598  0.8884430666474809  1.0000
  H   H8        1.0  0.09227131484748247  0.3538049699523478  0.44795596102040625  1.0000
  H   H9        1.0  0.14548672835143645  0.9691415483377515  0.2543671718571878  1.0000
  H   H10       1.0  0.11761999003076971  0.8207424763457597  0.4555894593976808  1.0000
  H   H11       1.0  0.09410310744695205  0.7017076982527627  0.7859662601256306  1.0000
  H   H12       1.0  0.1547263016997893  0.3676280904014728  0.22482801017949727  1.0000
  H   H13       1.0  0.12997446351678144  0.28950882904123976  0.005652936633280263  1.0000
  C   C17       1.0  0.08593929193510627  0.5769571089479071  0.18875425721615025  1.0000
  C   C18       1.0  0.995451275638705  0.6166598383215471  0.18541410455553817  1.0000
  C   C19       1.0  0.9490915962704887  0.6370004749337743  0.06708644157309895  1.0000
  C   C20       1.0  0.9951004960481672  0.6168131924001463  0.9501919277258034  1.0000
  C   C21       1.0  0.08570321865991376  0.5770616348561697  0.9516609389069862  1.0000
  C   C22       1.0  0.13053093815798483  0.5573917646202811  0.07133200196607126  1.0000
  C   C23       1.0  0.851222282691881  0.6799415193577356  0.07290599709114076  1.0000
  C   C24       1.0  0.7881592699293961  0.6219987356861498  0.9725364384216371  1.0000
  C   C25       1.0  0.8158134279207535  0.7810739846103576  0.9617865937513317  1.0000
  H   H14       1.0  0.9605180079044593  0.6319876314094599  0.27554698136967737  1.0000
  H   H15       1.0  0.9611365590506238  0.6317119580756301  0.8576380273391062  1.0000
  H   H16       1.0  0.20034416305641525  0.5267595576802834  0.0731816511199761  1.0000
  H   H17       1.0  0.2568227342685834  0.5019636854625074  0.7472202984224809  1.0000
  H   H18       1.0  0.8197656295610224  0.6937447163597829  0.1690325617099957  1.0000
  H   H19       1.0  0.818063311812612  0.5568761143059329  0.8978452483599216  1.0000
  H   H20       1.0  0.7184396156942954  0.6025552484093232  0.007649395606029506  1.0000
  H   H21       1.0  0.8625162966367658  0.8125806978291151  0.8805663885948691  1.0000
  H   H22       1.0  0.7622556155333295  0.8546034115234715  0.9906143243933604  1.0000
  Zn  Zn1       1.0  0.9877062295456777  0.577109768227726  0.5702646042984292  1.0000
  Zn  Zn2       1.0  0.18392769429213793  0.5769082621413246  0.570149994577887  1.0000
  C   C26       1.0  0.08570873183045102  0.5712966514240752  0.8074420721722593  1.0000
  C   C27       1.0  0.08592734645173006  0.5827231963966752  0.33297265711725  1.0000
  C   C28       1.0  0.08751929080001819  0.8404029270269631  0.5656349026882586  1.0000
  C   C29       1.0  0.08411670931419479  0.3136151882058864  0.5747798919235629  1.0000
  O   O2        1.0  0.1603883200604761  0.5845755858839432  0.38133016136523423  1.0000
  O   O3        1.0  0.1601753027981685  0.5692902354780174  0.7589972053762198  1.0000
  O   O4        1.0  0.16163634782163638  0.7865969575565703  0.5637362092148406  1.0000
  O   O5        1.0  0.15892720817667916  0.36726887417730536  0.5765910601931407  1.0000
  O   O6        1.0  0.012706648700393723  0.7867491562620784  0.5638235387154571  1.0000
  O   O7        1.0  0.011245614884150434  0.5694441668417605  0.7590844695868055  1.0000
  O   O8        1.0  0.01145863236473787  0.5847294667784055  0.3814158637142784  1.0000
  O   O9        1.0  0.009997520380526263  0.3674227447701858  0.5766768599079398  1.0000
