data_image0
_chemical_formula_structural       NC9NC5H8C6OCH8C6BrH5Zn2C4O8
_chemical_formula_sum              "N2 C31 H21 O9 Br1 Zn2"
_cell_length_a       17.807436237873137
_cell_length_b       9.273888216677435
_cell_length_c       10.302972455390005
_cell_angle_alpha    85.76054877511693
_cell_angle_beta     89.39215201277248
_cell_angle_gamma    87.81887448081709

_space_group_name_H-M_alt    "P 1"
_space_group_IT_number       1

loop_
  _space_group_symop_operation_xyz
  'x, y, z'

loop_
  _atom_site_type_symbol
  _atom_site_label
  _atom_site_symmetry_multiplicity
  _atom_site_fract_x
  _atom_site_fract_y
  _atom_site_fract_z
  _atom_site_occupancy
  N   N1        1.0  0.6993827129658475  0.5413576222339527  0.5625724848695477  1.0000
  C   C1        1.0  0.638998789902042  0.5022732951430342  0.5514262620254197  1.0000
  C   C2        1.0  0.5638878263209481  0.45365669643330675  0.5375615712461488  1.0000
  C   C3        1.0  0.5462096608277405  0.37433840401471924  0.43233778553850066  1.0000
  C   C4        1.0  0.47328142957403035  0.32701159735783986  0.4187930661777357  1.0000
  C   C5        1.0  0.41698482964251243  0.358583770002602  0.5104383404154218  1.0000
  C   C6        1.0  0.3394802545327598  0.3084151979794518  0.49612626977602914  1.0000
  C   C7        1.0  0.2768308629180086  0.3992196748603416  0.5223492255375499  1.0000
  C   C8        1.0  0.2037615015359785  0.35166735845432395  0.5088174561137002  1.0000
  C   C9        1.0  0.1400464483602665  0.4454610544323227  0.535413826971644  1.0000
  N   N2        1.0  0.0888325677033596  0.5208646969685692  0.5567965619838284  1.0000
  C   C10       1.0  0.1927594795517396  0.21302403305375417  0.4690364662376492  1.0000
  C   C11       1.0  0.2545515814954403  0.12220417081043711  0.4428050739696616  1.0000
  C   C12       1.0  0.3275037937294188  0.16931828115764588  0.4561329597875519  1.0000
  C   C13       1.0  0.43535153919260355  0.4384511420315384  0.615883052745819  1.0000
  C   C14       1.0  0.5083337434532005  0.4855664831963207  0.6292714912852377  1.0000
  H   H1        1.0  0.5887347150853569  0.34936509760706813  0.36056821768978337  1.0000
  H   H2        1.0  0.46067951724539624  0.2673885406898391  0.33570784335031956  1.0000
  H   H3        1.0  0.2847643987473701  0.5074714175502455  0.5515655457829409  1.0000
  H   H4        1.0  0.136491386696169  0.17522107243915186  0.4583232702235913  1.0000
  H   H5        1.0  0.24591495668958097  0.014863301628711186  0.4123916735212658  1.0000
  H   H6        1.0  0.3745250261533446  0.09629696105622032  0.43685555487316585  1.0000
  H   H7        1.0  0.3935464834111488  0.46282573005611644  0.6889447626868554  1.0000
  H   H8        1.0  0.5214569437837775  0.5465452227854892  0.7113197993044507  1.0000
  C   C15       1.0  0.8963176864226958  0.10753276794369215  0.5583253733835165  1.0000
  C   C16       1.0  0.878769664529373  0.19171892102502297  0.4426269101555642  1.0000
  C   C17       1.0  0.8548286783499798  0.12825405211310192  0.33211658779917386  1.0000
  C   C18       1.0  0.8482967393438319  0.9776168791990959  0.33688987460228237  1.0000
  C   C19       1.0  0.8666311270659594  0.8921942432997703  0.45007941723799005  1.0000
  C   C20       1.0  0.8919048123189703  0.9546781081877261  0.5610548054348936  1.0000
  O   O1        1.0  0.8377361059090723  0.21858334094500217  0.22022815311246438  1.0000
  C   C21       1.0  0.8126556104522241  0.16897845969384329  0.10112684000190275  1.0000
  H   H9        1.0  0.9024380590989789  0.18389531333232312  0.8777152942815092  1.0000
  H   H10       1.0  0.881943488396306  0.3084274832560434  0.43873176670639125  1.0000
  H   H11       1.0  0.8297485662744437  0.9251559287628182  0.2532013248379168  1.0000
  H   H12       1.0  0.8627262310855656  0.7759313008135189  0.449705036906406  1.0000
  H   H13       1.0  0.8991758517589992  0.6553648691245738  0.7752299939515701  1.0000
  H   H14       1.0  0.758730527199952  0.11369198679020641  0.11688873082374408  1.0000
  H   H15       1.0  0.855798469365557  0.09409997150010851  0.06155881746578041  1.0000
  H   H16       1.0  0.8035162933932614  0.26314477875645814  0.029486554225817814  1.0000
  C   C22       1.0  0.8941112343305003  0.5311054291343529  0.1784475364080027  1.0000
  C   C23       1.0  0.9167809726864424  0.38401052995638985  0.18660344456201794  1.0000
  C   C24       1.0  0.9280264279650823  0.3110435159158815  0.07371137953145923  1.0000
  C   C25       1.0  0.9167810996363899  0.38401046699276753  0.9515210519008753  1.0000
  C   C26       1.0  0.894111269864486  0.5311054312108567  0.9409326179679116  1.0000
  C   C27       1.0  0.8828858350196809  0.6039425262569473  0.05504925860068833  1.0000
  Br  Br1       1.0  0.958861023829467  0.11096903704149597  0.08645921457018568  1.0000
  H   H17       1.0  0.8855788589969469  0.5864708062566988  0.5026792702503682  1.0000
  H   H18       1.0  0.9258052686012647  0.3254547482183403  0.28033363712635917  1.0000
  H   H19       1.0  0.9258055652881796  0.32545478091493524  0.8652527302488493  1.0000
  H   H20       1.0  0.8654020247660404  0.7173877550965173  0.04782105336198517  1.0000
  H   H21       1.0  0.8855778056840561  0.5864703202222772  0.609645660182109  1.0000
  Zn  Zn1       1.0  0.8117695473195685  0.5354399578556996  0.560913174194677  1.0000
  Zn  Zn2       1.0  0.976445776400743  0.5267706035122903  0.558466507850319  1.0000
  C   C28       1.0  0.8941395275621037  0.5253592390811312  0.7967881376113604  1.0000
  C   C29       1.0  0.894077584937077  0.5368530475971498  0.32259165100414466  1.0000
  C   C30       1.0  0.8927350845697755  0.7945498098597945  0.5553654815556059  1.0000
  C   C31       1.0  0.8954819807642487  0.2676607467823685  0.5640143715269086  1.0000
  O   O2        1.0  0.9565600953920352  0.5354857332492211  0.3700392152336822  1.0000
  O   O3        1.0  0.9566424702994752  0.5201456259209922  0.7474832330103522  1.0000
  O   O4        1.0  0.9555075223757258  0.7375204605546426  0.5525327474890103  1.0000
  O   O5        1.0  0.9576949870691875  0.31811091189228113  0.5649896042807474  1.0000
  O   O6        1.0  0.8305202804552008  0.744099652435704  0.5543900785923525  1.0000
  O   O7        1.0  0.8316552193481839  0.5267265507981675  0.7493405004747888  1.0000
  O   O8        1.0  0.8315728447524624  0.5420666078589049  0.37189492165210036  1.0000
  O   O9        1.0  0.8327077364802888  0.32469177618525036  0.5668454080015461  1.0000
