data_image0
_chemical_formula_structural       NC12NC2H8C6SCNH5C7N4H6Zn2C4O8
_chemical_formula_sum              "N7 C32 H19 S1 Zn2 O8"
_cell_length_a       17.80743265337812
_cell_length_b       9.27526961838325
_cell_length_c       9.274190830515497
_cell_angle_alpha    85.4175642429384
_cell_angle_beta     91.08905223573421
_cell_angle_gamma    88.87871087483882

_space_group_name_H-M_alt    "P 1"
_space_group_IT_number       1

loop_
  _space_group_symop_operation_xyz
  'x, y, z'

loop_
  _atom_site_type_symbol
  _atom_site_label
  _atom_site_symmetry_multiplicity
  _atom_site_fract_x
  _atom_site_fract_y
  _atom_site_fract_z
  _atom_site_occupancy
  N   N1        1.0  0.7057459098509768  0.5723279004014017  0.4528401180469601  1.0000
  C   C1        1.0  0.6550639482635213  0.6056653964739649  0.3766605550545119  1.0000
  C   C2        1.0  0.5920105471378059  0.647134793940717  0.281902775866423  1.0000
  C   C3        1.0  0.6039938632209092  0.7080693960882571  0.1414928162272584  1.0000
  C   C4        1.0  0.5428456407891413  0.7478513179465627  0.049389685577858396  1.0000
  C   C5        1.0  0.469561237363093  0.7269961432030807  0.0969646565716109  1.0000
  C   C6        1.0  0.4565997484679835  0.6659260950119783  0.23789412784583375  1.0000
  C   C7        1.0  0.5186053415709403  0.6261479108635672  0.3299789305476495  1.0000
  C   C8        1.0  0.37874075006278196  0.6438123136199819  0.2886414111180097  1.0000
  C   C9        1.0  0.3592442975324622  0.6730320970565185  0.42990799270182856  1.0000
  C   C10       1.0  0.2859295379971684  0.6522227702646859  0.4775282234259788  1.0000
  C   C11       1.0  0.2311659910178833  0.6019050116330695  0.3848115936741398  1.0000
  C   C12       1.0  0.1557115422426574  0.5804713098521348  0.4339855396668779  1.0000
  N   N2        1.0  0.09505150878538242  0.5632400556556896  0.47351800926744614  1.0000
  C   C13       1.0  0.24996950251693678  0.5724935832045017  0.24414741391952788  1.0000
  C   C14       1.0  0.32323245042045917  0.593321264531774  0.19624298005979424  1.0000
  H   H1        1.0  0.6605284487172394  0.7247880042852775  0.10330590537041107  1.0000
  H   H2        1.0  0.5522393358431472  0.7953292948177544  0.940963283754747  1.0000
  H   H3        1.0  0.4230453266511011  0.7603951358373189  0.024238175072619484  1.0000
  H   H4        1.0  0.5099183000660041  0.5771328835213856  0.43826051581692566  1.0000
  H   H5        1.0  0.4004249467402873  0.7138121841343741  0.5029315149787275  1.0000
  H   H6        1.0  0.2719331948366694  0.6757332653872092  0.5865130307178534  1.0000
  H   H7        1.0  0.2080630925074415  0.5331173248607315  0.17158866274228757  1.0000
  H   H8        1.0  0.3367076252654614  0.5681036791433335  0.08758788009093443  1.0000
  C   C15       1.0  0.902526170246296  0.1443816890263081  0.46138828145883304  1.0000
  C   C16       1.0  0.8762209532950546  0.22885347078029536  0.3373406912896904  1.0000
  C   C17       1.0  0.8441602509982378  0.16443924258567222  0.22072106153903778  1.0000
  C   C18       1.0  0.8379190168317378  0.014448117299906695  0.22574736833802106  1.0000
  C   C19       1.0  0.8646139163553783  0.9284537993511951  0.3472359998261536  1.0000
  C   C20       1.0  0.8982784536371294  0.9911749659259406  0.46498256387590037  1.0000
  S   S1        1.0  0.7958130575105391  0.9322116132831841  0.07645833088468512  1.0000
  C   C21       1.0  0.8825790866325036  0.9145723910197887  0.9900014411084087  1.0000
  N   N3        1.0  0.9394752814203315  0.903020274537882  0.9333513833111442  1.0000
  H   H9        1.0  0.9828880923311013  0.40774328037452934  0.6461446945174953  1.0000
  H   H10       1.0  0.8787977650816312  0.345749546815064  0.3318772404481691  1.0000
  H   H11       1.0  0.8236134256024195  0.2315413318544117  0.12680270057709087  1.0000
  H   H12       1.0  0.8607585702023758  0.8119464452467151  0.34799035820480445  1.0000
  H   H13       1.0  0.021500529232328702  0.8620317625074208  0.7343039148480355  1.0000
  C   C22       1.0  0.9020841910083535  0.5706812666392466  0.03950392639938083  1.0000
  C   C23       1.0  0.9510418516061935  0.4750133428976999  0.12217689980894718  1.0000
  C   C24       1.0  0.9940519849545342  0.3720458308526915  0.05710039947134015  1.0000
  C   C25       1.0  0.9892735991662971  0.3616077812185743  0.9072894734570072  1.0000
  C   C26       1.0  0.9415601932875154  0.4587378055014978  0.8232148825428978  1.0000
  C   C27       1.0  0.8987203980943248  0.5648754182812337  0.8868669589895375  1.0000
  C   C28       1.0  0.034976822092100734  0.25027721978188366  0.8404901856850019  1.0000
  N   N4        1.0  0.08491568484156842  0.1596581119059719  0.9138332730699126  1.0000
  N   N5        1.0  0.11299974791381939  0.07831814722090759  0.8158866352308632  1.0000
  N   N6        1.0  0.08186098000403352  0.11652063107023446  0.6873931034083336  1.0000
  N   N7        1.0  0.033016425618595635  0.22353690639313145  0.6999585166999734  1.0000
  H   H14       1.0  0.8461712853932066  0.7856328277387163  0.301638094896  1.0000
  H   H15       1.0  0.9547883246046832  0.4773843963711805  0.2386930796548492  1.0000
  H   H16       1.0  0.030547985802708896  0.2992112624746708  0.12482931573351119  1.0000
  H   H17       1.0  0.9389066317970239  0.4551493133670454  0.7070031252941441  1.0000
  H   H18       1.0  0.7943639045056535  0.70037338070846  0.5922120087665115  1.0000
  H   H19       1.0  0.000370401130586063  0.2733292306040913  0.6148864145316518  1.0000
  Zn  Zn1       1.0  0.8180910858697568  0.5697014382935706  0.4588156120488356  1.0000
  Zn  Zn2       1.0  0.9827063425523144  0.5658546760939027  0.4675542336866345  1.0000
  C   C29       1.0  0.8993833837746574  0.5602289420387416  0.7266727384329994  1.0000
  C   C30       1.0  0.9014158325530803  0.5753289485949081  0.19969735205865247  1.0000
  C   C31       1.0  0.8991003117320756  0.8311524787393996  0.45855364884294464  1.0000
  C   C32       1.0  0.9016988568081481  0.30440368040572996  0.46781650823455506  1.0000
  O   O1        1.0  0.9636621889145854  0.5754226367079067  0.25677596376512546  1.0000
  O   O2        1.0  0.9620762054023548  0.557214565565533  0.6762261184107805  1.0000
  O   O3        1.0  0.9618467730586908  0.7759887571472412  0.4597180182378413  1.0000
  O   O4        1.0  0.9638915654639091  0.3566484574942064  0.4732839528216281  1.0000
  O   O5        1.0  0.8369058067830764  0.7789076582075996  0.45308588992419685  1.0000
  O   O6        1.0  0.837135230739169  0.5601351994287438  0.6695939205216432  1.0000
  O   O7        1.0  0.8387212214393646  0.5783432322112725  0.2501420310284075  1.0000
  O   O8        1.0  0.8389505976079429  0.3595690419438966  0.46665012821170254  1.0000
