data_image0
_chemical_formula_structural       NC6NC2H4C6NH7C6NCOH5Zn2C4O8
_chemical_formula_sum              "N4 C25 H16 O9 Zn2"
_cell_length_a       14.927258858638513
_cell_length_b       9.274771166103582
_cell_length_c       9.27373355559583
_cell_angle_alpha    86.06900368676713
_cell_angle_beta     90.01105750145625
_cell_angle_gamma    90.59705168739299

_space_group_name_H-M_alt    "P 1"
_space_group_IT_number       1

loop_
  _space_group_symop_operation_xyz
  'x, y, z'

loop_
  _atom_site_type_symbol
  _atom_site_label
  _atom_site_symmetry_multiplicity
  _atom_site_fract_x
  _atom_site_fract_y
  _atom_site_fract_z
  _atom_site_occupancy
  N   N1        1.0  0.8534878550695063  0.5615583563419384  0.40740622308683205  1.0000
  C   C1        1.0  0.775961363719219  0.5615583279389023  0.407406233725077  1.0000
  C   C2        1.0  0.6795288569108502  0.5615584425302471  0.40740618366676395  1.0000
  C   C3        1.0  0.6322990717491377  0.536501742072373  0.28079470202811874  1.0000
  C   C4        1.0  0.5385877605463381  0.5365017662817986  0.28079456855587415  1.0000
  C   C5        1.0  0.49171279177289  0.5615582651363811  0.4074062026160925  1.0000
  C   C6        1.0  0.39528021797300317  0.5615583797306276  0.4074061525518511  1.0000
  N   N2        1.0  0.31775372662271584  0.5615583513275915  0.4074061631900956  1.0000
  C   C7        1.0  0.538942509943084  0.5866149655971569  0.5340176842488094  1.0000
  C   C8        1.0  0.6326538211458838  0.5866149413877317  0.5340178177210537  1.0000
  H   H1        1.0  0.6678572331251172  0.5170062150214363  0.18228370268721994  1.0000
  H   H2        1.0  0.5027535788923103  0.5170064125548148  0.1822836973920301  1.0000
  H   H3        1.0  0.5033844155085958  0.606110483488379  0.632528791667168  1.0000
  H   H4        1.0  0.6684880034488276  0.6061103936488201  0.632528798708863  1.0000
  C   C9        1.0  0.08287491050191466  0.1379702283265183  0.40819175479965053  1.0000
  C   C10       1.0  0.062235966228126244  0.21989500855953795  0.27931087074853433  1.0000
  C   C11       1.0  0.04996098266603233  0.1534528705482825  0.1496122926419572  1.0000
  C   C12       1.0  0.05837172901783141  0.0036983914592736474  0.14785517965690342  1.0000
  C   C13       1.0  0.077353775741764  0.9204351714852926  0.2749656172927444  1.0000
  C   C14       1.0  0.08837520320824119  0.9851355301361695  0.40663316742897204  1.0000
  N   N3        1.0  0.02987216680701789  0.2384619380774238  0.019314932930523554  1.0000
  H   H5        1.0  0.1837542571635461  0.22101754486762884  0.7236029242477371  1.0000
  H   H6        1.0  0.05771892556951788  0.3364817720180364  0.27875726467891737  1.0000
  H   H7        1.0  0.04935136457813141  0.9511395863642874  0.0480652090908238  1.0000
  H   H8        1.0  0.08130095846031397  0.804226832927369  0.2708380824074106  1.0000
  H   H9        1.0  0.15269099422362997  0.6903735777596272  0.6212244399063218  1.0000
  H   H10       1.0  0.02369993205687582  0.35053533693520156  0.019268123478147103  1.0000
  H   H11       1.0  0.020936590147094373  0.18994579207589665  0.9218950929082852  1.0000
  C   C15       1.0  0.08554428246103823  0.5570081830023753  0.9841938022485746  1.0000
  C   C16       1.0  0.0031538044215502227  0.5487290135938558  0.05816050796802163  1.0000
  C   C17       1.0  0.9216539195838527  0.5521395039770196  0.9832047594265814  1.0000
  C   C18       1.0  0.9225510761776844  0.5685179369496192  0.8318268912654792  1.0000
  C   C19       1.0  0.003580551251831873  0.5746446653597366  0.756660153271631  1.0000
  C   C20       1.0  0.08570581428398816  0.566097517781424  0.8306311121028647  1.0000
  N   N4        1.0  0.8390188384250814  0.5470803153668277  0.06322856435785162  1.0000
  C   C21       1.0  0.7578779266520068  0.4806563802633042  0.01656836018475394  1.0000
  O   O1        1.0  0.7569112373818988  0.4043203331315419  0.9093579725465837  1.0000
  H   H12       1.0  0.29729737859312094  0.6571683870608789  0.08032294483948355  1.0000
  H   H13       1.0  0.8607442567155179  0.5781219191456353  0.771194617397331  1.0000
  H   H14       1.0  0.22899191546456776  0.6274603614165035  0.545411957910428  1.0000
  H   H15       1.0  0.8389470241734275  0.585433987357777  0.1665769991391317  1.0000
  H   H16       1.0  0.6967265843500045  0.49275361969104914  0.07696695245481777  1.0000
  Zn  Zn1       1.0  0.9874649413791217  0.5615545791531988  0.4074145404987448  1.0000
  Zn  Zn2       1.0  0.18377657674079073  0.5615504402807705  0.4074096898333315  1.0000
  C   C22       1.0  0.0856359751931275  0.5586330264610837  0.6706468897197055  1.0000
  C   C23       1.0  0.08560769848735417  0.5644738144688448  0.1441774786649701  1.0000
  C   C24       1.0  0.08732981275401702  0.8249415527802226  0.40118467679279113  1.0000
  C   C25       1.0  0.08391378270183747  0.29816355594109734  0.4136397716185545  1.0000
  O   O2        1.0  0.16012818316065702  0.5669714849432848  0.19786763271482077  1.0000
  O   O3        1.0  0.16011147227301797  0.5561311220410017  0.6169526412588491  1.0000
  O   O4        1.0  0.16147826352550035  0.7711786410880124  0.3993599950958955  1.0000
  O   O5        1.0  0.1587613249666836  0.3519239750559888  0.41546017080031405  1.0000
  O   O6        1.0  0.01248012616171069  0.7711810443808822  0.39936405952583365  1.0000
  O   O7        1.0  0.011113346142337398  0.5561352575453815  0.6169566256561902  1.0000
  O   O8        1.0  0.011130056432522968  0.5669755515748405  0.1978698844627862  1.0000
  O   O9        1.0  0.009763198188522674  0.35192803253073085  0.41546253061981164  1.0000
