data_image0
_chemical_formula_structural       NC8NC6H8C13OH12C15H12Zn2C4O8
_chemical_formula_sum              "N2 C46 H32 O9 Zn2"
_cell_length_a       17.457602349358154
_cell_length_b       10.299150109392551
_cell_length_c       10.299157797200024
_cell_angle_alpha    85.5240492146119
_cell_angle_beta     92.89892803241439
_cell_angle_gamma    91.67070309183428

_space_group_name_H-M_alt    "P 1"
_space_group_IT_number       1

loop_
  _space_group_symop_operation_xyz
  'x, y, z'

loop_
  _atom_site_type_symbol
  _atom_site_label
  _atom_site_symmetry_multiplicity
  _atom_site_fract_x
  _atom_site_fract_y
  _atom_site_fract_z
  _atom_site_occupancy
  N   N1        1.0  0.7218289052001453  0.45330053722560354  0.6258446978979315  1.0000
  C   C1        1.0  0.660757207580577  0.4073751440357538  0.6152455083896015  1.0000
  C   C2        1.0  0.5847814338510314  0.35024966708520866  0.6020696572079396  1.0000
  C   C3        1.0  0.5262626615997249  0.3903939218796615  0.6769581768919181  1.0000
  C   C4        1.0  0.45172471213661597  0.33538668203207533  0.6643960111981626  1.0000
  C   C5        1.0  0.3896156497297439  0.3777730380859293  0.7437058422522644  1.0000
  C   C6        1.0  0.3150524715175057  0.3962577555497986  0.6879308333893672  1.0000
  C   C7        1.0  0.2565337565031444  0.43621804344873083  0.7629273851309712  1.0000
  C   C8        1.0  0.18053179111727832  0.4553092536915768  0.704936506880059  1.0000
  N   N2        1.0  0.11943912869984902  0.4706522065652927  0.6583119942423765  1.0000
  C   C9        1.0  0.2720861295217045  0.4579366339018143  0.8942074123359527  1.0000
  C   C10       1.0  0.34586462036641313  0.4398408240650722  0.9503699033144446  1.0000
  C   C11       1.0  0.40437180310111254  0.40006047857912974  0.87583104167304  1.0000
  C   C12       1.0  0.4369939749355303  0.23955811072638306  0.57551254691184  1.0000
  C   C13       1.0  0.49550106950334893  0.19969244618631785  0.5010239573214992  1.0000
  C   C14       1.0  0.5692543603057171  0.25481192028091443  0.514136074684638  1.0000
  H   H1        1.0  0.5386079834372821  0.4655752192375423  0.7435657943015199  1.0000
  H   H2        1.0  0.3026865056868349  0.38131409490356405  0.5859037805060556  1.0000
  H   H3        1.0  0.22723302681080074  0.48880553312126274  0.9530363059197977  1.0000
  H   H4        1.0  0.35771649258565513  0.4563423496181411  0.0520230756149217  1.0000
  H   H5        1.0  0.4608710191680031  0.38505519518274967  0.9219468964563058  1.0000
  H   H6        1.0  0.38051543505068874  0.19422243462363564  0.5648770142839259  1.0000
  H   H7        1.0  0.4836690660663737  0.12562800884815428  0.43321749906476786  1.0000
  H   H8        1.0  0.6141077911693896  0.2230731270175963  0.455818676710618  1.0000
  C   C15       1.0  0.9207100274104524  0.08057998693649004  0.6422286875183651  1.0000
  C   C16       1.0  0.9193287290256612  0.06867578184194477  0.7789344205279092  1.0000
  C   C17       1.0  0.9185615637686948  0.9455026578963056  0.8479779633564695  1.0000
  C   C18       1.0  0.9191807237414077  0.8334140837357256  0.7785589193032738  1.0000
  C   C19       1.0  0.9205653434811834  0.8433630024867992  0.6419398613966548  1.0000
  C   C20       1.0  0.9213240138076707  0.9674058760190648  0.5745733090017777  1.0000
  C   C21       1.0  0.917093596332503  0.9338908423972241  0.9925064531280783  1.0000
  C   C22       1.0  0.8699332179086696  0.8389327700773341  0.056680807839628033  1.0000
  C   C23       1.0  0.8685264439098085  0.828086363357515  0.1926798967286214  1.0000
  C   C24       1.0  0.9147578261202716  0.9110595262084928  0.2670042823394647  1.0000
  C   C25       1.0  0.9611843432281226  0.0069390208673341175  0.20341261160023102  1.0000
  C   C26       1.0  0.962608926320303  0.017962001888218504  0.06741468820234364  1.0000
  C   C27       1.0  0.9116329297458158  0.9016882625755838  0.4128437104378335  1.0000
  O   O1        1.0  0.8542994225772322  0.9823499572619243  0.44840503024453426  1.0000
  H   H9        1.0  0.9228188493921361  0.3103208158773411  0.38414950932576675  1.0000
  H   H10       1.0  0.9177826943611549  0.1553649627466897  0.8318197752176898  1.0000
  H   H11       1.0  0.9196307792504507  0.7382944500239441  0.8314321942711251  1.0000
  H   H12       1.0  0.9223898414983298  0.9757958885752235  0.4691947644013781  1.0000
  H   H13       1.0  0.9210462778665469  0.5197119840547306  0.5893871635985077  1.0000
  H   H14       1.0  0.8332302381343725  0.774339035729205  0.0015721233782656201  1.0000
  H   H15       1.0  0.8312170040097409  0.7551125012921217  0.24001178588073346  1.0000
  H   H16       1.0  0.9964742949158285  0.07302382316753508  0.25915216199055857  1.0000
  H   H17       1.0  0.9999442600771484  0.09138216975766265  0.020891602666287975  1.0000
  H   H18       1.0  0.9680763084616202  0.9319678148001042  0.4576249505701048  1.0000
  H   H19       1.0  0.8991737197363239  0.7991111887348588  0.449641076637059  1.0000
  H   H20       1.0  0.8546061220336529  0.9726552819968516  0.5450622606178412  1.0000
  C   C28       1.0  0.9205487119676852  0.46207389477087635  0.26068493222261147  1.0000
  C   C29       1.0  0.8406406969365179  0.44060591357397194  0.2543416473575615  1.0000
  C   C30       1.0  0.8002892694961872  0.42961919047951536  0.13399654804282624  1.0000
  C   C31       1.0  0.8408686914660857  0.4404071146831219  0.019093045684506427  1.0000
  C   C32       1.0  0.9207266308317698  0.46186911556432814  0.023483559717634828  1.0000
  C   C33       1.0  0.9601003230464056  0.47257141895067906  0.1447717529450998  1.0000
  C   C34       1.0  0.7158086016366796  0.40692808315010986  0.12833657180902813  1.0000
  C   C35       1.0  0.6813034560937459  0.3184362913142438  0.04444356608727107  1.0000
  C   C36       1.0  0.6018035905470096  0.29717606418132836  0.03914951519731292  1.0000
  C   C37       1.0  0.5553930244337657  0.3633366817582302  0.1181651293216075  1.0000
  C   C38       1.0  0.5894874184442878  0.4526561633178738  0.20104757225005818  1.0000
  C   C39       1.0  0.668986509639129  0.47392055535091615  0.20648950911186656  1.0000
  C   C40       1.0  0.4697487434985906  0.3427826753619141  0.11011490150088621  1.0000
  C   C41       1.0  0.43522665878773215  0.4350510848117599  0.009851000196148485  1.0000
  C   C42       1.0  0.4068546432425257  0.5109240106435473  0.9274075469094889  1.0000
  H   H21       1.0  0.07143209036494082  0.5018014848958983  0.48001749598692295  1.0000
  H   H22       1.0  0.809782992444133  0.43063373911406744  0.3433627941200459  1.0000
  H   H23       1.0  0.8098999382020828  0.43381719219555864  0.925933856301481  1.0000
  H   H24       1.0  0.02169716928704202  0.4891219282610557  0.14887402454004683  1.0000
  H   H25       1.0  0.9514458291538335  0.47008281812244057  0.6977002071415557  1.0000
  H   H26       1.0  0.7158909599502226  0.2645756492177507  0.9839158626879944  1.0000
  H   H27       1.0  0.5764153992901562  0.22890704940809847  0.9735416749360697  1.0000
  H   H28       1.0  0.5544519335328512  0.5061880522554081  0.2611938082911842  1.0000
  H   H29       1.0  0.6937485364771936  0.5442696409852548  0.2704042129729394  1.0000
  H   H30       1.0  0.4544557377948164  0.24186706577341233  0.08545728869930569  1.0000
  H   H31       1.0  0.4453237891388904  0.3571629466699826  0.20533616295729984  1.0000
  H   H32       1.0  0.38196794315044397  0.577538860539239  0.8550314608328362  1.0000
  Zn  Zn1       1.0  0.8365706292909187  0.45830436921282164  0.6352215586762184  1.0000
  Zn  Zn2       1.0  0.004697394859537905  0.4656377231331034  0.6489457708719295  1.0000
  C   C43       1.0  0.9206922912266876  0.45673371723817274  0.8793001326496112  1.0000
  C   C44       1.0  0.9205775685817229  0.4672100938917412  0.404867473622571  1.0000
  C   C45       1.0  0.9205875347921095  0.6991820314223371  0.6368185304124804  1.0000
  C   C46       1.0  0.9206822679585202  0.22476021677109265  0.6473491410116339  1.0000
  O   O2        1.0  0.9843904855330462  0.4717111526795321  0.4584647207897615  1.0000
  O   O3        1.0  0.9844836992520297  0.457797524700545  0.8361188714774862  1.0000
  O   O4        1.0  0.9843982473232479  0.6535775667034142  0.640313191351104  1.0000
  O   O5        1.0  0.9844758800670717  0.2759311174913195  0.6542702988470479  1.0000
  O   O6        1.0  0.8567920867099693  0.6480109723535079  0.6298970260108678  1.0000
  O   O7        1.0  0.8568775383231162  0.45223249078602307  0.8257026362950863  1.0000
  O   O8        1.0  0.8567843242994713  0.46614607392714286  0.44804692410344965  1.0000
  O   O9        1.0  0.8568697188548372  0.2703660294231749  0.6438525995396005  1.0000
