data_image0
_chemical_formula_structural       NC9NC5H8C6NO2H5C9H10Zn2C4O8
_chemical_formula_sum              "N3 C33 H23 O10 Zn2"
_cell_length_a       17.807436237873137
_cell_length_b       9.273392599741051
_cell_length_c       9.272679976505533
_cell_angle_alpha    86.14793757912345
_cell_angle_beta     89.80029134641114
_cell_angle_gamma    87.79638846343423

_space_group_name_H-M_alt    "P 1"
_space_group_IT_number       1

loop_
  _space_group_symop_operation_xyz
  'x, y, z'

loop_
  _atom_site_type_symbol
  _atom_site_label
  _atom_site_symmetry_multiplicity
  _atom_site_fract_x
  _atom_site_fract_y
  _atom_site_fract_z
  _atom_site_occupancy
  N   N1        1.0  0.6933937242420755  0.5290584045139846  0.40177279623755546  1.0000
  C   C1        1.0  0.6329737667389327  0.48987068493365626  0.3894477773393865  1.0000
  C   C2        1.0  0.5578179802163221  0.4411254772045414  0.3741167922020554  1.0000
  C   C3        1.0  0.539740581419145  0.36087664889089194  0.2573783697038452  1.0000
  C   C4        1.0  0.46676852743933034  0.3134242276459347  0.24240097146081885  1.0000
  C   C5        1.0  0.4108272901744583  0.3458009608649397  0.34412503118149074  1.0000
  C   C6        1.0  0.3332764423773862  0.29549963255700207  0.32829933006171164  1.0000
  C   C7        1.0  0.27071206029277  0.38654717368260716  0.35729708830555706  1.0000
  C   C8        1.0  0.1975989732882517  0.33886932023489047  0.3423343709996225  1.0000
  C   C9        1.0  0.1339697943463103  0.4329098082619167  0.3717427946037293  1.0000
  N   N2        1.0  0.08282495494676041  0.508511864066872  0.3953863461683529  1.0000
  C   C10       1.0  0.1864681708842524  0.19985711935912942  0.2983451124788321  1.0000
  C   C11       1.0  0.24817523312886638  0.10879411684520714  0.26933800656370877  1.0000
  C   C12       1.0  0.3211704554339179  0.1560319164955588  0.28407490887531406  1.0000
  C   C13       1.0  0.4295939932567173  0.42660088265144225  0.46110804592527477  1.0000
  C   C14       1.0  0.502619446389281  0.4738404416311335  0.47591218649695577  1.0000
  H   H1        1.0  0.5819873934675552  0.33527323315326996  0.17771619949882633  1.0000
  H   H2        1.0  0.4538507654014257  0.2530668878093558  0.15021972245422943  1.0000
  H   H3        1.0  0.2787388656011008  0.49507083951481295  0.38959550788705477  1.0000
  H   H4        1.0  0.13016549184619527  0.1619547457629631  0.2864992324782061  1.0000
  H   H5        1.0  0.23944042725582984  0.0011710232308570418  0.23570909117221153  1.0000
  H   H6        1.0  0.3681304723509331  0.08283092638966116  0.26276601256857357  1.0000
  H   H7        1.0  0.3880724029151462  0.4516167597628105  0.542205855589887  1.0000
  H   H8        1.0  0.5160541264539071  0.5355446304365055  0.5669401996166727  1.0000
  C   C15       1.0  0.8904003839228527  0.09512831490278684  0.3976354421097361  1.0000
  C   C16       1.0  0.8803629838149527  0.17793296635965516  0.26610437318372315  1.0000
  C   C17       1.0  0.8637111761395045  0.11268331638398331  0.13946043296001776  1.0000
  C   C18       1.0  0.8565478714598409  0.9626552900868047  0.14081637619603815  1.0000
  C   C19       1.0  0.8677538344159492  0.8786124383606351  0.271322951085589  1.0000
  C   C20       1.0  0.8858255780923971  0.942430572405107  0.3995360413631446  1.0000
  N   N3        1.0  0.8387117501795641  0.8960163109375807  0.009964493443778812  1.0000
  O   O1        1.0  0.8283969416164547  0.9786174504487343  0.8821418747315454  1.0000
  O   O2        1.0  0.8320953932903508  0.7624340134182109  0.01030315610857091  1.0000
  H   H9        1.0  0.8763555607183672  0.1752282334193187  0.7517042880554532  1.0000
  H   H10       1.0  0.8836328173966228  0.29456817209073854  0.2617912911535434  1.0000
  H   H11       1.0  0.8556808298966043  0.18021813023647543  0.0405060978087437  1.0000
  H   H12       1.0  0.8641279604104637  0.7622099403343089  0.27240864265923737  1.0000
  H   H13       1.0  0.8789325834094309  0.6466548142818587  0.6387875593297685  1.0000
  C   C21       1.0  0.8866078759699052  0.5154531364217756  0.9752404279922975  1.0000
  C   C22       1.0  0.9381550927388749  0.42351825029935575  0.05446902788477193  1.0000
  C   C23       1.0  0.9933395708794832  0.34307897176859165  0.9847959367650457  1.0000
  C   C24       1.0  0.9988425289527951  0.3519265208319672  0.8338631355990067  1.0000
  C   C25       1.0  0.9464039362609924  0.4419509947367071  0.7532606582259502  1.0000
  C   C26       1.0  0.8896180732891008  0.5221058068426148  0.8219311380588303  1.0000
  C   C27       1.0  0.061084727658779585  0.261761071023801  0.7665069112046226  1.0000
  C   C28       1.0  0.043548918324662234  0.19668150887695313  0.6245523606983743  1.0000
  C   C29       1.0  0.09570387713616355  0.3230715175549841  0.6261569174949226  1.0000
  H   H14       1.0  0.7729403476548511  0.6189655382147812  0.2502655591587255  1.0000
  H   H15       1.0  0.9370048279142268  0.41630372057452697  0.1715468134729461  1.0000
  H   H16       1.0  0.032599271818178684  0.27435460077226814  0.04964085264908613  1.0000
  H   H17       1.0  0.9480511078208844  0.44809907384786213  0.6364681801088019  1.0000
  H   H18       1.0  0.718290708269357  0.6668285342027727  0.7103305014627423  1.0000
  H   H19       1.0  0.10070805150382185  0.19478956198380404  0.8379035535630277  1.0000
  H   H20       1.0  0.9876015358405539  0.2242456482301305  0.5758413032077225  1.0000
  H   H21       1.0  0.07329622162931027  0.09128064533869829  0.6095467437439499  1.0000
  H   H22       1.0  0.07147425169899013  0.427342674252009  0.5783031035479391  1.0000
  H   H23       1.0  0.1559422985166798  0.2915301628367746  0.6120850995316793  1.0000
  Zn  Zn1       1.0  0.8057752144795153  0.5231253327487986  0.39993813355568886  1.0000
  Zn  Zn2       1.0  0.9704435521436731  0.5144332689409894  0.3972328342331848  1.0000
  C   C30       1.0  0.8890784443334904  0.5151010225356438  0.6618755569247041  1.0000
  C   C31       1.0  0.8871421111375145  0.522459305665405  0.1352955269020315  1.0000
  C   C32       1.0  0.8866660201474935  0.7822275030119934  0.39343208480505143  1.0000
  C   C33       1.0  0.889554488765599  0.25533109544351595  0.40373907291628885  1.0000
  O   O3        1.0  0.9498122152902218  0.5215057531672675  0.18798481910504372  1.0000
  O   O4        1.0  0.9513878027028249  0.5094564081053923  0.6071325876964986  1.0000
  O   O5        1.0  0.9494389025872038  0.7251644756101909  0.3903626018826005  1.0000
  O   O6        1.0  0.9517610587756743  0.30579769809953383  0.40475469777274986  1.0000
  O   O7        1.0  0.8244576516542567  0.7317609065579405  0.3924162709317305  1.0000
  O   O8        1.0  0.8264065421345329  0.5160545717663663  0.6091861837666304  1.0000
  O   O9        1.0  0.8248309488811528  0.5281038529328308  0.19003668180105193  1.0000
  O   O10       1.0  0.8267797928035167  0.3123957883957176  0.4068066685305569  1.0000
