data_image0
_chemical_formula_structural       NC9NC5H8C7OC3FC3H8C7OC6H10Zn2C4O8
_chemical_formula_sum              "N2 C44 H26 O10 F1 Zn2"
_cell_length_a       17.807436237873137
_cell_length_b       10.299378350833068
_cell_length_c       10.299382801718286
_cell_angle_alpha    85.56292937340861
_cell_angle_beta     89.37299496534969
_cell_angle_gamma    88.41049276798935

_space_group_name_H-M_alt    "P 1"
_space_group_IT_number       1

loop_
  _space_group_symop_operation_xyz
  'x, y, z'

loop_
  _atom_site_type_symbol
  _atom_site_label
  _atom_site_symmetry_multiplicity
  _atom_site_fract_x
  _atom_site_fract_y
  _atom_site_fract_z
  _atom_site_occupancy
  N   N1        1.0  0.7079835299677878  0.38751657464451306  0.5569041229664898  1.0000
  C   C1        1.0  0.6473908721918809  0.3523236230466478  0.5458856128776396  1.0000
  C   C2        1.0  0.5720202656193538  0.30854746690614787  0.532179782695732  1.0000
  C   C3        1.0  0.553934730189482  0.23710975393172906  0.42718737508500076  1.0000
  C   C4        1.0  0.4807537536475585  0.1944949638942122  0.41379728566209206  1.0000
  C   C5        1.0  0.42460952210503794  0.22294033930401944  0.5053672107732441  1.0000
  C   C6        1.0  0.3468370164373631  0.17776672890496073  0.4912190703817062  1.0000
  C   C7        1.0  0.2846725131489519  0.2595304529088936  0.5171454216160363  1.0000
  C   C8        1.0  0.2113491869267166  0.21671262123797108  0.5037690450163341  1.0000
  C   C9        1.0  0.1481350805542029  0.30116785051943884  0.5300588824625722  1.0000
  N   N2        1.0  0.0973239262546723  0.36906401212492335  0.5511951861868374  1.0000
  C   C10       1.0  0.1996067706145044  0.09187307277797507  0.4644410074340133  1.0000
  C   C11       1.0  0.26091390286039823  0.010095494418059122  0.4385062686039196  1.0000
  C   C12       1.0  0.33411775515459896  0.05251873350303127  0.4516801669266184  1.0000
  C   C13       1.0  0.44338652137138157  0.29487247651310855  0.6105787724787217  1.0000
  C   C14       1.0  0.5166203604302948  0.3372968359937065  0.6238132397647549  1.0000
  H   H1        1.0  0.5963391206645455  0.21460986138421334  0.35547765041608725  1.0000
  H   H2        1.0  0.46784640816822515  0.1407948854569292  0.33088464554183794  1.0000
  H   H3        1.0  0.2931845063082447  0.3570039313183137  0.546007459048359  1.0000
  H   H4        1.0  0.1431367730539177  0.057833923836633216  0.4538513599100913  1.0000
  H   H5        1.0  0.2517039717639126  0.9134419063289299  0.40844368421081867  1.0000
  H   H6        1.0  0.3807487039825674  0.9867679889197739  0.4326418887363257  1.0000
  H   H7        1.0  0.4016986442489897  0.31683355580024886  0.6835830880263136  1.0000
  H   H8        1.0  0.5300565139618103  0.3922173340552093  0.7056840560635806  1.0000
  C   C15       1.0  0.9025781202875636  0.9969089334721154  0.5541148005928748  1.0000
  C   C16       1.0  0.8241984441450013  0.0006284826712854546  0.5392392613706658  1.0000
  C   C17       1.0  0.784570226027404  0.8852215065222175  0.5332152075400106  1.0000
  C   C18       1.0  0.8243821390711217  0.7653757748806391  0.5392434431173656  1.0000
  C   C19       1.0  0.9027364922916633  0.7596613798324688  0.5539956844503585  1.0000
  C   C20       1.0  0.9413578717402705  0.8759706285885593  0.5616882775061077  1.0000
  C   C21       1.0  0.7018997987694066  0.889106812063709  0.5161330977999897  1.0000
  O   O1        1.0  0.6728952667677814  0.8057791749826435  0.4498972468523709  1.0000
  C   C22       1.0  0.6521332816929776  0.9874232354886825  0.5742018631085138  1.0000
  C   C23       1.0  0.5852247609632093  0.030581101885849064  0.5114019570455905  1.0000
  C   C24       1.0  0.5374917971111892  0.12210987554085741  0.5661628783695534  1.0000
  F   F1        1.0  0.47340373922845025  0.16382633105974787  0.5043829783707912  1.0000
  C   C25       1.0  0.5557535302403626  0.17056225268809366  0.6845004361337721  1.0000
  C   C26       1.0  0.6215832886657392  0.12720338172250473  0.7485307256290817  1.0000
  C   C27       1.0  0.6694715127178504  0.0357389295924293  0.6941722407519448  1.0000
  H   H9        1.0  0.7939725386473775  0.09357088528784767  0.5308693099065761  1.0000
  H   H10       1.0  0.7939701070933508  0.6763474683111372  0.5336370519425744  1.0000
  H   H11       1.0  0.0017827774801335518  0.8722991291014046  0.5731554706874036  1.0000
  H   H12       1.0  0.932907576904238  0.4300907849785124  0.5585657141873055  1.0000
  H   H13       1.0  0.5702748535589769  0.9942713859151905  0.4194625974812345  1.0000
  H   H14       1.0  0.5187823681290235  0.24130994753594345  0.7269216120411894  1.0000
  H   H15       1.0  0.635371722831438  0.16405534613135364  0.8407006865993557  1.0000
  H   H16       1.0  0.719527844211875  0.0018140967951449961  0.746590543756577  1.0000
  C   C28       1.0  0.9027322397383742  0.3782083651326098  0.17268436401676457  1.0000
  C   C29       1.0  0.9816572901025179  0.37533126440556996  0.17022330146675624  1.0000
  C   C30       1.0  0.021464538359225564  0.3723920126694784  0.05192412816144687  1.0000
  C   C31       1.0  0.9814742269956408  0.3753679784516788  0.9349804127342352  1.0000
  C   C32       1.0  0.902582357825208  0.37836193022868536  0.9354260734610671  1.0000
  C   C33       1.0  0.8636689210703664  0.3794200240971497  0.05483721595322999  1.0000
  C   C34       1.0  0.10479941990620545  0.3707381642094958  0.0490733483252479  1.0000
  O   O2        1.0  0.1379129785538158  0.42988013263518426  0.9540516549386147  1.0000
  C   C35       1.0  0.15056880978828668  0.30198302866204463  0.15391859230182225  1.0000
  C   C36       1.0  0.22119186577220717  0.3490977550394223  0.18397674060390057  1.0000
  C   C37       1.0  0.26512976914114916  0.2840788864160149  0.28159652604944635  1.0000
  C   C38       1.0  0.2393644444044729  0.17099175612991635  0.34935576216691094  1.0000
  C   C39       1.0  0.16973728420628098  0.1223828076600535  0.3192602136883764  1.0000
  C   C40       1.0  0.12558529019926423  0.18703309508571617  0.22174568614101073  1.0000
  H   H17       1.0  0.7537892728650163  0.38564964174818106  0.3844929867975808  1.0000
  H   H18       1.0  0.01226339492857331  0.37683130332859616  0.26037291788676414  1.0000
  H   H19       1.0  0.01208746680336903  0.37408844067151126  0.8435800230823762  1.0000
  H   H20       1.0  0.8028236540264098  0.38163885071543646  0.05593027432568043  1.0000
  H   H21       1.0  0.8722758107542549  0.38061708662867266  0.6080552933571542  1.0000
  H   H22       1.0  0.2420674487048382  0.43678504927608985  0.1327215878830743  1.0000
  H   H23       1.0  0.31921558937870687  0.32140090549788947  0.3046700530304562  1.0000
  H   H24       1.0  0.27348193286014255  0.12074552240011793  0.42480633855893596  1.0000
  H   H25       1.0  0.1500844495307012  0.0341816346745043  0.3711262690931423  1.0000
  H   H26       1.0  0.07240087068702783  0.14638605118158776  0.1984732232880457  1.0000
  Zn  Zn1       1.0  0.8203387547325702  0.3821880998130065  0.555264158503874  1.0000
  Zn  Zn2       1.0  0.9849686789968057  0.37438190259078064  0.5528458289696341  1.0000
  C   C41       1.0  0.9026079610770902  0.3731591298853294  0.791252424103034  1.0000
  C   C42       1.0  0.9027012707211686  0.38341242597306224  0.31685766417357897  1.0000
  C   C43       1.0  0.9027037180706287  0.6154840506109116  0.548843053414831  1.0000
  C   C44       1.0  0.9026054572133317  0.1410859475722812  0.5592671051696617  1.0000
  O   O3        1.0  0.96516707434177  0.38219087924335676  0.36432579817542415  1.0000
  O   O4        1.0  0.9650924605658984  0.36845497371714475  0.7419484602460924  1.0000
  O   O5        1.0  0.9651689430748519  0.5641354520265291  0.5462011904897557  1.0000
  O   O6        1.0  0.9650905356768352  0.18651041286861658  0.5600729713803538  1.0000
  O   O7        1.0  0.8402168418724287  0.5700595922004545  0.5480370169115802  1.0000
  O   O8        1.0  0.8401403596976618  0.37438067423155313  0.7437842171784634  1.0000
  O   O9        1.0  0.8402149738208643  0.3881165341836283  0.3661599937054158  1.0000
  O   O10       1.0  0.840138435131799  0.19243605853952794  0.561907264280179  1.0000
