data_image0
_chemical_formula_structural       NC10NC3NH7C13OH12C12SCH12Zn2C4O8
_chemical_formula_sum              "N3 C43 H31 O9 S1 Zn2"
_cell_length_a       19.210446455230148
_cell_length_b       10.299150109392551
_cell_length_c       10.299780138516091
_cell_angle_alpha    85.5566253413432
_cell_angle_beta     89.98277112440111
_cell_angle_gamma    89.9285097185194

_space_group_name_H-M_alt    "P 1"
_space_group_IT_number       1

loop_
  _space_group_symop_operation_xyz
  'x, y, z'

loop_
  _atom_site_type_symbol
  _atom_site_label
  _atom_site_symmetry_multiplicity
  _atom_site_fract_x
  _atom_site_fract_y
  _atom_site_fract_z
  _atom_site_occupancy
  N   N1        1.0  0.6553257931922519  0.4198943099971888  0.5669399596633293  1.0000
  C   C1        1.0  0.5950966679936824  0.4221020297906581  0.5671703997570785  1.0000
  C   C2        1.0  0.5202915144823427  0.4248391979999664  0.5674558856231731  1.0000
  C   C3        1.0  0.4846500877042994  0.5410812467528362  0.5825302419902461  1.0000
  C   C4        1.0  0.4119845719791254  0.541232779681496  0.5824775993514208  1.0000
  C   C5        1.0  0.3751245736950026  0.4255482337214104  0.5675421407564034  1.0000
  C   C6        1.0  0.2978028015738017  0.4241916300973356  0.567391984315887  1.0000
  C   C7        1.0  0.2600252895361351  0.5277519852075655  0.5040006141944835  1.0000
  C   C8        1.0  0.18724730088538696  0.5263496345585125  0.5038919879133559  1.0000
  C   C9        1.0  0.1512453496423672  0.4216444416096552  0.5671236561486466  1.0000
  C   C10       1.0  0.07631617204829282  0.4203422392065388  0.566987245151825  1.0000
  N   N2        1.0  0.016078595078235107  0.4192952242721091  0.5668776055985181  1.0000
  C   C11       1.0  0.188299173145213  0.31820978046758785  0.6304899793545309  1.0000
  C   C12       1.0  0.2610790786978927  0.31933785876937665  0.6306489356057332  1.0000
  C   C13       1.0  0.4133753786369704  0.31112663524617595  0.5527553602062814  1.0000
  N   N3        1.0  0.4841446872273611  0.3135718119660571  0.5529201429861019  1.0000
  H   H1        1.0  0.5127273699630495  0.630523830121851  0.5945498425171758  1.0000
  H   H2        1.0  0.3846918151911802  0.6312576356772439  0.5958916709399931  1.0000
  H   H3        1.0  0.2867340577810146  0.6089970589574163  0.4529868418805645  1.0000
  H   H4        1.0  0.1590825245119785  0.606767302682465  0.4542088048897683  1.0000
  H   H5        1.0  0.1609508716190319  0.23682862693052575  0.6800739867796604  1.0000
  H   H6        1.0  0.2885988804442527  0.2390397653586642  0.6817697365100135  1.0000
  H   H7        1.0  0.387134166780091  0.2202387904911658  0.5392953163058165  1.0000
  C   C14       1.0  0.8357711160257735  0.03819506518291127  0.5670528913677222  1.0000
  C   C15       1.0  0.8344788574346111  0.026431336128064597  0.7038572943585825  1.0000
  C   C16       1.0  0.8337631062402571  0.903332302533774  0.772956359144507  1.0000
  C   C17       1.0  0.8343446754510739  0.7911761124461855  0.7034939399611119  1.0000
  C   C18       1.0  0.8356399228851144  0.8009844545417061  0.5667759312886733  1.0000
  C   C19       1.0  0.836347488348297  0.924954579097403  0.4993543761165477  1.0000
  C   C20       1.0  0.8323899805357332  0.891869346248463  0.9175897890080162  1.0000
  C   C21       1.0  0.7895818534608307  0.799079236069895  0.9856153425983396  1.0000
  C   C22       1.0  0.7882666816286596  0.7883740532588502  0.12171525953828742  1.0000
  C   C23       1.0  0.8301924244539434  0.8693003127853186  0.1922499280662473  1.0000
  C   C24       1.0  0.8723345340429287  0.9630453434281514  0.1248670304331706  1.0000
  C   C25       1.0  0.8736658641944964  0.9739262963580566  0.9887668220008863  1.0000
  C   C26       1.0  0.8273155504973813  0.8601535385430911  0.3383297028700708  1.0000
  O   O1        1.0  0.7752852369526985  0.9434266139497928  0.37857742627640156  1.0000
  H   H8        1.0  0.8377580756245789  0.2676932419686464  0.30882824806926545  1.0000
  H   H9        1.0  0.8330610240780705  0.11322058151130118  0.7568635792273717  1.0000
  H   H10       1.0  0.8347379498535651  0.6960663268697276  0.756324857514619  1.0000
  H   H11       1.0  0.8373445817462857  0.9332362586832417  0.39389968544101217  1.0000
  H   H12       1.0  0.8360912683403758  0.47728169671193676  0.5141893982864132  1.0000
  H   H13       1.0  0.7562959991302618  0.736112758305384  0.9335148967200788  1.0000
  H   H14       1.0  0.7544013675191066  0.7171133431076804  0.1720942629716281  1.0000
  H   H15       1.0  0.9043381315501569  0.027567108411676193  0.17771386797227917  1.0000
  H   H16       1.0  0.9075544419048278  0.045632603869583566  0.9391944191939684  1.0000
  H   H17       1.0  0.878515324137336  0.8879078085564789  0.378488936190834  1.0000
  H   H18       1.0  0.8160004966997473  0.7581605438028556  0.3761424304235782  1.0000
  H   H19       1.0  0.7755359591758045  0.9337732635804419  0.4751994379938729  1.0000
  C   C27       1.0  0.8357335172650348  0.41947842434309557  0.1855623166956346  1.0000
  C   C28       1.0  0.769557677644593  0.36157211417501345  0.18908924060976504  1.0000
  C   C29       1.0  0.7359982952440987  0.33234484723277125  0.07372940762336898  1.0000
  C   C30       1.0  0.769500650196791  0.3617976659264929  0.9537852720994575  1.0000
  C   C31       1.0  0.8356775281972113  0.4197011506610253  0.9482665107342018  1.0000
  C   C32       1.0  0.8684233588046532  0.44821806650291157  0.06467821413110553  1.0000
  C   C33       1.0  0.6659888493374181  0.27109985518576196  0.0785234013112277  1.0000
  C   C34       1.0  0.614428349112734  0.3128497965063842  0.9875607080831411  1.0000
  C   C35       1.0  0.5485507224448642  0.255175883451364  0.9923093315092605  1.0000
  C   C36       1.0  0.5332726839691012  0.15538344089107234  0.08791094975049019  1.0000
  C   C37       1.0  0.5842138068448802  0.11283553112830245  0.17846838972657286  1.0000
  C   C38       1.0  0.65013452820505  0.1703359288607651  0.1740822297570832  1.0000
  S   S1        1.0  0.4487712082098006  0.08124662177500519  0.0935539123783038  1.0000
  C   C39       1.0  0.4130545356613642  0.1955303441210585  0.20224756432543778  1.0000
  H   H20       1.0  0.8609597006162675  0.4414958367375117  0.5116754221703073  1.0000
  H   H21       1.0  0.743546784293377  0.34069131144171116  0.2816506813929889  1.0000
  H   H22       1.0  0.744262434415822  0.3378362485976341  0.8647261417531048  1.0000
  H   H23       1.0  0.9194753641274944  0.49288953598360674  0.06118897065247841  1.0000
  H   H24       1.0  0.860878518472808  0.4418234616637604  0.6187057485314038  1.0000
  H   H25       1.0  0.6247657887456173  0.39120672961425823  0.9138522050496638  1.0000
  H   H26       1.0  0.5093239515511346  0.28857697154108264  0.9219727018098042  1.0000
  H   H27       1.0  0.5728123312260165  0.035176395493751386  0.25230168847363976  1.0000
  H   H28       1.0  0.6889871330431613  0.13488430923378103  0.24431885387272922  1.0000
  H   H29       1.0  0.4424905939929147  0.1894508750271675  0.29525877684735513  1.0000
  H   H30       1.0  0.3578182764415593  0.17049130022947437  0.223038584741563  1.0000
  H   H31       1.0  0.4157279177997493  0.2962559919082173  0.1556192295419936  1.0000
  Zn  Zn1       1.0  0.7594312583328318  0.4197179646544175  0.5669294656213586  1.0000
  Zn  Zn2       1.0  0.9119731150371011  0.4194609893184506  0.5668987387913369  1.0000
  C   C40       1.0  0.8356874414206121  0.41448495087088744  0.8041009432199185  1.0000
  C   C41       1.0  0.8357185974104423  0.4246956390849404  0.3297273877230056  1.0000
  C   C42       1.0  0.8356615175773486  0.6567995566053495  0.5616533216545303  1.0000
  C   C43       1.0  0.8357444694651304  0.1823794730298096  0.5721750791010725  1.0000
  O   O2        1.0  0.8936024307861913  0.4263433970124601  0.3780988439096189  1.0000
  O   O3        1.0  0.8935793479010657  0.4126411746985958  0.7557057926065376  1.0000
  O   O4        1.0  0.8935576336013931  0.6083132850245563  0.5599276225021559  1.0000
  O   O5        1.0  0.893624093039212  0.23067129603672715  0.5738769166507418  1.0000
  O   O6        1.0  0.777780228275672  0.6085076580252464  0.5599512877656077  1.0000
  O   O7        1.0  0.7778019423088712  0.41283710810906005  0.755729388060965  1.0000
  O   O8        1.0  0.777825025362708  0.4265392847072981  0.37812087804869665  1.0000
  O   O9        1.0  0.7778466876073316  0.23086717447044292  0.5738990481567334  1.0000
