data_image0
_chemical_formula_structural       NC12NC2H8C9H8C6SCH8Zn2C4O8
_chemical_formula_sum              "N2 C34 H24 S1 Zn2 O8"
_cell_length_a       19.240039667572717
_cell_length_b       9.275152443626249
_cell_length_c       10.302812801239591
_cell_angle_alpha    85.3632325581603
_cell_angle_beta     89.99986115562673
_cell_angle_gamma    90.57354334366605

_space_group_name_H-M_alt    "P 1"
_space_group_IT_number       1

loop_
  _space_group_symop_operation_xyz
  'x, y, z'

loop_
  _atom_site_type_symbol
  _atom_site_label
  _atom_site_symmetry_multiplicity
  _atom_site_fract_x
  _atom_site_fract_y
  _atom_site_fract_z
  _atom_site_occupancy
  N   N1        1.0  0.6620976122695514  0.5787934059893101  0.5630396805887237  1.0000
  C   C1        1.0  0.6019492439025518  0.5787934992781569  0.5630395983902936  1.0000
  C   C2        1.0  0.5271312073902684  0.5787936295628012  0.563039460727661  1.0000
  C   C3        1.0  0.4903117963819736  0.507183233657237  0.6666393356359306  1.0000
  C   C4        1.0  0.4176404537999839  0.5070600636813106  0.6667262298860448  1.0000
  C   C5        1.0  0.3807989729494272  0.5787937323884008  0.5630392328012683  1.0000
  C   C6        1.0  0.41833317148814  0.6505276088014578  0.45935242955584776  1.0000
  C   C7        1.0  0.49100326420734264  0.6504041772268601  0.4594394470734921  1.0000
  C   C8        1.0  0.30359388208827454  0.5787936450110818  0.5630391376849986  1.0000
  C   C9        1.0  0.265798896300704  0.45298092105022836  0.6052839397173735  1.0000
  C   C10       1.0  0.19312878106486367  0.45309966888322556  0.6051922776088043  1.0000
  C   C11       1.0  0.1572615944725803  0.578793501522686  0.5630391990177435  1.0000
  C   C12       1.0  0.08244355670758867  0.5787933751721688  0.5630394479888206  1.0000
  N   N2        1.0  0.0222952396363794  0.578793329822268  0.5630396564818168  1.0000
  C   C13       1.0  0.1943419191434454  0.7044874183935126  0.5208860672933573  1.0000
  C   C14       1.0  0.26701318947535485  0.704606366310141  0.5207942420257106  1.0000
  H   H1        1.0  0.517759015187894  0.4517408999667177  0.7475257309457826  1.0000
  H   H2        1.0  0.390283776413963  0.4525042456528226  0.7487250498437314  1.0000
  H   H3        1.0  0.39150331823111223  0.7050834568808779  0.37735355867331344  1.0000
  H   H4        1.0  0.518985816326688  0.7058463995407473  0.37855332781464823  1.0000
  H   H5        1.0  0.29241422261279754  0.3539450446247736  0.6367465655552789  1.0000
  H   H6        1.0  0.1649408087709923  0.35506260729581407  0.6376844684574583  1.0000
  H   H7        1.0  0.16710006785798057  0.8025244527247459  0.4883938910744392  1.0000
  H   H8        1.0  0.29458434240494796  0.8036423306870162  0.4893315711596873  1.0000
  C   C15       1.0  0.8401494547606214  0.15516108935905448  0.5643651165805013  1.0000
  C   C16       1.0  0.8150767616190392  0.23790049206634079  0.45406808709066987  1.0000
  C   C17       1.0  0.7964646915470153  0.17245914812281105  0.3417060209140954  1.0000
  C   C18       1.0  0.8026330702334837  0.023117208133752287  0.33741624846648177  1.0000
  C   C19       1.0  0.8263466410900272  0.9386896587696845  0.4467811253506022  1.0000
  C   C20       1.0  0.8442500226534762  0.0024146074801421028  0.5617254148324442  1.0000
  C   C21       1.0  0.7838026697307012  0.9559677010824503  0.22105826224065472  1.0000
  C   C22       1.0  0.7680366095350528  0.8997123483906057  0.123626692414867  1.0000
  C   C23       1.0  0.7489076118827003  0.8314444285179743  0.00541057000208545  1.0000
  H   H9        1.0  0.9400194082323596  0.23681252533612598  0.8236509310919027  1.0000
  H   H10       1.0  0.8114155538055765  0.3544179785160493  0.4536597038716961  1.0000
  H   H11       1.0  0.7778820395338392  0.2386989146671481  0.25762147610988095  1.0000
  H   H12       1.0  0.8292729542988229  0.822379628442595  0.4431593457532472  1.0000
  H   H13       1.0  0.9092614205085954  0.7071152002550063  0.739068207197203  1.0000
  H   H14       1.0  0.7616135159968007  0.714722597804831  0.01753949222537332  1.0000
  H   H15       1.0  0.692338239458865  0.8440270009952452  0.9876369377537587  1.0000
  H   H16       1.0  0.7782592826634054  0.8837929578193138  0.9213734247093557  1.0000
  C   C24       1.0  0.84219975678293  0.5787878395288035  0.1817968217413075  1.0000
  C   C25       1.0  0.819456525286415  0.7226505407315  0.17015133252143277  1.0000
  C   C26       1.0  0.8079599974042784  0.7940193037838708  0.04738198246259162  1.0000
  C   C27       1.0  0.8194564618950231  0.7226503892964921  0.9350001633040015  1.0000
  C   C28       1.0  0.842199711653893  0.5787878298069831  0.9442937254011426  1.0000
  C   C29       1.0  0.8534387157598724  0.5075469018754579  0.06822982905646446  1.0000
  S   S1        1.0  0.7790454166272842  0.9779319905240066  0.03399766970783791  1.0000
  C   C30       1.0  0.6873785837942048  0.9275293826084265  0.03766685407766191  1.0000
  H   H17       1.0  0.8507446650919768  0.5245544668858385  0.5134998652423199  1.0000
  H   H18       1.0  0.8104219666657622  0.7797932161341254  0.2560923536444266  1.0000
  H   H19       1.0  0.8104218265087928  0.7797930083254616  0.8407420413097957  1.0000
  H   H20       1.0  0.8709689285814073  0.3965696602873514  0.07630612196373376  1.0000
  H   H21       1.0  0.8507433673398229  0.5245537179269455  0.6204842820619181  1.0000
  H   H22       1.0  0.6747434382895221  0.8633530206858132  0.9542204794500537  1.0000
  H   H23       1.0  0.6747437430219606  0.8633544786138931  0.13045516694122905  1.0000
  H   H24       1.0  0.6556930599746301  0.02710230814502613  0.030420129280865463  1.0000
  Zn  Zn1       1.0  0.7660428573614033  0.5787895325708508  0.5630471716920211  1.0000
  Zn  Zn2       1.0  0.9183499563625653  0.5787854357889286  0.5630427975929075  1.0000
  C   C31       1.0  0.842170356756118  0.5730407991924749  0.8001834021938463  1.0000
  C   C32       1.0  0.8422241289661431  0.5845359893342643  0.3259066887985296  1.0000
  C   C33       1.0  0.843471346322557  0.8422656295370468  0.5570508639547656  1.0000
  C   C34       1.0  0.8409230790394653  0.31530942577549737  0.5690393016558013  1.0000
  O   O1        1.0  0.9000320283492487  0.5864572725916886  0.37426963630315924  1.0000
  O   O2        1.0  0.8999600161013713  0.5711153182768471  0.7518167645118925  1.0000
  O   O3        1.0  0.9010098024611747  0.7885177736137023  0.5554855150298192  1.0000
  O   O4        1.0  0.898982190067301  0.3690548275760001  0.570600788410661  1.0000
  O   O5        1.0  0.7854105716817376  0.7885201407867479  0.5554891808689262  1.0000
  O   O6        1.0  0.7843607937072427  0.5711194186670558  0.7518203557274674  1.0000
  O   O7        1.0  0.7844328057581269  0.5864613227106914  0.3742716667678345  1.0000
  O   O8        1.0  0.7833829674233933  0.3690588673768047  0.5706029162445674  1.0000
