data_image0
_chemical_formula_structural       NC12NC2H8C7OC6OCH11C7OC3OC4H12Zn2C4O8
_chemical_formula_sum              "N2 C46 H31 O12 Zn2"
_cell_length_a       17.80743265337812
_cell_length_b       10.299359160628079
_cell_length_c       10.299374482448636
_cell_angle_alpha    85.55316158380268
_cell_angle_beta     91.51588487774274
_cell_angle_gamma    89.45809633783337

_space_group_name_H-M_alt    "P 1"
_space_group_IT_number       1

loop_
  _space_group_symop_operation_xyz
  'x, y, z'

loop_
  _atom_site_type_symbol
  _atom_site_label
  _atom_site_symmetry_multiplicity
  _atom_site_fract_x
  _atom_site_fract_y
  _atom_site_fract_z
  _atom_site_occupancy
  N   N1        1.0  0.70799298143766  0.40698915717576417  0.6015012773782631  1.0000
  C   C1        1.0  0.6571920546686539  0.4365621540918161  0.5328056598103492  1.0000
  C   C2        1.0  0.5939906849713801  0.4733488148960028  0.44735695937198816  1.0000
  C   C3        1.0  0.6057520681639089  0.5273956562907818  0.3207428976087916  1.0000
  C   C4        1.0  0.5444572842565378  0.5626782222845759  0.23769000820244532  1.0000
  C   C5        1.0  0.4712469907523419  0.544177547323605  0.2805913056868439  1.0000
  C   C6        1.0  0.4585087247268685  0.490011807949283  0.40767349966086797  1.0000
  C   C7        1.0  0.5206608283752161  0.45473249918812336  0.4907098776185756  1.0000
  C   C8        1.0  0.3807294655805991  0.47039641753854816  0.45343497604522226  1.0000
  C   C9        1.0  0.3619278254132401  0.49755831676843604  0.580484455649471  1.0000
  C   C10       1.0  0.288687588454762  0.4790992079839948  0.6234263220722418  1.0000
  C   C11       1.0  0.2333058193226356  0.43322375823167647  0.5401566532813622  1.0000
  C   C12       1.0  0.15792860885548243  0.4142115371408586  0.5844993898092974  1.0000
  N   N2        1.0  0.09733066951481051  0.39892699005946386  0.6201478994897953  1.0000
  C   C13       1.0  0.2514158341000175  0.40589283636779444  0.4136501270602671  1.0000
  C   C14       1.0  0.32460326338664713  0.424366781174528  0.37045237257468866  1.0000
  H   H1        1.0  0.6622270576966384  0.5422264849620189  0.2863074741535536  1.0000
  H   H2        1.0  0.5536818056408992  0.6047953360613865  0.13991540195737118  1.0000
  H   H3        1.0  0.4246256987002944  0.5738265445158723  0.21500368090486568  1.0000
  H   H4        1.0  0.512134398221048  0.41123007291759994  0.5883598527416443  1.0000
  H   H5        1.0  0.40360137511719946  0.534725483700959  0.6460632801047066  1.0000
  H   H6        1.0  0.2752323230511877  0.5009259822142798  0.7214392690804912  1.0000
  H   H7        1.0  0.2090256209656458  0.3699928963917385  0.34848443036280585  1.0000
  H   H8        1.0  0.337529735144611  0.4010043687722315  0.27274256062674485  1.0000
  C   C15       1.0  0.9025770230829835  0.021581556897802168  0.610789017935758  1.0000
  C   C16       1.0  0.8404549204779612  0.02816835210973223  0.5234143051549123  1.0000
  C   C17       1.0  0.8096609760155579  0.9144950467278358  0.4782775224268323  1.0000
  C   C18       1.0  0.8406338214190904  0.7929030755770826  0.5236779872097819  1.0000
  C   C19       1.0  0.9027538228716717  0.7843244259983541  0.6108717340730998  1.0000
  C   C20       1.0  0.9334714653507036  0.8992553988511838  0.6537192698248397  1.0000
  C   C21       1.0  0.7435441789879151  0.9235970826220156  0.3871748495549965  1.0000
  O   O1        1.0  0.6958012348517149  0.01345572345887481  0.3964551718593128  1.0000
  C   C22       1.0  0.7315870990697073  0.8308300907510774  0.2855516541562697  1.0000
  C   C23       1.0  0.7927038310033953  0.7762304808848555  0.22442162903149976  1.0000
  C   C24       1.0  0.7806464737953626  0.6901157089333942  0.12775947194579773  1.0000
  C   C25       1.0  0.7076707486922083  0.6577205453109793  0.08950069280910955  1.0000
  C   C26       1.0  0.6463013883283978  0.7133604651905882  0.14930682041919008  1.0000
  C   C27       1.0  0.6582900412163698  0.7995355384557218  0.24601210992716657  1.0000
  O   O2        1.0  0.6985894957345937  0.5707039447295741  0.9921645525326754  1.0000
  C   C28       1.0  0.6278016506389226  0.529335692018171  0.9439048765529416  1.0000
  H   H9        1.0  0.8163002780380073  0.12200420144639956  0.48927168928850273  1.0000
  H   H10       1.0  0.8156999787235154  0.7047892561632122  0.4920314539548263  1.0000
  H   H11       1.0  0.9813904228873495  0.8933700009084469  0.7209849371895942  1.0000
  H   H12       1.0  0.9263913029856179  0.45353199702445324  0.644722907892938  1.0000
  H   H13       1.0  0.8498148853184783  0.8011305201342882  0.25028866867338895  1.0000
  H   H14       1.0  0.8283329263058606  0.6486916968032935  0.08186061381508303  1.0000
  H   H15       1.0  0.589159239998832  0.6907384404356017  0.12179362655276639  1.0000
  H   H16       1.0  0.6101839163087721  0.8409226900448652  0.29084007586674065  1.0000
  H   H17       1.0  0.6371935011648501  0.4607634654271054  0.8678775682972527  1.0000
  H   H18       1.0  0.5947986949135327  0.6143771707998406  0.8998129591887714  1.0000
  H   H19       1.0  0.5962507979520113  0.47840079947781367  0.023931981027739854  1.0000
  C   C29       1.0  0.9027350330579575  0.40303906422124036  0.2294511617743138  1.0000
  C   C30       1.0  0.9812092106177069  0.41607873987166655  0.2308395847665721  1.0000
  C   C31       1.0  0.020694857023779267  0.42412897132949734  0.11424769371663834  1.0000
  C   C32       1.0  0.9810296253188044  0.4160185863275323  0.9955921269095955  1.0000
  C   C33       1.0  0.9025957941046161  0.4028669503230093  0.9922095035778495  1.0000
  C   C34       1.0  0.8638811549321298  0.39679476406020875  0.10966598930872706  1.0000
  C   C35       1.0  0.10364602234010833  0.4365376013179938  0.1156828418992566  1.0000
  O   O3        1.0  0.14049071515581635  0.38223137227614057  0.031595107266315876  1.0000
  C   C36       1.0  0.14479556492093315  0.510568619495732  0.21242872847199945  1.0000
  C   C37       1.0  0.2180821421430097  0.47233236018094416  0.25409935804946837  1.0000
  C   C38       1.0  0.2582259157195752  0.5417667697548594  0.3442321418128991  1.0000
  O   O4        1.0  0.33090114178578034  0.49836869421018637  0.3830019438725756  1.0000
  C   C39       1.0  0.3779847512387058  0.5592658387703402  0.47365526894202414  1.0000
  C   C40       1.0  0.2246681260113983  0.651850794847131  0.3925502538412191  1.0000
  C   C41       1.0  0.15225898413386707  0.691402128460135  0.35041122278349746  1.0000
  C   C42       1.0  0.11254875701720211  0.6217257267137479  0.2605402127752039  1.0000
  H   H20       1.0  0.7547725672746346  0.37644136876150047  0.43431289805119677  1.0000
  H   H21       1.0  0.01180720994911133  0.418537193152641  0.3228965983386427  1.0000
  H   H22       1.0  0.011454964864543674  0.4212442728828407  0.9056562475631124  1.0000
  H   H23       1.0  0.8033832972542357  0.386741275384451  0.1077919010894246  1.0000
  H   H24       1.0  0.8725356077369684  0.3967296973828506  0.6635403915545273  1.0000
  H   H25       1.0  0.24411594490317826  0.38747924363403485  0.21745948472106624  1.0000
  H   H26       1.0  0.43204904492317  0.5047878863274078  0.4861980692038114  1.0000
  H   H27       1.0  0.3508565536497686  0.558026612800687  0.5695905456853871  1.0000
  H   H28       1.0  0.3895581684455851  0.6610342661450885  0.4365579391666401  1.0000
  H   H29       1.0  0.25412046017088136  0.7076799361500921  0.4621572588347696  1.0000
  H   H30       1.0  0.12693084792827025  0.7767296934660654  0.3871138712578803  1.0000
  H   H31       1.0  0.057003090452316  0.6556034565021469  0.22765897425770953  1.0000
  Zn  Zn1       1.0  0.8203474292281238  0.40465912086048667  0.6068897764887868  1.0000
  Zn  Zn2       1.0  0.9849762148413537  0.40124643031613116  0.6147699925675574  1.0000
  C   C43       1.0  0.9026192451393262  0.397725747277321  0.8480312397528198  1.0000
  C   C44       1.0  0.9027061970279159  0.4081814052560111  0.3736287430027416  1.0000
  C   C45       1.0  0.9027174746497254  0.6401510709566995  0.605680569094972  1.0000
  C   C46       1.0  0.9026079109669208  0.16575452239212263  0.6159794800429916  1.0000
  O   O5        1.0  0.9651722842496564  0.4086064577536171  0.4250065566611432  1.0000
  O   O6        1.0  0.9651025967883806  0.3947095619633323  0.8026339538001104  1.0000
  O   O7        1.0  0.9651810759106021  0.5904710938749431  0.606934032405098  1.0000
  O   O8        1.0  0.9650937489707104  0.21284493631890292  0.6207063779908859  1.0000
  O   O9        1.0  0.8402298389190438  0.5930606160237137  0.6009533883694962  1.0000
  O   O10       1.0  0.8401513601676948  0.3973006444626115  0.7966532406861437  1.0000
  O   O11       1.0  0.8402210479534615  0.411197495347311  0.4190242821018937  1.0000
  O   O12       1.0  0.8401425126515167  0.215435964601699  0.6147242008009437  1.0000
