data_image0
_chemical_formula_structural       NC8NH4C9H8C6NH7Zn2C4O8
_chemical_formula_sum              "N3 C27 H19 Zn2 O8"
_cell_length_a       13.859017124695912
_cell_length_b       9.275152443626249
_cell_length_c       9.274774538082514
_cell_angle_alpha    84.86265069898316
_cell_angle_beta     90.34965622944028
_cell_angle_gamma    90.57357307376715

_space_group_name_H-M_alt    "P 1"
_space_group_IT_number       1

loop_
  _space_group_symop_operation_xyz
  'x, y, z'

loop_
  _atom_site_type_symbol
  _atom_site_label
  _atom_site_symmetry_multiplicity
  _atom_site_fract_x
  _atom_site_fract_y
  _atom_site_fract_z
  _atom_site_occupancy
  N   N1        1.0  0.9127358301336993  0.5927013156759784  0.40254913763155775  1.0000
  C   C1        1.0  0.8400020484283488  0.5703237437466548  0.34639045002435837  1.0000
  C   C2        1.0  0.74952557137128  0.5424893276410703  0.27653625878834065  1.0000
  C   C3        1.0  0.6623702952420155  0.5696250827632592  0.3446353041100061  1.0000
  C   C4        1.0  0.5742952573742126  0.5424905589471339  0.27653567448778105  1.0000
  C   C5        1.0  0.5735577701502533  0.4882129598125138  0.14031609255692135  1.0000
  C   C6        1.0  0.6605322552863174  0.46118149607095854  0.07247917924524193  1.0000
  C   C7        1.0  0.7484231180625813  0.48821059925358123  0.14031728058279258  1.0000
  C   C8        1.0  0.48476221389909596  0.5703246749684194  0.3463899481476638  1.0000
  N   N2        1.0  0.4127869570087462  0.5927016402828649  0.4025489202217733  1.0000
  H   H1        1.0  0.6630823366726477  0.6116380829869319  0.45007252117277363  1.0000
  H   H2        1.0  0.5059003579358122  0.4668561646561062  0.08671468218489853  1.0000
  H   H3        1.0  0.6598217269110851  0.41925433043833443  0.9672554877614834  1.0000
  H   H4        1.0  0.8153565535728283  0.46685169391731973  0.08671687801819682  1.0000
  C   C9        1.0  0.15992556509593792  0.16905636871913665  0.4040225428387554  1.0000
  C   C10       1.0  0.12462410757995412  0.2528632192462421  0.2814067388088759  1.0000
  C   C11       1.0  0.09828248529295136  0.18850931610648655  0.15649525723550695  1.0000
  C   C12       1.0  0.10682664619521764  0.039208900193075324  0.1517263691807198  1.0000
  C   C13       1.0  0.14023710333997766  0.9537229230518686  0.2733059114417973  1.0000
  C   C14       1.0  0.16560643668948138  0.01633543892417433  0.40108801827659013  1.0000
  C   C15       1.0  0.08016403205516953  0.973185506977656  0.022372673888399145  1.0000
  C   C16       1.0  0.05784028308862821  0.9178730980628422  0.9140592353015621  1.0000
  C   C17       1.0  0.030754816616010313  0.8507492750903337  0.7826398736117296  1.0000
  H   H5        1.0  0.2997327714805796  0.24819849804164448  0.6922672681329611  1.0000
  H   H6        1.0  0.11953953893679126  0.36938465404540943  0.2809527456887184  1.0000
  H   H7        1.0  0.0721083074049913  0.2555628482568628  0.06301953865254584  1.0000
  H   H8        1.0  0.14428339694172476  0.8374479482424684  0.2692796237810082  1.0000
  H   H9        1.0  0.25665372560904776  0.7193197465336795  0.5982377346138275  1.0000
  H   H10       1.0  0.048448329318153016  0.7339100724543177  0.7961234384485261  1.0000
  H   H11       1.0  0.9521417510694571  0.8635038014144069  0.7628811720742803  1.0000
  H   H12       1.0  0.07112657115312926  0.9039111644249607  0.6892168309061444  1.0000
  C   C18       1.0  0.1610590989717553  0.596385689886912  0.9787262054685789  1.0000
  C   C19       1.0  0.2300001908093843  0.6815195517858466  0.045167830803054754  1.0000
  C   C20       1.0  0.3031903945695211  0.7547696693093474  0.9641491865641226  1.0000
  C   C21       1.0  0.308030531615346  0.7432181408307665  0.8152117772167821  1.0000
  C   C22       1.0  0.23942031374553754  0.6612623037426557  0.7470565823292898  1.0000
  C   C23       1.0  0.16447288634516855  0.5890060443393382  0.826384389278861  1.0000
  N   N3        1.0  0.37323784179693287  0.8397028272199138  0.03359675170525777  1.0000
  H   H13       1.0  0.014940715812433726  0.31437185239979026  0.10562331520016664  1.0000
  H   H14       1.0  0.22830921612413757  0.688361669701019  0.16116426369033876  1.0000
  H   H15       1.0  0.3645333951640555  0.7989565952366458  0.751487936665598  1.0000
  H   H16       1.0  0.24369604256985933  0.6572493920347118  0.6308974294250493  1.0000
  H   H17       1.0  0.06312310528115739  0.4034516655537508  0.5609453042972761  1.0000
  H   H18       1.0  0.3704965616127962  0.8487496643170052  0.14493534268280084  1.0000
  H   H19       1.0  0.42834041144076473  0.8943068029823011  0.9741655255687859  1.0000
  Zn  Zn1       1.0  0.05703979441908613  0.5926974850532292  0.4025574273170478  1.0000
  Zn  Zn2       1.0  0.2684829538571092  0.5926935995436549  0.4025525088901294  1.0000
  C   C24       1.0  0.16378692663613048  0.5846537865721722  0.6661787487995001  1.0000
  C   C25       1.0  0.16173814336787753  0.6007391170156182  0.13893132270769493  1.0000
  C   C26       1.0  0.16450449579094628  0.8562317013098888  0.3958913794507823  1.0000
  C   C27       1.0  0.16102049075091118  0.3291594683414711  0.4092187750085342  1.0000
  O   O1        1.0  0.24220757173286622  0.602192398588725  0.19269577882572242  1.0000
  O   O2        1.0  0.24379795485263878  0.5831964712758753  0.6124101480099462  1.0000
  O   O3        1.0  0.24437632536913112  0.8024990589528137  0.3941511797627339  1.0000
  O   O4        1.0  0.2416291286985197  0.38288982217530526  0.410954638822874  1.0000
  O   O5        1.0  0.08389354742248224  0.8025012624245416  0.39415529737838434  1.0000
  O   O6        1.0  0.08331518821294659  0.5832004086869963  0.6124141826675565  1.0000
  O   O7        1.0  0.08172479783189468  0.6021963008338833  0.19269807841629036  1.0000
  O   O8        1.0  0.08114635516020918  0.3828937131599079  0.41095704665758465  1.0000
