data_image0
_chemical_formula_structural       NC10NC3NCH9C12SCH12C13F3H9Zn2C4O8
_chemical_formula_sum              "N3 C44 H30 S1 F3 Zn2 O8"
_cell_length_a       19.437513618241372
_cell_length_b       10.299776766347529
_cell_length_c       10.298532869026799
_cell_angle_alpha    85.58005012136333
_cell_angle_beta     90.35299087610197
_cell_angle_gamma    89.50378728869872

_space_group_name_H-M_alt    "P 1"
_space_group_IT_number       1

loop_
  _space_group_symop_operation_xyz
  'x, y, z'

loop_
  _atom_site_type_symbol
  _atom_site_label
  _atom_site_symmetry_multiplicity
  _atom_site_fract_x
  _atom_site_fract_y
  _atom_site_fract_z
  _atom_site_occupancy
  N   N1        1.0  0.6475310273480739  0.4100239602692217  0.5756699723830316  1.0000
  C   C1        1.0  0.5885945413568958  0.4270329887449136  0.572695542369513  1.0000
  C   C2        1.0  0.5151501355911673  0.44828421859695583  0.5690035096371002  1.0000
  C   C3        1.0  0.47340375192131173  0.34709287510961895  0.5573325747500162  1.0000
  C   C4        1.0  0.3975114204950281  0.3571556762760542  0.5501117474008359  1.0000
  C   C5        1.0  0.3579296082038269  0.43801938752640956  0.6158678612692214  1.0000
  C   C6        1.0  0.2817480460424062  0.4294091556130961  0.6074222004092564  1.0000
  C   C7        1.0  0.24863315583441353  0.30806751744532246  0.6120530280482543  1.0000
  C   C8        1.0  0.17689887088077857  0.30169407835121875  0.6048837464526505  1.0000
  C   C9        1.0  0.137308964329686  0.41618968917462396  0.5934458462584699  1.0000
  C   C10       1.0  0.0634602471139996  0.409478033851715  0.5861084245216519  1.0000
  N   N2        1.0  0.004090976446185196  0.40408245314138924  0.5802095959485147  1.0000
  C   C11       1.0  0.1697073827771537  0.53722094345652  0.589560318439863  1.0000
  C   C12       1.0  0.2414260357757239  0.543848384957604  0.5967916531968182  1.0000
  C   C13       1.0  0.3866067652372966  0.5303246250478206  0.7058044633006129  1.0000
  N   N3        1.0  0.4435793759206458  0.5935312364895445  0.6854054387166935  1.0000
  C   C14       1.0  0.4874102235296753  0.5842431952573905  0.5722882964708118  1.0000
  H   H1        1.0  0.49580220189033913  0.25203529606111896  0.5452003372070677  1.0000
  H   H2        1.0  0.37280280494985174  0.2876306806660003  0.4917817865263636  1.0000
  H   H3        1.0  0.2780994210463346  0.218159783018667  0.6230651475135146  1.0000
  H   H4        1.0  0.15232122716373542  0.2074703025787552  0.6087611891742244  1.0000
  H   H5        1.0  0.1395561768023353  0.6264743307777798  0.5808604527849013  1.0000
  H   H6        1.0  0.26552208814899464  0.638484949832792  0.5928987934259256  1.0000
  H   H7        1.0  0.3566087258969871  0.5507299288665967  0.7901796944838009  1.0000
  H   H8        1.0  0.5301518268936003  0.6545558415586247  0.5780596147617316  1.0000
  H   H9        1.0  0.4577293260703714  0.6123299436068911  0.48163882619115284  1.0000
  C   C15       1.0  0.8258791703907024  0.025686906127849074  0.5779390759917398  1.0000
  C   C16       1.0  0.8300205333938323  0.014099003268410954  0.7145151175010914  1.0000
  C   C17       1.0  0.8320527549053143  0.891089805128468  0.7837238004250365  1.0000
  C   C18       1.0  0.8298889776434607  0.7788134238421301  0.7145286339335801  1.0000
  C   C19       1.0  0.8257494521007281  0.7884093483369002  0.5779518663846483  1.0000
  C   C20       1.0  0.8237673334517924  0.9122847981076588  0.5104216010699865  1.0000
  C   C21       1.0  0.8364262676533936  0.8798951438724336  0.9282057458103204  1.0000
  C   C22       1.0  0.7970541493258678  0.7871140495272548  0.0017522654832744517  1.0000
  C   C23       1.0  0.8011907994021512  0.7768126737151212  0.1377236162199228  1.0000
  C   C24       1.0  0.8445281224794997  0.8590172482011887  0.20195306144262337  1.0000
  C   C25       1.0  0.884064496954926  0.9512222498967974  0.12978179262738188  1.0000
  C   C26       1.0  0.8800287309511237  0.9618718301129925  0.9938013106075099  1.0000
  S   S1        1.0  0.849911883042122  0.84533736383938  0.37642397749644724  1.0000
  C   C27       1.0  0.7807771954080963  0.9625573496167277  0.3950738287349808  1.0000
  H   H10       1.0  0.8243281903718134  0.3575554540587096  0.5258977490938557  1.0000
  H   H11       1.0  0.8307265095949705  0.10093495117710871  0.767486091530375  1.0000
  H   H12       1.0  0.8323888530878047  0.6837746097440932  0.7673262976741418  1.0000
  H   H13       1.0  0.8205729183841141  0.9204558763253576  0.4050589982265047  1.0000
  H   H14       1.0  0.8241377564524112  0.4646126353180531  0.5259144325516811  1.0000
  H   H15       1.0  0.7624177189970012  0.723712340557854  0.954193901132472  1.0000
  H   H16       1.0  0.7704335705128692  0.705280425839098  0.19305736222428072  1.0000
  H   H17       1.0  0.9179687679355049  0.014692534141309334  0.1789198794092305  1.0000
  H   H18       1.0  0.9116543780949623  0.03302110033211593  0.9398917613680751  1.0000
  H   H19       1.0  0.7945476378747689  0.058642231361305974  0.34636812133202366  1.0000
  H   H20       1.0  0.7728104251299298  0.9734025806800158  0.5002589387125523  1.0000
  H   H21       1.0  0.7323623081899849  0.9278183740382828  0.35233242397965114  1.0000
  C   C28       1.0  0.8257945464972419  0.4069265158846944  0.1965477235953368  1.0000
  C   C29       1.0  0.8947899683751587  0.3648858667009003  0.19963849936569433  1.0000
  C   C30       1.0  0.9297504452974417  0.3437022204236242  0.08403376519674133  1.0000
  C   C31       1.0  0.8948305418418426  0.3651408047217435  0.9643383442515385  1.0000
  C   C32       1.0  0.8258340498792559  0.4071697670253469  0.9593432054117558  1.0000
  C   C33       1.0  0.7917566763434265  0.42778905255650423  0.07595087000435763  1.0000
  C   C34       1.0  0.002695034231250833  0.29926741602427875  0.08823588948087613  1.0000
  C   C35       1.0  0.05019184492606721  0.35307583819933863  0.9972999801102934  1.0000
  C   C36       1.0  0.11884246508866902  0.3113588499860227  0.0012762303179791887  1.0000
  C   C37       1.0  0.1412457889121299  0.21359046514348523  0.09503113107948491  1.0000
  C   C38       1.0  0.0941469218133557  0.16159443799382434  0.1875494683141703  1.0000
  C   C39       1.0  0.025500774583573808  0.20334440629935013  0.18368419666074454  1.0000
  C   C40       1.0  0.2158465257852482  0.17206122304638496  0.10226370026199928  1.0000
  F   F1        1.0  0.25111664350909946  0.2507872360441745  0.18219893505489781  1.0000
  F   F2        1.0  0.24514492098954221  0.18274605861968118  0.9797797244562267  1.0000
  F   F3        1.0  0.2222399022358408  0.04383491006294937  0.15222876757323078  1.0000
  H   H22       1.0  0.6955498544482884  0.48718404254890624  0.3979709187123471  1.0000
  H   H23       1.0  0.9217353453251448  0.3502774652221572  0.292060299959672  1.0000
  H   H24       1.0  0.9212562168707205  0.34731911800140636  0.8750437846894221  1.0000
  H   H25       1.0  0.7385803168329921  0.4601853667676479  0.07283562091724495  1.0000
  H   H26       1.0  0.6953297588295646  0.48584810054312233  0.7426338197241713  1.0000
  H   H27       1.0  0.03450084977377575  0.42910077125679796  0.9243723506809274  1.0000
  H   H28       1.0  0.15450400964623423  0.3559904185078829  0.931245838591488  1.0000
  H   H29       1.0  0.11038747180170728  0.08845185274516476  0.262927027335697  1.0000
  H   H30       1.0  0.9900868710763617  0.15966272796784822  0.25473743637168456  1.0000
  Zn  Zn1       1.0  0.7504265330300641  0.4083058828590742  0.5769875191461784  1.0000
  Zn  Zn2       1.0  0.9011954793415234  0.405789864480649  0.5789027196856178  1.0000
  C   C41       1.0  0.8258259298676008  0.40195015422857105  0.8151584120542691  1.0000
  C   C42       1.0  0.8257977286240631  0.412147204284947  0.3407319751949711  1.0000
  C   C43       1.0  0.8257701438550374  0.644236986194282  0.5727738225515708  1.0000
  C   C44       1.0  0.8258534634587189  0.1698588129083176  0.5831166332618889  1.0000
  O   O1        1.0  0.8830148269248741  0.41293883344004856  0.3898483356999354  1.0000
  O   O2        1.0  0.8830389734085277  0.3992479455061613  0.7674952705533274  1.0000
  O   O3        1.0  0.8829931542683727  0.59489763975567  0.5717679898434489  1.0000
  O   O4        1.0  0.8830605946111766  0.21728914930819077  0.5855755183744138  1.0000
  O   O5        1.0  0.7685613663103682  0.5968065988915383  0.5703147197969862  1.0000
  O   O6        1.0  0.7686071851783883  0.40115846491295315  0.7660419312822496  1.0000
  O   O7        1.0  0.7685830386673171  0.4148493070925141  0.388393434909994  1.0000
  O   O8        1.0  0.7686288063574293  0.21919961370301055  0.5841207149594769  1.0000
