data_image0
_chemical_formula_structural       NC5NC4H6C6BrH5C6BrH4Zn2C4O8
_chemical_formula_sum              "N2 C25 H15 Br2 Zn2 O8"
_cell_length_a       13.854160002989762
_cell_length_b       9.276564384272257
_cell_length_c       9.27656775626242
_cell_angle_alpha    86.06955747846486
_cell_angle_beta     90.1862127555096
_cell_angle_gamma    90.58592978602583

_space_group_name_H-M_alt    "P 1"
_space_group_IT_number       1

loop_
  _space_group_symop_operation_xyz
  'x, y, z'

loop_
  _atom_site_type_symbol
  _atom_site_label
  _atom_site_symmetry_multiplicity
  _atom_site_fract_x
  _atom_site_fract_y
  _atom_site_fract_z
  _atom_site_occupancy
  N   N1        1.0  0.9161472172622741  0.5626496570280197  0.40931924889245264  1.0000
  C   C1        1.0  0.8438547171058111  0.5872813951149476  0.35027979387628716  1.0000
  C   C2        1.0  0.753921828291201  0.6179239389310257  0.2768324514712268  1.0000
  C   C3        1.0  0.6663096194635096  0.5891453200566952  0.34854629168354156  1.0000
  C   C4        1.0  0.5787794159660776  0.6179239530323779  0.2768324282976362  1.0000
  C   C5        1.0  0.4887465749384711  0.587281248705511  0.3502798855782827  1.0000
  N   N2        1.0  0.41637364622962336  0.5626495935359213  0.40931924885914595  1.0000
  C   C6        1.0  0.5788982489291505  0.676087726171698  0.13342320130808272  1.0000
  C   C7        1.0  0.6664922104897169  0.7070152647126808  0.06160416570178074  1.0000
  C   C8        1.0  0.6665542863488471  0.7653077090774579  0.9067112056587742  1.0000
  C   C9        1.0  0.7539753377533304  0.6760877239629265  0.13342311107393479  1.0000
  H   H1        1.0  0.6662421882568139  0.5440164070076866  0.45954249350005233  1.0000
  H   H2        1.0  0.5110496322673288  0.6973275942086328  0.07778181627213487  1.0000
  H   H3        1.0  0.7318217746454968  0.8332294322494224  0.8828786635915765  1.0000
  H   H4        1.0  0.6021132971455996  0.833229434763104  0.8828787286438596  1.0000
  H   H5        1.0  0.6657742625909716  0.6740911429738958  0.8352670974732939  1.0000
  H   H6        1.0  0.8218725919277269  0.6973277058460601  0.07778173079200523  1.0000
  C   C10       1.0  0.1633577839738729  0.13917226582350573  0.40968772509942286  1.0000
  C   C11       1.0  0.15069271094994843  0.2213817139296288  0.2779950682364476  1.0000
  C   C12       1.0  0.14701334222050688  0.15511505094611788  0.14753248712317846  1.0000
  C   C13       1.0  0.1559720402799413  0.00569567424329542  0.14628534758280276  1.0000
  C   C14       1.0  0.16693221654208668  0.9217733927209476  0.2759865890051638  1.0000
  C   C15       1.0  0.1691722785210379  0.9861159715920568  0.4089632299425401  1.0000
  Br  Br1       1.0  0.1516470135274861  0.9155845433321533  0.9672678918413588  1.0000
  H   H7        1.0  0.1355793050230485  0.40401902672543355  0.6439411075496253  1.0000
  H   H8        1.0  0.14592383489399324  0.338013947001776  0.2755283166761886  1.0000
  H   H9        1.0  0.13811430712951567  0.22035226720813572  0.04716655079755161  1.0000
  H   H10       1.0  0.1713912307177376  0.8055029833987085  0.2728800698445253  1.0000
  H   H11       1.0  0.22292253630660674  0.6903812825754857  0.6333766050817005  1.0000
  C   C16       1.0  0.1653152430293987  0.5584999120646794  0.9862022943151373  1.0000
  C   C17       1.0  0.07977984702158425  0.5932161859744565  0.056783428870775816  1.0000
  C   C18       1.0  0.9986152104691706  0.6398111170337635  0.9780425755583102  1.0000
  C   C19       1.0  0.0014619218949940551  0.6526335208334366  0.8275357642171972  1.0000
  C   C20       1.0  0.08509433046638115  0.616359452218415  0.7552288996258651  1.0000
  C   C21       1.0  0.16721484771074735  0.5667884012713453  0.8324487275890133  1.0000
  Br  Br2       1.0  0.8903813177845475  0.7175657363238229  0.7202299863414647  1.0000
  H   H12       1.0  0.297201285586097  0.42751714053713896  0.2771485332304713  1.0000
  H   H13       1.0  0.9337301234807802  0.667305898004958  0.03433643889907301  1.0000
  H   H14       1.0  0.0849929897325272  0.6237257637684072  0.6381721355536762  1.0000
  H   H15       1.0  0.325930060550073  0.5518974185449971  0.5530667468222088  1.0000
  Zn  Zn1       1.0  0.06050175692167436  0.5626458594116317  0.409327581893016  1.0000
  Zn  Zn2       1.0  0.27201905329269116  0.5626417063132776  0.4093227594648879  1.0000
  C   C22       1.0  0.16681416028289986  0.5594767351825563  0.672494929930743  1.0000
  C   C23       1.0  0.1657089725028773  0.5658126514283845  0.14615555124027657  1.0000
  C   C24       1.0  0.16805535505036132  0.8259693687463847  0.40335843705421387  1.0000
  C   C25       1.0  0.16446769383715387  0.2993182860364276  0.4152921224196855  1.0000
  O   O1        1.0  0.24611078016053467  0.5682590061633641  0.19983550075043865  1.0000
  O   O2        1.0  0.24694907799400456  0.5570261363818969  0.6188109064630829  1.0000
  O   O3        1.0  0.24795027975474926  0.7722223229394545  0.40148128302203556  1.0000
  O   O4        1.0  0.24510950605157844  0.3530628288650759  0.41716501614854473  1.0000
  O   O5        1.0  0.08741123198230814  0.7722247368627464  0.4014853252034247  1.0000
  O   O6        1.0  0.08641004193934626  0.5570302821362292  0.6188148703356575  1.0000
  O   O7        1.0  0.08557173993645882  0.5682630846975654  0.19983773231487767  1.0000
  O   O8        1.0  0.08457046599523554  0.35306689814292036  0.41716735574999086  1.0000
