data_image0
_chemical_formula_structural       NC9NC5H8C7OC3OC4H12C6NCOC6H11Zn2C4O8
_chemical_formula_sum              "N3 C45 H31 O11 Zn2"
_cell_length_a       17.807436237873137
_cell_length_b       10.299371110280156
_cell_length_c       10.299662537453274
_cell_angle_alpha    85.55769285269642
_cell_angle_beta     89.37814808442572
_cell_angle_gamma    88.40331171880233

_space_group_name_H-M_alt    "P 1"
_space_group_IT_number       1

loop_
  _space_group_symop_operation_xyz
  'x, y, z'

loop_
  _atom_site_type_symbol
  _atom_site_label
  _atom_site_symmetry_multiplicity
  _atom_site_fract_x
  _atom_site_fract_y
  _atom_site_fract_z
  _atom_site_occupancy
  N   N1        1.0  0.7077918493835876  0.38828487576093657  0.557534322323324  1.0000
  C   C1        1.0  0.6472011566567715  0.3530992651931045  0.5464991053710064  1.0000
  C   C2        1.0  0.571832994387873  0.3093322404951364  0.5327724936905411  1.0000
  C   C3        1.0  0.55374642174769  0.237955977806424  0.42774491945537374  1.0000
  C   C4        1.0  0.4805678217509975  0.19535010392592114  0.4143345991335193  1.0000
  C   C5        1.0  0.4244270302648073  0.22374297561701306  0.5059192820420242  1.0000
  C   C6        1.0  0.3466570466386695  0.1785787908554686  0.49174969667727253  1.0000
  C   C7        1.0  0.2844879978500643  0.2603252751988532  0.5177148679009533  1.0000
  C   C8        1.0  0.21116706421119727  0.21751635849954565  0.5043181651865178  1.0000
  C   C9        1.0  0.1479482329057112  0.3019540566510479  0.5306480930683111  1.0000
  N   N2        1.0  0.0971332801534458  0.3698361238250032  0.5518166267458322  1.0000
  C   C10       1.0  0.1994316037618002  0.09270298724032577  0.4649308598667943  1.0000
  C   C11       1.0  0.2607432820351123  0.010942653712502581  0.4389572944089386  1.0000
  C   C12       1.0  0.3339447589770231  0.05335710460528498  0.4521513303270508  1.0000
  C   C13       1.0  0.44320504304923786  0.2956135231507899  0.6111662460623153  1.0000
  C   C14       1.0  0.5164365103562967  0.3380290602805418  0.624420852389252  1.0000
  H   H1        1.0  0.5961481350318544  0.21549720888790436  0.356023532511756  1.0000
  H   H2        1.0  0.4676594539295816  0.14169846542890105  0.33139546356449756  1.0000
  H   H3        1.0  0.2929944477177265  0.3577793540682279  0.5466231530030881  1.0000
  H   H4        1.0  0.14296351093932008  0.05867090055799862  0.45432505424066383  1.0000
  H   H5        1.0  0.2515387598081527  0.914309115103626  0.4088488294569557  1.0000
  H   H6        1.0  0.38057947322648894  0.9876192033909884  0.43308186229960294  1.0000
  H   H7        1.0  0.4015199622130288  0.31753276683399334  0.6841819902987731  1.0000
  H   H8        1.0  0.5298735314705945  0.39290166602155185  0.7063187218933444  1.0000
  C   C15       1.0  0.9024155192059131  0.9976913874462114  0.554561383067794  1.0000
  C   C16       1.0  0.8937781360093101  0.007440885114512238  0.41870257767008456  1.0000
  C   C17       1.0  0.8885730522123152  0.8952114894689613  0.3503598078154295  1.0000
  C   C18       1.0  0.8938153833932327  0.7721711185619207  0.4190131178928758  1.0000
  C   C19       1.0  0.9025167902594599  0.7604193162310406  0.5548007490746865  1.0000
  C   C20       1.0  0.9065698114378767  0.8737885798292451  0.6218297291670292  1.0000
  C   C21       1.0  0.8802360676270039  0.9053411829565263  0.2067346445224525  1.0000
  O   O1        1.0  0.9110405689322457  0.8188676685744648  0.14225906873981997  1.0000
  C   C22       1.0  0.836944569260144  0.013489298279874882  0.13625927879593802  1.0000
  C   C23       1.0  0.8579608214887546  0.05770295695511951  0.008807582927921716  1.0000
  C   C24       1.0  0.8173352795906906  0.15866825078451272  0.9400231121005658  1.0000
  O   O2        1.0  0.8413379158188825  0.19938735197625768  0.8135722745696676  1.0000
  C   C25       1.0  0.8055387099017977  0.3006004655380687  0.7326626893101174  1.0000
  C   C26       1.0  0.7543072288589243  0.21549083994414775  0.9994370299301171  1.0000
  C   C27       1.0  0.7325198945342725  0.17102447066250503  0.1253829844875365  1.0000
  C   C28       1.0  0.7732788583877523  0.07033444814415657  0.19341331535036788  1.0000
  H   H9        1.0  0.9198616192305682  0.18657828071755644  0.8106991646005322  1.0000
  H   H10       1.0  0.8919251696631489  0.1024837726216914  0.36569986130126636  1.0000
  H   H11       1.0  0.8903684699399359  0.6854946316638166  0.36634107888648937  1.0000
  H   H12       1.0  0.9132290845373489  0.8654686073553  0.7265669063421321  1.0000
  H   H13       1.0  0.9064843874226188  0.428427942572235  0.6068295563539137  1.0000
  H   H14       1.0  0.9065406961442725  0.014522664655340451  0.9627211426242509  1.0000
  H   H15       1.0  0.8361975750228218  0.3122754384915969  0.6383411903704492  1.0000
  H   H16       1.0  0.8066390962418627  0.39398670740987507  0.7796657764410355  1.0000
  H   H17       1.0  0.7466664018621618  0.27516446524230376  0.713762957825697  1.0000
  H   H18       1.0  0.7216821536583835  0.29355581165834477  0.9490274723541594  1.0000
  H   H19       1.0  0.6836562542040232  0.21438008958243948  0.170251854959645  1.0000
  H   H20       1.0  0.7545248602706688  0.036037303857467944  0.2900677872836943  1.0000
  C   C29       1.0  0.9025178845715247  0.37919342288753527  0.17330435950013112  1.0000
  C   C30       1.0  0.9792115725018535  0.4079340491118826  0.16837431538332304  1.0000
  C   C31       1.0  0.018067065579182584  0.4205180439901408  0.04920359497192894  1.0000
  C   C32       1.0  0.9790800742857934  0.4076302054298324  0.9332328520165755  1.0000
  C   C33       1.0  0.9024144395117725  0.3789172543490429  0.9360577462152583  1.0000
  C   C34       1.0  0.8646302704993323  0.364413396446436  0.056654506982691144  1.0000
  N   N3        1.0  0.0963023569406953  0.45189664339998936  0.04758217662668063  1.0000
  C   C35       1.0  0.1494669913538606  0.409527251824456  0.9525758439017055  1.0000
  O   O3        1.0  0.13575170025269623  0.31161849369913264  0.8911946218412972  1.0000
  C   C36       1.0  0.2216054441155425  0.4764380344253291  0.9291882284946493  1.0000
  C   C37       1.0  0.23068580568406238  0.6040785893972817  0.9654491307302497  1.0000
  C   C38       1.0  0.2988484121650934  0.6664045736576871  0.9422782395936684  1.0000
  C   C39       1.0  0.3584770496484128  0.6025518142780415  0.8824084626786566  1.0000
  C   C40       1.0  0.3500064868729502  0.4763287540395194  0.8451330940541797  1.0000
  C   C41       1.0  0.2819719113043607  0.41353966892366034  0.8679728812205951  1.0000
  H   H21       1.0  0.7576749569947542  0.3261933334459434  0.3897774044126274  1.0000
  H   H22       1.0  0.009312889276045015  0.41972694621020473  0.25735681349168704  1.0000
  H   H23       1.0  0.008180064435779233  0.42221531286659  0.8406973454940373  1.0000
  H   H24       1.0  0.8055104538858155  0.3422405486750473  0.05959086295989868  1.0000
  H   H25       1.0  0.8727631732693555  0.36959517634155065  0.6095662276971137  1.0000
  H   H26       1.0  0.11681159189818756  0.4981288620428468  0.1262184851623882  1.0000
  H   H27       1.0  0.18504488517994108  0.6567767130434772  0.00990919727085182  1.0000
  H   H28       1.0  0.30532417445014837  0.7645777201668635  0.9703300901557705  1.0000
  H   H29       1.0  0.41116066577732213  0.6510337968297741  0.8645333611967643  1.0000
  H   H30       1.0  0.3962031653572471  0.4270216222096704  0.7984689642844214  1.0000
  H   H31       1.0  0.2767834979098014  0.31552814420568587  0.8385271582646205  1.0000
  Zn  Zn1       1.0  0.8201473733940973  0.3829574964614703  0.5558918287468841  1.0000
  Zn  Zn2       1.0  0.9847777350919704  0.3751529130839258  0.5534697938301087  1.0000
  C   C42       1.0  0.9024316107008189  0.37379586930052805  0.7918794313349538  1.0000
  C   C43       1.0  0.9024952957439389  0.38431609359264685  0.3174822927767533  1.0000
  C   C44       1.0  0.9024944766611517  0.6162495502532834  0.5495802687486593  1.0000
  C   C45       1.0  0.9024323733902253  0.1418608549752567  0.55978152493993  1.0000
  O   O4        1.0  0.9649640782608417  0.3830678442176599  0.36495057285975796  1.0000
  O   O5        1.0  0.9649134633459747  0.3691196408904837  0.742572508631083  1.0000
  O   O6        1.0  0.964963386009535  0.5649040939426777  0.5469142333503809  1.0000
  O   O7        1.0  0.9649140994345335  0.18728340315411995  0.5606087515931968  1.0000
  O   O8        1.0  0.8400109528712727  0.5708270090560137  0.5487528718034869  1.0000
  O   O9        1.0  0.8399610304208317  0.3750441163331928  0.7444110783269973  1.0000
  O   O10       1.0  0.8400116455914642  0.38899227496734207  0.3667875811081842  1.0000
  O   O11       1.0  0.8399616667476424  0.19320782457988647  0.562445857208578  1.0000
