data_image0
_chemical_formula_structural       NC9NC3NH7C7F3H5C7OCH10Zn2C4O8
_chemical_formula_sum              "N3 C31 H22 F3 O9 Zn2"
_cell_length_a       16.053384444249904
_cell_length_b       9.272718291674593
_cell_length_c       10.300835455316063
_cell_angle_alpha    86.00164586726821
_cell_angle_beta     89.8165277291342
_cell_angle_gamma    88.75080299671951

_space_group_name_H-M_alt    "P 1"
_space_group_IT_number       1

loop_
  _space_group_symop_operation_xyz
  'x, y, z'

loop_
  _atom_site_type_symbol
  _atom_site_label
  _atom_site_symmetry_multiplicity
  _atom_site_fract_x
  _atom_site_fract_y
  _atom_site_fract_z
  _atom_site_occupancy
  N   N1        1.0  0.7774908381751652  0.5585036159240144  0.5753575892758378  1.0000
  C   C1        1.0  0.7268238112481793  0.5353816641576363  0.5003649707743854  1.0000
  C   C2        1.0  0.663858531318522  0.5066523921224699  0.4072058152216669  1.0000
  C   C3        1.0  0.677514009912352  0.4932170885985385  0.27640296806403786  1.0000
  C   C4        1.0  0.6010026942619628  0.4650866487477135  0.22396657277446996  1.0000
  C   C5        1.0  0.5439315798413397  0.46292539173784636  0.3256065990952066  1.0000
  C   C6        1.0  0.4533910356865311  0.4364749986433478  0.3151814839772473  1.0000
  C   C7        1.0  0.3973056132029207  0.4839165148889592  0.4093957158992357  1.0000
  C   C8        1.0  0.3118631793843966  0.4588307640753886  0.3994121184295034  1.0000
  C   C9        1.0  0.2549897304674243  0.5082100251455577  0.49601105119337774  1.0000
  N   N2        1.0  0.20928016811616193  0.5479039874644598  0.5736614705933549  1.0000
  C   C10       1.0  0.2817806732548246  0.3861791661162046  0.2952271506640758  1.0000
  C   C11       1.0  0.336857005602416  0.33887049643490497  0.20122545653696045  1.0000
  C   C12       1.0  0.4220942041602571  0.3637721673490504  0.21081128416950046  1.0000
  N   N3        1.0  0.5830272648565531  0.48845282072507573  0.4373167248169681  1.0000
  H   H1        1.0  0.736199765305807  0.5027942834340964  0.22486074543124013  1.0000
  H   H2        1.0  0.588792996305771  0.44977447005797283  0.1227038386916346  1.0000
  H   H3        1.0  0.4193853952815177  0.5421760064325789  0.48957735204708236  1.0000
  H   H4        1.0  0.2158426916793247  0.36622946897623465  0.2866602353809067  1.0000
  H   H5        1.0  0.3134790379284491  0.2824337714085654  0.12082241345847812  1.0000
  H   H6        1.0  0.4633713558852626  0.3244047748745509  0.13730774086349684  1.0000
  H   H7        1.0  0.5568656796027618  0.4910998450578832  0.5300785033339173  1.0000
  C   C13       1.0  0.9952033592260718  0.12977582089235784  0.5716340339786405  1.0000
  C   C14       1.0  0.9443989954129536  0.21231387676415303  0.48209827836781227  1.0000
  C   C15       1.0  0.8877014076815205  0.1461547672729815  0.4028310689448063  1.0000
  C   C16       1.0  0.8840157454776432  0.9949584074326763  0.410436901455499  1.0000
  C   C17       1.0  0.9348818357097379  0.9114590908236216  0.4971626474123234  1.0000
  C   C18       1.0  0.9915756361749547  0.9766205284917625  0.5773961709101909  1.0000
  C   C19       1.0  0.8353799421231485  0.23632539435617717  0.3050405452988061  1.0000
  F   F1        1.0  0.8139806345008532  0.36828135998086986  0.3523153449647223  1.0000
  F   F2        1.0  0.7626464361054434  0.1667038632766995  0.27819771450641095  1.0000
  F   F3        1.0  0.8803026981875365  0.25997725489122225  0.19112314813386844  1.0000
  H   H8        1.0  0.0941853788177065  0.20610698695626886  0.8514730266985662  1.0000
  H   H9        1.0  0.9477234444817176  0.32919963537371233  0.47604174174052716  1.0000
  H   H10       1.0  0.8423586020642043  0.9408732900362017  0.3481597081519918  1.0000
  H   H11       1.0  0.931481690099711  0.7947738911500216  0.49892303129356086  1.0000
  H   H12       1.0  0.17046482430419174  0.8563532433617774  0.7329763243367287  1.0000
  C   C20       1.0  0.9933141147948324  0.5531264684288566  0.1931983388296339  1.0000
  C   C21       1.0  0.06947089935443729  0.6250189829591943  0.18746350916261445  1.0000
  C   C22       1.0  0.10733828276471914  0.6627673082619152  0.06736411294555866  1.0000
  C   C23       1.0  0.06966906994989674  0.6252057059548441  0.9521652462741601  1.0000
  C   C24       1.0  0.9934649112812934  0.5532698692241382  0.9558318488850501  1.0000
  C   C25       1.0  0.955640705276038  0.5179644199029771  0.07678355834956552  1.0000
  C   C26       1.0  0.19000043693495416  0.7358860837599916  0.0625842522440967  1.0000
  O   O1        1.0  0.25412493180741347  0.6290769264369418  0.06912608616906168  1.0000
  C   C27       1.0  0.33208979501703184  0.6963624365456624  0.064749664903198  1.0000
  H   H13       1.0  0.9646172633237212  0.5240861089961875  0.5228855434290558  1.0000
  H   H14       1.0  0.09965612872194485  0.6519232055869458  0.27627110007926525  1.0000
  H   H15       1.0  0.09999021305553657  0.6522394309149092  0.8597983752615114  1.0000
  H   H16       1.0  0.8969093422537451  0.46250678217766267  0.08044408179516815  1.0000
  H   H17       1.0  0.8501801693216261  0.41612031109039216  0.7555870515356675  1.0000
  H   H18       1.0  0.19410800148990637  0.8061589947936896  0.1457284536115533  1.0000
  H   H19       1.0  0.19430095573374473  0.8061762490588459  0.9706137970159405  1.0000
  H   H20       1.0  0.3818074545359671  0.611189314082025  0.06996203915071186  1.0000
  H   H21       1.0  0.3402310532025654  0.7631078787955285  0.14931500030648026  1.0000
  H   H22       1.0  0.34043423160507597  0.7631630299756251  0.9718035943624951  1.0000
  Zn  Zn1       1.0  0.9020959273181306  0.5554409480242992  0.5748755917097816  1.0000
  Zn  Zn2       1.0  0.08467510793444656  0.5509549101075921  0.5741540010248538  1.0000
  C   C28       1.0  0.9934591416055759  0.5474985699437183  0.8116386875965974  1.0000
  C   C29       1.0  0.9933138796375235  0.5588990585582583  0.33739103708640084  1.0000
  C   C30       1.0  0.9922560531935216  0.8165479898940515  0.5711325236136979  1.0000
  C   C31       1.0  0.9945169131829097  0.2898479077723386  0.5778972587572422  1.0000
  O   O2        1.0  0.06260167518864358  0.5591276739452897  0.3855095411312621  1.0000
  O   O3        1.0  0.0627447241334547  0.5438640677370008  0.7629721317220548  1.0000
  O   O4        1.0  0.06177228125921187  0.7611249001446709  0.5687617165777796  1.0000
  O   O5        1.0  0.06357405569754415  0.3418668533648781  0.5797198592306043  1.0000
  O   O6        1.0  0.9231969172497113  0.7645290062994461  0.569309733743455  1.0000
  O   O7        1.0  0.9241693526853011  0.547269906259795  0.763520091439212  1.0000
  O   O8        1.0  0.9240263037024886  0.562533461926144  0.38605593931922755  1.0000
  O   O9        1.0  0.9249986842714096  0.34527263105090666  0.5802663547029265  1.0000
