data_image0
_chemical_formula_structural       NC9NC5H8C7F3H5C9H10Zn2C4O8
_chemical_formula_sum              "N2 C34 H23 F3 Zn2 O8"
_cell_length_a       17.807436237873137
_cell_length_b       9.272718291674593
_cell_length_c       9.272679976505533
_cell_angle_alpha    86.45423910102922
_cell_angle_beta     89.80029134641114
_cell_angle_gamma    87.96869977406762

_space_group_name_H-M_alt    "P 1"
_space_group_IT_number       1

loop_
  _space_group_symop_operation_xyz
  'x, y, z'

loop_
  _atom_site_type_symbol
  _atom_site_label
  _atom_site_symmetry_multiplicity
  _atom_site_fract_x
  _atom_site_fract_y
  _atom_site_fract_z
  _atom_site_occupancy
  N   N1        1.0  0.6957848175916986  0.5284718890066946  0.4099578305742497  1.0000
  C   C1        1.0  0.6353035795675507  0.48929920103350505  0.39742304020535424  1.0000
  C   C2        1.0  0.5600715668251417  0.44057269096836094  0.3818311224588864  1.0000
  C   C3        1.0  0.5418686774390316  0.36035464446272436  0.2646631287858361  1.0000
  C   C4        1.0  0.4688224188581844  0.31292042499530304  0.24943171820678448  1.0000
  C   C5        1.0  0.4129318113084717  0.3452847391621305  0.3513290902563546  1.0000
  C   C6        1.0  0.3353023038792762  0.295002705414167  0.33523412662955376  1.0000
  C   C7        1.0  0.2728802990704017  0.38601532256655213  0.3647192614498498  1.0000
  C   C8        1.0  0.19969265494107605  0.3383557573675504  0.34950132507156484  1.0000
  C   C9        1.0  0.1362105335509279  0.432360173388185  0.37941314646693236  1.0000
  N   N2        1.0  0.0851839182638903  0.5079332297919521  0.4034613950796615  1.0000
  C   C10       1.0  0.1883444696378695  0.1993968787267513  0.3047679356307076  1.0000
  C   C11       1.0  0.2499091304287097  0.10836880611672114  0.2752733703744763  1.0000
  C   C12       1.0  0.3229782217163072  0.15558848631398736  0.2902631361548589  1.0000
  C   C13       1.0  0.4318248667622706  0.426053667752444  0.4687446261728243  1.0000
  C   C14       1.0  0.5049241916285642  0.47327510660420713  0.4838016396309542  1.0000
  H   H1        1.0  0.5840754516727203  0.33476104967133  0.18486390375261008  1.0000
  H   H2        1.0  0.4558102719142106  0.25258623699889493  0.15692737696410042  1.0000
  H   H3        1.0  0.2810768102675867  0.494497360941801  0.3975986071284525  1.0000
  H   H4        1.0  0.1319825200623541  0.16150904370531283  0.2927191646035441  1.0000
  H   H5        1.0  0.2410060269532746  0.0007869945182583652  0.24106834963994328  1.0000
  H   H6        1.0  0.3698237692316885  0.0824155746096209  0.26856239568067  1.0000
  H   H7        1.0  0.3903423954610313  0.4510599492853759  0.5499763455772569  1.0000
  H   H8        1.0  0.5184553627592352  0.5349556269457114  0.5751599546558166  1.0000
  C   C15       1.0  0.8921129110722521  0.09470824609621498  0.4034976530194725  1.0000
  C   C16       1.0  0.8459567639635985  0.17764971336900448  0.3046317221770396  1.0000
  C   C17       1.0  0.7945247035729954  0.11211712580083266  0.21722959692662155  1.0000
  C   C18       1.0  0.7912295893581525  0.9610704063024496  0.22571349009236985  1.0000
  C   C19       1.0  0.8374307751584253  0.877142272166441  0.32145889645244274  1.0000
  C   C20       1.0  0.888863075080715  0.9416855238025532  0.4099339301742299  1.0000
  C   C21       1.0  0.7469691478737555  0.20265556846258237  0.10921486641136058  1.0000
  F   F1        1.0  0.7278491801502417  0.3355069477724859  0.16193121322440818  1.0000
  F   F2        1.0  0.6812735247070153  0.1344766558261521  0.08018920068113444  1.0000
  F   F3        1.0  0.7870514636359082  0.22430244760344653  0.9822560241072398  1.0000
  H   H9        1.0  0.9824374801592943  0.17115315486142824  0.7131365315722122  1.0000
  H   H10       1.0  0.8489319813489442  0.2944073594272747  0.297871822501863  1.0000
  H   H11       1.0  0.753425889293884  0.907411143915558  0.15701415183030076  1.0000
  H   H12       1.0  0.8343710414632988  0.7605502512377548  0.32344972211269685  1.0000
  H   H13       1.0  0.05078123742373486  0.8186346142597671  0.5807584177008027  1.0000
  C   C22       1.0  0.8889776938300116  0.5148718396168537  0.9833526334650546  1.0000
  C   C23       1.0  0.9403811457210955  0.42297221783503214  0.062089106832191154  1.0000
  C   C24       1.0  0.9954398354527223  0.34256379416508653  0.9919854250595184  1.0000
  C   C25       1.0  0.0009566290444573687  0.3514079494897324  0.8410999847350698  1.0000
  C   C26       1.0  0.9486588137881156  0.4413978918488981  0.7609794074698697  1.0000
  C   C27       1.0  0.8919982943855737  0.5215219582094857  0.8300789552097712  1.0000
  C   C28       1.0  0.06305782986130581  0.26127708530261073  0.7732611055902296  1.0000
  C   C29       1.0  0.04542025115867631  0.19622248634375805  0.6309581848391197  1.0000
  C   C30       1.0  0.09777285468297392  0.3225640144014037  0.6332393060872215  1.0000
  H   H14       1.0  0.7754720349470211  0.6183445361712177  0.2589318654823387  1.0000
  H   H15       1.0  0.9392195990422063  0.4157604554561394  0.1791282731149506  1.0000
  H   H16       1.0  0.03459206738568121  0.2738657844308303  0.05646246007340227  1.0000
  H   H17       1.0  0.9503155995203844  0.4475436126827445  0.6442198399586734  1.0000
  H   H18       1.0  0.7208972422064047  0.6661891728936056  0.7192530179248706  1.0000
  H   H19       1.0  0.10257642577090342  0.1943312651627129  0.8442992501309887  1.0000
  H   H20       1.0  0.9895159726070935  0.22377605265726075  0.5823946779105653  1.0000
  H   H21       1.0  0.0750027319142923  0.09086205241941771  0.6153883581170159  1.0000
  H   H22       1.0  0.07370628519487331  0.4267951748169359  0.5859436545985033  1.0000
  H   H23       1.0  0.15796195268690627  0.2910347583012771  0.6189986475678357  1.0000
  Zn  Zn1       1.0  0.8081570298784734  0.5225410930463998  0.4080914082186018  1.0000
  Zn  Zn2       1.0  0.9728117751671511  0.513852363336359  0.405339580365524  1.0000
  C   C31       1.0  0.8914477115689975  0.5145198607944017  0.6699858775353529  1.0000
  C   C32       1.0  0.8895228850243075  0.5218753214373634  0.14344523632863249  1.0000
  C   C33       1.0  0.8894530113555377  0.7815438770203704  0.40297233079231365  1.0000
  C   C34       1.0  0.8915175359749329  0.2548495761293501  0.4104588477069657  1.0000
  O   O1        1.0  0.952191498041666  0.5209221347024466  0.19612942417466514  1.0000
  O   O2        1.0  0.9537482430681578  0.5088774115227119  0.6152126927425927  1.0000
  O   O3        1.0  0.9521366604311551  0.7245027378279165  0.39959739005526207  1.0000
  O   O4        1.0  0.9538030240679491  0.3052968208295368  0.4117446197823793  1.0000
  O   O5        1.0  0.8271657247890584  0.7310966385197695  0.4016863697332389  1.0000
  O   O6        1.0  0.8287773005002791  0.5154730442631565  0.6173016087167675  1.0000
  O   O7        1.0  0.8272205495330925  0.5275177035719895  0.1982166064326858  1.0000
  O   O8        1.0  0.8288320759814791  0.3118923802333322  0.41383191005150843  1.0000
