data_image0
_chemical_formula_structural       NC11NC3H8C12ClH9C13NH9Zn2C4O8
_chemical_formula_sum              "N3 C43 H26 Cl1 Zn2 O8"
_cell_length_a       17.807433833752565
_cell_length_b       10.299768534541528
_cell_length_c       10.298528502251457
_cell_angle_alpha    85.5429176668528
_cell_angle_beta     88.52196449538943
_cell_angle_gamma    90.7030232555817

_space_group_name_H-M_alt    "P 1"
_space_group_IT_number       1

loop_
  _space_group_symop_operation_xyz
  'x, y, z'

loop_
  _atom_site_type_symbol
  _atom_site_label
  _atom_site_symmetry_multiplicity
  _atom_site_fract_x
  _atom_site_fract_y
  _atom_site_fract_z
  _atom_site_occupancy
  N   N1        1.0  0.707719519844696  0.4389563882483983  0.5345146621818302  1.0000
  C   C1        1.0  0.6568918123197475  0.4042076414958063  0.601084141482919  1.0000
  C   C2        1.0  0.5936570192927543  0.36098306582924544  0.683888078496358  1.0000
  C   C3        1.0  0.605369049925485  0.29739224905919337  0.8066196545410159  1.0000
  C   C4        1.0  0.5440420233527313  0.25584820043339773  0.8871394302715688  1.0000
  C   C5        1.0  0.4708485431833322  0.277581487867656  0.8455684947820894  1.0000
  C   C6        1.0  0.4581597602447234  0.34132700895039086  0.7223766702151448  1.0000
  C   C7        1.0  0.3803983825142642  0.36439133651306366  0.6780247832638202  1.0000
  C   C8        1.0  0.3616151273999628  0.3475625855778682  0.5484284042753076  1.0000
  C   C9        1.0  0.2883916986815672  0.3692571600603256  0.5068133909768362  1.0000
  C   C10       1.0  0.23300853245570088  0.4080992850241546  0.5939743919855757  1.0000
  C   C11       1.0  0.1576485412096271  0.43045277503833956  0.5509979373923535  1.0000
  N   N2        1.0  0.09706448129773171  0.4484233203504329  0.516447995716393  1.0000
  C   C12       1.0  0.2511002774517255  0.4251387890251411  0.7230395783775634  1.0000
  C   C13       1.0  0.32427093112562394  0.4034091993667111  0.7649100508283438  1.0000
  C   C14       1.0  0.5203440974146933  0.3828664871882157  0.641873312171181  1.0000
  H   H1        1.0  0.6618307082852519  0.27996674733203286  0.8399887650001108  1.0000
  H   H2        1.0  0.553228385853116  0.2063646220854436  0.9818857082958159  1.0000
  H   H3        1.0  0.42420115430240873  0.24300451196851558  0.9090143188538516  1.0000
  H   H4        1.0  0.4032894283241704  0.31594401229047087  0.47970282161598793  1.0000
  H   H5        1.0  0.27495030705556  0.3554100171341543  0.4067664833293915  1.0000
  H   H6        1.0  0.20870897926893597  0.4555345185835109  0.7912502995243712  1.0000
  H   H7        1.0  0.337184182712273  0.41880179898194614  0.8647742214519  1.0000
  H   H8        1.0  0.5118564595712816  0.4337123276772594  0.5473614130208716  1.0000
  C   C15       1.0  0.9023247337947595  0.06232282359890597  0.5254823043940499  1.0000
  C   C16       1.0  0.9072766011097139  0.07205538200601505  0.38876675789776627  1.0000
  C   C17       1.0  0.9098579756759624  0.9598493331522372  0.3194959415626237  1.0000
  C   C18       1.0  0.9074200860594938  0.8367711481197956  0.3887755916529416  1.0000
  C   C19       1.0  0.9024664514034726  0.8250470177233641  0.5254911581015422  1.0000
  C   C20       1.0  0.8999470691601421  0.9383809178073045  0.59307888068879  1.0000
  C   C21       1.0  0.9150976373803834  0.971199260697874  0.17486224418304963  1.0000
  C   C22       1.0  0.8723601824146997  0.06372552559125744  0.10237239267821652  1.0000
  C   C23       1.0  0.8773588382111416  0.07421423079003002  0.9662439260615882  1.0000
  C   C24       1.0  0.9250224476247172  0.9926976189332005  0.9009166086318052  1.0000
  C   C25       1.0  0.9677476341410404  0.9004838145976359  0.9718956224346925  1.0000
  C   C26       1.0  0.9628823915207804  0.8896060971162237  0.10803254336874057  1.0000
  Cl  Cl1       1.0  0.9312102961577267  0.006101267927599355  0.7301234403655608  1.0000
  H   H9        1.0  0.9003992814753374  0.3860670538834466  0.5775761927840333  1.0000
  H   H10       1.0  0.9101745396383281  0.16715616462744864  0.33589318885588204  1.0000
  H   H11       1.0  0.9083574579111857  0.7499781767433787  0.3357794168797543  1.0000
  H   H12       1.0  0.8961261706257194  0.9301044897968819  0.6985486667134202  1.0000
  H   H13       1.0  0.9006087969723195  0.4931265550130919  0.5775897024201817  1.0000
  H   H14       1.0  0.8343739221578382  0.12676189741791746  0.15088429825629524  1.0000
  H   H15       1.0  0.8440046920820405  0.14553624390877704  0.9116729706152777  1.0000
  H   H16       1.0  0.004896107163263383  0.8373810319922197  0.921732906140659  1.0000
  H   H17       1.0  0.997189899860056  0.8186010827525024  0.16106477053972634  1.0000
  C   C27       1.0  0.9024062915067264  0.4438116752033452  0.14406938518872736  1.0000
  C   C28       1.0  0.8243074925400451  0.4617744484655229  0.14520369994514867  1.0000
  C   C29       1.0  0.7847419255096039  0.4707362878539572  0.028631614476759774  1.0000
  C   C30       1.0  0.8242850170328933  0.46150904525761116  0.9099450338811363  1.0000
  C   C31       1.0  0.9023848874262637  0.44355817757157445  0.9069040927060867  1.0000
  C   C32       1.0  0.9409454262078844  0.4348216792017144  0.024456310218486706  1.0000
  C   C33       1.0  0.7021757856041932  0.4897208291434612  0.03083848499474139  1.0000
  C   C34       1.0  0.6690223249269064  0.5768448597270974  0.11329473315281269  1.0000
  C   C35       1.0  0.5913028933974186  0.594667968916289  0.11525257740960358  1.0000
  C   C36       1.0  0.5457027994285195  0.5257013416697238  0.0350181214277252  1.0000
  C   C37       1.0  0.5781148230923603  0.43879561499823755  0.9527002901217653  1.0000
  C   C38       1.0  0.655826217750995  0.4208779467228916  0.9505062066505898  1.0000
  C   C39       1.0  0.46569057288808047  0.5441009455862875  0.03715438901033119  1.0000
  N   N3        1.0  0.4013661381149928  0.5588931094071456  0.038871839123112636  1.0000
  H   H18       1.0  0.049920010171713644  0.4090592219645752  0.34931618726753116  1.0000
  H   H19       1.0  0.7939681328466195  0.46704451057317203  0.2371272777810675  1.0000
  H   H20       1.0  0.7942288694837352  0.47012534954897395  0.8196359501057946  1.0000
  H   H21       1.0  0.0011376810879046861  0.4209821353977874  0.02284719289567749  1.0000
  H   H22       1.0  0.05003772906275538  0.41045187297576097  0.6937665320234743  1.0000
  H   H23       1.0  0.7033007490775671  0.6324460647051539  0.1750082504658905  1.0000
  H   H24       1.0  0.5668241398875437  0.6624623832983455  0.17909689281625948  1.0000
  H   H25       1.0  0.5433174184928178  0.38463193771516857  0.8904391557048736  1.0000
  H   H26       1.0  0.6795671352472658  0.3519354154990473  0.8872428860643575  1.0000
  Zn  Zn1       1.0  0.8200760643491443  0.44168486324649736  0.5293084979306217  1.0000
  Zn  Zn2       1.0  0.9847079197625633  0.44568422229285615  0.5216647472022362  1.0000
  C   C40       1.0  0.9023862937245871  0.4384324251088428  0.7627120407286136  1.0000
  C   C41       1.0  0.9023994884627303  0.4489383426728582  0.28826124843649015  1.0000
  C   C42       1.0  0.9024359357654984  0.6808775703712222  0.5203138720883318  1.0000
  C   C43       1.0  0.9023497899526363  0.20649163572757234  0.5306594889142706  1.0000
  O   O1        1.0  0.9648741353896281  0.4521709693089633  0.33375259131958623  1.0000
  O   O2        1.0  0.9648634155631105  0.4382342398564214  0.7114188940020603  1.0000
  O   O3        1.0  0.9649026598821431  0.6340117398845837  0.5156806969377769  1.0000
  O   O4        1.0  0.9648348348973542  0.2563934772386276  0.5294906936052327  1.0000
  O   O5        1.0  0.8399490930335817  0.6309756069373573  0.5214825541292303  1.0000
  O   O6        1.0  0.8399098490029597  0.43519966722873266  0.7172206819576199  1.0000
  O   O7        1.0  0.8399205689148544  0.44913635194560697  0.3395528176732305  1.0000
  O   O8        1.0  0.8398812684150502  0.25335885055407587  0.5352910173391189  1.0000
