data_image0
_chemical_formula_structural       NC12NC2H8C7N4H5C6SCNH4Zn2C4O8
_chemical_formula_sum              "N7 C32 H17 S1 Zn2 O8"
_cell_length_a       17.80743265337812
_cell_length_b       9.274187458527196
_cell_length_c       9.275272990362726
_cell_angle_alpha    85.40293579376788
_cell_angle_beta     91.20895717805207
_cell_angle_gamma    89.89930755814213

_space_group_name_H-M_alt    "P 1"
_space_group_IT_number       1

loop_
  _space_group_symop_operation_xyz
  'x, y, z'

loop_
  _atom_site_type_symbol
  _atom_site_label
  _atom_site_symmetry_multiplicity
  _atom_site_fract_x
  _atom_site_fract_y
  _atom_site_fract_z
  _atom_site_occupancy
  N   N1        1.0  0.718679340312218  0.5752123379064509  0.4561787516483198  1.0000
  C   C1        1.0  0.6682241513073633  0.608703027375309  0.38006593149443435  1.0000
  C   C2        1.0  0.6054528430048781  0.6503629776836487  0.28539117587063917  1.0000
  C   C3        1.0  0.6178493782933058  0.7115800669570499  0.1451031005050876  1.0000
  C   C4        1.0  0.5569704556625132  0.751547336494232  0.053079502997708264  1.0000
  C   C5        1.0  0.4835440996475289  0.7305964998031949  0.10061271362459756  1.0000
  C   C6        1.0  0.4701686999292648  0.6692428964893244  0.24142004904133188  1.0000
  C   C7        1.0  0.5319050079501314  0.6292794026037762  0.333425325171477  1.0000
  C   C8        1.0  0.3921595115784702  0.647027040935148  0.2921230798003674  1.0000
  C   C9        1.0  0.3730894004950587  0.6759396779558562  0.4334675608550887  1.0000
  C   C10       1.0  0.2996331643635218  0.6550345815670295  0.48104613699232834  1.0000
  C   C11       1.0  0.2443001313651296  0.6049263001794788  0.3882094004893828  1.0000
  C   C12       1.0  0.1687000976708773  0.5833936902794978  0.43734045371371577  1.0000
  N   N2        1.0  0.10792302365187711  0.5660829207680755  0.47683844040730583  1.0000
  C   C13       1.0  0.2626761777087391  0.5758207885298595  0.24746695292181964  1.0000
  C   C14       1.0  0.33608046204386866  0.5967448378336506  0.19960418780339212  1.0000
  H   H1        1.0  0.6744977076309762  0.7283754653112444  0.10694966245657181  1.0000
  H   H2        1.0  0.5666871832445479  0.7992433463134067  0.9447481598696778  1.0000
  H   H3        1.0  0.43725931101444854  0.7641413434115647  0.027953433203789853  1.0000
  H   H4        1.0  0.5228804777263203  0.5800470390193024  0.4416084334712105  1.0000
  H   H5        1.0  0.4147292725116795  0.7165544896378527  0.5065882262041349  1.0000
  H   H6        1.0  0.2859747401816589  0.6783078731276413  0.5900931864958676  1.0000
  H   H7        1.0  0.22032411185146203  0.5366084637414008  0.17481421168048186  1.0000
  H   H8        1.0  0.3492021990938887  0.5717641889368814  0.09088309493947855  1.0000
  C   C15       1.0  0.9114881607442155  0.14735641407349065  0.4637797548902687  1.0000
  C   C16       1.0  0.9506961062482869  0.22910317968014815  0.35603031928008066  1.0000
  C   C17       1.0  0.9948119399239901  0.16190529653646157  0.2584161262435476  1.0000
  C   C18       1.0  0.0010925347956409752  0.010817969826410145  0.2658450551183158  1.0000
  C   C19       1.0  0.9608911178204932  0.9279151963247723  0.3714639995204708  1.0000
  C   C20       1.0  0.9151212796194027  0.9939274557281521  0.46925013904899404  1.0000
  C   C21       1.0  0.04894987407867334  0.9416320303302281  0.16181977635955014  1.0000
  N   N3        1.0  0.08538306560012732  0.014511861589654007  0.05299845001814995  1.0000
  N   N4        1.0  0.12139879097494943  0.9142050873883064  0.9870575822427887  1.0000
  N   N5        1.0  0.10803561196908285  0.7847356211855039  0.05205423329326364  1.0000
  N   N6        1.0  0.06300504025146147  0.7990246947341081  0.1613610910204999  1.0000
  H   H9        1.0  0.8126897316983307  0.41785301551869547  0.6033391490857921  1.0000
  H   H10       1.0  0.948742768430633  0.3462183645156549  0.3492979282913524  1.0000
  H   H11       1.0  0.024815688352046505  0.22883884259483644  0.17785612343067236  1.0000
  H   H12       1.0  0.9632503359321948  0.8111472086111751  0.375934298873047  1.0000
  H   H13       1.0  0.8665193891075668  0.6965177388472189  0.6882419181061223  1.0000
  C   C22       1.0  0.9145501410006138  0.5744431491977817  0.04280036688211352  1.0000
  C   C23       1.0  0.857639754532914  0.6502090736062485  0.10799737780819778  1.0000
  C   C24       1.0  0.798079758697128  0.7135266073587472  0.025575831352727667  1.0000
  C   C25       1.0  0.794347689708312  0.702570299392783  0.8764786998703633  1.0000
  C   C26       1.0  0.8508544098102052  0.6293734920600313  0.8093471417331264  1.0000
  C   C27       1.0  0.9120593401559649  0.566840748892768  0.8902295467192749  1.0000
  S   S1        1.0  0.7172235881791041  0.7824771421961455  0.7712067329063858  1.0000
  C   C28       1.0  0.7644053184132004  0.9487138241421926  0.738510057531303  1.0000
  N   N7        1.0  0.795356795952853  0.057685842668065763  0.7170910315830432  1.0000
  H   H14       1.0  0.8582198805956277  0.6575775529013688  0.22398674905941252  1.0000
  H   H15       1.0  0.7544708519943207  0.7702094667038643  0.07809437911678874  1.0000
  H   H16       1.0  0.8478825660544742  0.6245792406462973  0.6930190140622625  1.0000
  H   H17       1.0  0.09024666113012336  0.4736948431265991  0.8019127448709293  1.0000
  Zn  Zn1       1.0  0.8310066215709896  0.5725738622800065  0.46214898493389267  1.0000
  Zn  Zn2       1.0  0.9955956548458288  0.5687095328606688  0.4708799004047351  1.0000
  C   C29       1.0  0.9125038240878391  0.5625354195328506  0.7300101074670061  1.0000
  C   C30       1.0  0.9141002570251829  0.578749750884638  0.20301902658524806  1.0000
  C   C31       1.0  0.9144476000978372  0.8339592168339441  0.46246614585292495  1.0000
  C   C32       1.0  0.912156417194061  0.3073242223924346  0.47056305095591117  1.0000
  O   O1        1.0  0.9764099252301665  0.5787223043256557  0.26010316868104266  1.0000
  O   O2        1.0  0.9751134203615339  0.5596288457842749  0.6795521058107874  1.0000
  O   O3        1.0  0.9766821976623304  0.7788070010367933  0.4635084289084884  1.0000
  O   O4        1.0  0.9748410921285237  0.3595441616737818  0.4761467344839402  1.0000
  O   O5        1.0  0.8517611281221648  0.781739234787237  0.45688214786767545  1.0000
  O   O6        1.0  0.850192358476361  0.5625628120461723  0.6729257590263806  1.0000
  O   O7        1.0  0.8514888682783199  0.5816562359184729  0.25347508680230013  1.0000
  O   O8        1.0  0.8499200348113934  0.36247808198629833  0.4695187607175878  1.0000
