data_image0
_chemical_formula_structural       NC11NC3H8C12ClH9C13OH12Zn2C4O8
_chemical_formula_sum              "N2 C43 H29 Cl1 O9 Zn2"
_cell_length_a       17.807433833752565
_cell_length_b       10.299768534541528
_cell_length_c       10.299153481560891
_cell_angle_alpha    85.58394017871096
_cell_angle_beta     88.54091418840825
_cell_angle_gamma    90.7030232555817

_space_group_name_H-M_alt    "P 1"
_space_group_IT_number       1

loop_
  _space_group_symop_operation_xyz
  'x, y, z'

loop_
  _atom_site_type_symbol
  _atom_site_label
  _atom_site_symmetry_multiplicity
  _atom_site_fract_x
  _atom_site_fract_y
  _atom_site_fract_z
  _atom_site_occupancy
  N   N1        1.0  0.7074303902281402  0.43789697311018255  0.5346983599475286  1.0000
  C   C1        1.0  0.6566158163781104  0.40319635015132277  0.6012594948016994  1.0000
  C   C2        1.0  0.593397359966667  0.3600316343428662  0.6840530523880448  1.0000
  C   C3        1.0  0.6051336046482219  0.29652954155131006  0.8067692440984359  1.0000
  C   C4        1.0  0.5438224640425817  0.2550437015388205  0.887278926720232  1.0000
  C   C5        1.0  0.47062078222944903  0.2767469368959745  0.8457132021242159  1.0000
  C   C6        1.0  0.4579076944383242  0.34040340128159796  0.7225368195834325  1.0000
  C   C7        1.0  0.3801375664025998  0.3634356663873961  0.678190492116278  1.0000
  C   C8        1.0  0.3613287428636973  0.3465132288337032  0.5486103579612334  1.0000
  C   C9        1.0  0.2880971038053363  0.3681777193747331  0.5070005610813542  1.0000
  C   C10       1.0  0.2327311338121104  0.40708285396516675  0.5941506365074705  1.0000
  C   C11       1.0  0.1573626636235888  0.42940527583734567  0.5511795689887431  1.0000
  N   N2        1.0  0.0967717872590609  0.44735084462439934  0.516633958128607  1.0000
  C   C12       1.0  0.2508483424322936  0.42421566057980065  0.7231996446506843  1.0000
  C   C13       1.0  0.3240272568463934  0.4025163395369709  0.7650648686612112  1.0000
  C   C14       1.0  0.5200761488802705  0.38188468277463977  0.6420435525902777  1.0000
  H   H1        1.0  0.661601846491196  0.2791281627135817  0.8401341717582383  1.0000
  H   H2        1.0  0.5530275192956869  0.2056286162959413  0.982013328351633  1.0000
  H   H3        1.0  0.4239859107489475  0.24221582666655017  0.9091510732974918  1.0000
  H   H4        1.0  0.4029894847294489  0.31484497308222825  0.47989339001518005  1.0000
  H   H5        1.0  0.2746359736508708  0.35425825146122913  0.4069661942577074  1.0000
  H   H6        1.0  0.20847050172952203  0.4546607004033139  0.7914018156218285  1.0000
  H   H7        1.0  0.33696021090881273  0.417981132036975  0.8649165213669533  1.0000
  H   H8        1.0  0.5115698645253888  0.43266219959362173  0.5475435004535529  1.0000
  C   C15       1.0  0.9020338221595944  0.061256878871940534  0.5256671343607346  1.0000
  C   C16       1.0  0.9069587164898896  0.07089060413766647  0.3889687250815763  1.0000
  C   C17       1.0  0.9095264244270365  0.9586344786645137  0.31970659180443506  1.0000
  C   C18       1.0  0.9071022031825048  0.8356063766374638  0.388977557729445  1.0000
  C   C19       1.0  0.9021755415150797  0.8239810793968395  0.5256759869584198  1.0000
  C   C20       1.0  0.8996694938386749  0.9373638393735533  0.5932552374625242  1.0000
  C   C21       1.0  0.9147375509531208  0.9698798489521925  0.175091024177761  1.0000
  C   C22       1.0  0.8719857942660697  0.06235371015099789  0.10261025923518341  1.0000
  C   C23       1.0  0.8769575929044495  0.07274400661475687  0.9664988562455475  1.0000
  C   C24       1.0  0.9246083137126246  0.9911801689363938  0.9011797275583886  1.0000
  C   C25       1.0  0.9673475038730068  0.8990176760945557  0.9721498441816783  1.0000
  C   C26       1.0  0.9625091200787841  0.8882383734598748  0.10826970042899166  1.0000
  Cl  Cl1       1.0  0.9307624659936306  0.004460349709517476  0.7304079681200575  1.0000
  H   H9        1.0  0.9001186475861079  0.38503876838960016  0.5777544928110068  1.0000
  H   H10       1.0  0.9098462234472361  0.16595316388643913  0.33610178371193555  1.0000
  H   H11       1.0  0.9080291192737088  0.7487750937553822  0.33598802599706157  1.0000
  H   H12       1.0  0.8958694037272396  0.9291636566076615  0.6987118029085913  1.0000
  H   H13       1.0  0.9003281657484428  0.492098279285507  0.5777680007537294  1.0000
  H   H14       1.0  0.8340091050559434  0.12542515175681346  0.15111608387308895  1.0000
  H   H15       1.0  0.8435926803220677  0.1440265698019254  0.9119347412379151  1.0000
  H   H16       1.0  0.004486080155526429  0.8358786303211334  0.9219934157560158  1.0000
  H   H17       1.0  0.9968270912914244  0.8172716966644856  0.16129528004002558  1.0000
  C   C27       1.0  0.9020401298719651  0.4424700029681683  0.14430202505105494  1.0000
  C   C28       1.0  0.8243644381500455  0.4162039574961689  0.14857696711733825  1.0000
  C   C29       1.0  0.7851175250195543  0.4030525945840766  0.03357057455493351  1.0000
  C   C30       1.0  0.824541743808137  0.4165255581981322  0.9132607794169827  1.0000
  C   C31       1.0  0.9021692423936011  0.44276799950283774  0.9070411255592221  1.0000
  C   C32       1.0  0.9404651635893886  0.4555833845084192  0.023116246562696844  1.0000
  C   C33       1.0  0.7029951651783571  0.37529599821235854  0.039063315494093816  1.0000
  C   C34       1.0  0.6554935826123136  0.4393786169468523  0.9486009634604051  1.0000
  C   C35       1.0  0.5782116023144317  0.41330196385614953  0.9538479122955699  1.0000
  C   C36       1.0  0.5471302799450329  0.3218360277974386  0.04874817350854621  1.0000
  C   C37       1.0  0.5941280828769949  0.25883744406230097  0.14015245216778838  1.0000
  C   C38       1.0  0.6714136215873706  0.28488453649919143  0.135083487289978  1.0000
  C   C39       1.0  0.46387299390487746  0.2965279803706094  0.05652703130576176  1.0000
  O   O1        1.0  0.4301463174770191  0.3832961172047058  0.13760081669894464  1.0000
  H   H18       1.0  0.0485614588543648  0.4928757752959692  0.3434656715878013  1.0000
  H   H19       1.0  0.7940750405330524  0.40770486066862177  0.24145774177184176  1.0000
  H   H20       1.0  0.7947328801729738  0.4047496027263065  0.8244644922677719  1.0000
  H   H21       1.0  0.0003411702718651982  0.47582860045234887  0.01903468105742179  1.0000
  H   H22       1.0  0.9320175856808419  0.45294743949118704  0.5771672381209672  1.0000
  H   H23       1.0  0.6779638188748462  0.5111796422029535  0.8750021799730949  1.0000
  H   H24       1.0  0.5425771868708227  0.4647164228562735  0.8840214850826897  1.0000
  H   H25       1.0  0.5709655189505171  0.18922597956614462  0.21522328311849862  1.0000
  H   H26       1.0  0.7065964954152175  0.2332586152948042  0.20545407429315102  1.0000
  H   H27       1.0  0.45193063166602365  0.19445172492364327  0.0958979499602024  1.0000
  H   H28       1.0  0.4400963093093107  0.30931577279390543  0.9574996191120889  1.0000
  H   H29       1.0  0.37553059605654304  0.3626165713160905  0.13943107295653312  1.0000
  Zn  Zn1       1.0  0.8197859075941827  0.4406216845160591  0.529492848286091  1.0000
  Zn  Zn2       1.0  0.9844162549510833  0.44461551781267095  0.5218500556975754  1.0000
  C   C40       1.0  0.902142185793923  0.43753797631392266  0.7628671340808144  1.0000
  C   C41       1.0  0.9020617748356397  0.4477009082889859  0.288475813929578  1.0000
  C   C42       1.0  0.9021440044361665  0.6798078893288639  0.5204993499151092  1.0000
  C   C43       1.0  0.9020598997383867  0.20542943364307023  0.530843669923778  1.0000
  O   O2        1.0  0.9645453968741845  0.4509664211069344  0.3339614544983416  1.0000
  O   O3        1.0  0.9646091878670267  0.43730271069315735  0.7115804169214539  1.0000
  O   O4        1.0  0.9646098144609941  0.6329387094699969  0.5158667555304621  1.0000
  O   O5        1.0  0.9645447140882765  0.2553304302194051  0.5296750211225767  1.0000
  O   O6        1.0  0.8396573922767309  0.629906770747837  0.5216678854623689  1.0000
  O   O7        1.0  0.8396567659575139  0.43427233224048384  0.7173814776261451  1.0000
  O   O8        1.0  0.8395929747419564  0.44793599678969387  0.33976095379686333  1.0000
  O   O9        1.0  0.8395922919677301  0.2522999966513666  0.5354746177891339  1.0000
