data_image0
_chemical_formula_structural       NC12NC2H8C12NCOCH13C15H12Zn2C4O8
_chemical_formula_sum              "N3 C47 H33 O9 Zn2"
_cell_length_a       19.240039667572717
_cell_length_b       10.299155265289647
_cell_length_c       10.299157797200024
_cell_angle_alpha    85.52785804654131
_cell_angle_beta     90.02248165465589
_cell_angle_gamma    89.9765233896273

_space_group_name_H-M_alt    "P 1"
_space_group_IT_number       1

loop_
  _space_group_symop_operation_xyz
  'x, y, z'

loop_
  _atom_site_type_symbol
  _atom_site_label
  _atom_site_symmetry_multiplicity
  _atom_site_fract_x
  _atom_site_fract_y
  _atom_site_fract_z
  _atom_site_occupancy
  N   N1        1.0  0.6538642834071439  0.42179189854346655  0.5669976334738998  1.0000
  C   C1        1.0  0.5937159145542206  0.42179198255454353  0.5669975515103607  1.0000
  C   C2        1.0  0.5188978773584739  0.4217920998884814  0.5669974141671574  1.0000
  C   C3        1.0  0.4824600365319648  0.35729221903062874  0.6704322375658929  1.0000
  C   C4        1.0  0.4097893309437833  0.3571813045938854  0.6705188135396472  1.0000
  C   C5        1.0  0.3725656423529927  0.4217921925261328  0.566997186447944  1.0000
  C   C6        1.0  0.40971763214926726  0.4864032674025312  0.46347575386051987  1.0000
  C   C7        1.0  0.48238836320221806  0.48629211741353306  0.4635624524027393  1.0000
  C   C8        1.0  0.29536055191057514  0.421792113886634  0.5669970910468438  1.0000
  C   C9        1.0  0.2582063906992694  0.3085108482640635  0.6088992681622194  1.0000
  C   C10       1.0  0.1855356596714101  0.30861778276385055  0.6088079099321186  1.0000
  C   C11       1.0  0.1490282650285177  0.4217919846866003  0.5669971519937822  1.0000
  C   C12       1.0  0.07421022795076969  0.42179187086354486  0.5669974006985656  1.0000
  N   N2        1.0  0.014061911151420598  0.4217918299768173  0.5669976091408546  1.0000
  C   C13       1.0  0.18546838121448778  0.5349662624578553  0.525186341142146  1.0000
  C   C14       1.0  0.2581390347149596  0.5350733771388787  0.5250948202617043  1.0000
  H   H1        1.0  0.5102028185056746  0.30735481279970345  0.7511911014242458  1.0000
  H   H2        1.0  0.38272399947928537  0.30804172048298106  0.7523930474042071  1.0000
  H   H3        1.0  0.3825964328090172  0.5355428785825529  0.3816014691375693  1.0000
  H   H4        1.0  0.5100753527715386  0.5362294232948805  0.38280386438197267  1.0000
  H   H5        1.0  0.2853257754609638  0.21933984658332517  0.6400915156353029  1.0000
  H   H6        1.0  0.1578469470385715  0.2203457295086424  0.6410329565911184  1.0000
  H   H7        1.0  0.15772727040797743  0.6232382911701846  0.492961309040719  1.0000
  H   H8        1.0  0.2852061287436961  0.624244458015037  0.49390252799418444  1.0000
  C   C15       1.0  0.8340440871906828  0.04039435451275696  0.5671163166441997  1.0000
  C   C16       1.0  0.8221430862303881  0.050144743952543536  0.4321836190135621  1.0000
  C   C17       1.0  0.8160416904330213  0.9379507574903534  0.36365216841479886  1.0000
  C   C18       1.0  0.8219768377822174  0.8148850891358725  0.4318758170879218  1.0000
  C   C19       1.0  0.83388880900539  0.8031794354673436  0.5668901098257879  1.0000
  C   C20       1.0  0.839852191277401  0.9164516153289984  0.6336791551818384  1.0000
  C   C21       1.0  0.8034527264219085  0.9492391614934388  0.22090966735770692  1.0000
  C   C22       1.0  0.8386832932644317  0.04338041281205296  0.13948753113437418  1.0000
  C   C23       1.0  0.8268419675548996  0.053872667466260175  0.005157325991244746  1.0000
  C   C24       1.0  0.7799654345161461  0.9695511288079076  0.9494036683098943  1.0000
  C   C25       1.0  0.7438858845881472  0.8772261885719302  0.030757641424919324  1.0000
  C   C26       1.0  0.7557525162976692  0.8664779284095758  0.16505050901935303  1.0000
  N   N3        1.0  0.7658867677585413  0.9798433973542757  0.8118349550631344  1.0000
  C   C27       1.0  0.8166145894118767  0.016816508712252043  0.7136117497944667  1.0000
  O   O1        1.0  0.8803812143973553  0.019340432016889744  0.7414717063986246  1.0000
  C   C28       1.0  0.7944126581029799  0.043314885778516374  0.5750641507066705  1.0000
  H   H9        1.0  0.8386432934932433  0.36412012667177507  0.6190115092128181  1.0000
  H   H10       1.0  0.8166332423604878  0.14520914492266426  0.38037109745975894  1.0000
  H   H11       1.0  0.818226967659833  0.7281056164366412  0.3792444385710003  1.0000
  H   H12       1.0  0.8490340216771426  0.9082160712569227  0.7377551191537439  1.0000
  H   H13       1.0  0.8567881816522179  0.5738023580467235  0.8215916991735915  1.0000
  H   H14       1.0  0.8758049092598159  0.10841383540934313  0.17958207677034177  1.0000
  H   H15       1.0  0.8534927011377539  0.12935049755873806  0.9455735701733693  1.0000
  H   H16       1.0  0.7066973853455197  0.812897139324707  0.9897960115938446  1.0000
  H   H17       1.0  0.7268686542445562  0.7946161364286944  0.22546725900720574  1.0000
  H   H18       1.0  0.7169274705686753  0.950986402955926  0.7807597899094589  1.0000
  H   H19       1.0  0.7442412269425484  0.09676222060256336  0.5706102712082282  1.0000
  H   H20       1.0  0.7879716822014943  0.9497221028066236  0.5298375654368161  1.0000
  H   H21       1.0  0.8339672009712841  0.10342679105139684  0.5196657709501453  1.0000
  C   C29       1.0  0.8338858315618131  0.42189313613023804  0.1856111624876211  1.0000
  C   C30       1.0  0.7614972178607722  0.4039124375763083  0.1857916671054638  1.0000
  C   C31       1.0  0.7249428932211874  0.39468670051933574  0.06874089865885424  1.0000
  C   C32       1.0  0.7617037662030612  0.4037036902042767  0.9505244343425692  1.0000
  C   C33       1.0  0.8340470161571438  0.42168059376282474  0.9483952476303643  1.0000
  C   C34       1.0  0.8697156118453129  0.4306645807856284  0.06646893205728643  1.0000
  C   C35       1.0  0.6484119164211758  0.3756824319150349  0.06997802931484265  1.0000
  C   C36       1.0  0.6171562463288564  0.2886969362484484  0.9888967860071171  1.0000
  C   C37       1.0  0.5451373718377034  0.27090617906325565  0.9900932093086602  1.0000
  C   C38       1.0  0.5030915753972175  0.339091763579922  0.07290308061393147  1.0000
  C   C39       1.0  0.5339751161716614  0.4269228693392553  0.15300735791767583  1.0000
  C   C40       1.0  0.6059932890390729  0.4447178251934021  0.15195888409850822  1.0000
  C   C41       1.0  0.4255064045248971  0.322275363485379  0.07184512178249336  1.0000
  C   C42       1.0  0.3942296469976688  0.4160497820391822  0.974406414597324  1.0000
  C   C43       1.0  0.3685248060448094  0.49316042296927165  0.8942848531910047  1.0000
  H   H22       1.0  0.9705710018896541  0.4550359973069762  0.3926253661575063  1.0000
  H   H23       1.0  0.7335432988479023  0.39528694029678046  0.2773319630337796  1.0000
  H   H24       1.0  0.7336491397974851  0.39846527182761693  0.8598936877155068  1.0000
  H   H25       1.0  0.9255161507642756  0.44452692904516966  0.06554236083879839  1.0000
  H   H26       1.0  0.861875517207675  0.4285536734903782  0.6201039389743674  1.0000
  H   H27       1.0  0.6484910474931573  0.23332721211277432  0.9255411064642822  1.0000
  H   H28       1.0  0.5221401795178849  0.20374548461186892  0.9265539966804877  1.0000
  H   H29       1.0  0.5022344959099763  0.4819833919354741  0.21601812994073577  1.0000
  H   H30       1.0  0.6284231680391072  0.5139859043152537  0.2138562310253307  1.0000
  H   H31       1.0  0.4116555568040516  0.22202770883657585  0.04842959632364674  1.0000
  H   H32       1.0  0.4033791905677369  0.33772145050856506  0.16906186270846812  1.0000
  H   H33       1.0  0.345977633710809  0.5608609424518782  0.823945434012843  1.0000
  Zn  Zn1       1.0  0.7578095495373277  0.4217884092079789  0.567005116360416  1.0000
  Zn  Zn2       1.0  0.9101166681894339  0.42178472208456735  0.5670007289389238  1.0000
  C   C44       1.0  0.834016070773763  0.4165467231630542  0.804214282408202  1.0000
  C   C45       1.0  0.8339118098352939  0.42702804679618334  0.32979168983147145  1.0000
  C   C46       1.0  0.8339134693778326  0.6589982323590815  0.5617573947455523  1.0000
  C   C47       1.0  0.8340143595917832  0.18457497716252982  0.5722486472011667  1.0000
  O   O2        1.0  0.8917202873080657  0.42874430431323085  0.37817832859006595  1.0000
  O   O3        1.0  0.8918051723315769  0.4148266875128385  0.7558239401200335  1.0000
  O   O4        1.0  0.8917215415238211  0.6106093470490714  0.5600382875317282  1.0000
  O   O5        1.0  0.8918038661212467  0.23296165409630576  0.5739638837965362  1.0000
  O   O6        1.0  0.7761222996305688  0.6106114771989144  0.560041961497469  1.0000
  O   O7        1.0  0.7762059301028189  0.41483037810298157  0.7558275443733946  1.0000
  O   O8        1.0  0.7761210448047369  0.42874795007905586  0.3781803713614049  1.0000
  O   O9        1.0  0.7762046236375462  0.2329652905454973  0.5739660239443756  1.0000
