data_image0
_chemical_formula_structural       NC8NH4C10H5C6H4Zn2C4O8
_chemical_formula_sum              "N2 C28 H13 Zn2 O8"
_cell_length_a       14.927258825633057
_cell_length_b       9.275150299802176
_cell_length_c       10.681121600428286
_cell_angle_alpha    85.23622488855405
_cell_angle_beta     89.9998652976436
_cell_angle_gamma    89.48389196497259

_space_group_name_H-M_alt    "P 1"
_space_group_IT_number       1

loop_
  _space_group_symop_operation_xyz
  'x, y, z'

loop_
  _atom_site_type_symbol
  _atom_site_label
  _atom_site_symmetry_multiplicity
  _atom_site_fract_x
  _atom_site_fract_y
  _atom_site_fract_z
  _atom_site_occupancy
  N   N1        1.0  0.834732904631622  0.5790663320303961  0.6108861404090163  1.0000
  C   C1        1.0  0.7572064804321816  0.5790663055652934  0.6108861489250719  1.0000
  C   C2        1.0  0.6607738386879558  0.5790663052754021  0.6108861967806123  1.0000
  C   C3        1.0  0.614216203822953  0.490706556480512  0.5333575055404873  1.0000
  C   C4        1.0  0.5205048927701013  0.490706466603072  0.5333574812536725  1.0000
  C   C5        1.0  0.4729578409822918  0.5790663583455378  0.6108861202240679  1.0000
  C   C6        1.0  0.5195154757933912  0.6674261174604028  0.6884147175237072  1.0000
  C   C7        1.0  0.6132268538377957  0.6674262073348756  0.6884147418156837  1.0000
  C   C8        1.0  0.3765251997854658  0.579066260675815  0.6108860729757903  1.0000
  N   N2        1.0  0.2989987749847224  0.5790663419105186  0.6108860826551779  1.0000
  H   H1        1.0  0.6502972250587159  0.42195748905399094  0.4730358501495203  1.0000
  H   H2        1.0  0.4851935693083091  0.42195746536782264  0.4730359347390571  1.0000
  H   H3        1.0  0.4834344545576285  0.7361751848869236  0.7487363729146741  1.0000
  H   H4        1.0  0.6485381103619384  0.7361751982531173  0.7487363822656232  1.0000
  C   C9        1.0  0.06923383704252406  0.15536076450762756  0.6129826425014693  1.0000
  C   C10       1.0  0.11634489937509485  0.23741356598911323  0.5182387208624857  1.0000
  C   C11       1.0  0.15577318216492705  0.17126478355357078  0.4186800373646047  1.0000
  C   C12       1.0  0.14849049264901315  0.022097318686262527  0.4125829143396196  1.0000
  C   C13       1.0  0.1033352249993773  0.9386006807881496  0.5067640088147706  1.0000
  C   C14       1.0  0.06450646751339906  0.002760731246006508  0.608800499107337  1.0000
  C   C15       1.0  0.20289512567540416  0.2570597391824814  0.32176989245399445  1.0000
  C   C16       1.0  0.2423481011476638  0.3289153426164795  0.24063590238287522  1.0000
  C   C17       1.0  0.2885457046206521  0.41306319593278573  0.145631538437478  1.0000
  C   C18       1.0  0.327991073049438  0.48491331709602753  0.06451310118196973  1.0000
  H   H5        1.0  0.12064915116382124  0.3538619148769424  0.5201733572453877  1.0000
  H   H6        1.0  0.17852051167014008  0.969952770710617  0.33554541124287773  1.0000
  H   H7        1.0  0.10059553947361734  0.8226006632232903  0.5013573297675464  1.0000
  H   H8        1.0  0.006295478821422013  0.8722875690686064  0.9063437382184518  1.0000
  H   H9        1.0  0.3626273969969247  0.548003822952852  0.9932844133156755  1.0000
  C   C19       1.0  0.06687018605630257  0.579060742148394  0.24314634078951355  1.0000
  C   C20       1.0  0.00319756206133648  0.498814580967262  0.18211988895498332  1.0000
  C   C21       1.0  0.0031975056136883647  0.49881467348424474  0.05123774854549623  1.0000
  C   C22       1.0  0.06687011523717401  0.5790608128768748  0.9786367761167968  1.0000
  C   C23       1.0  0.1304901871791056  0.659240474022126  0.039662975800054394  1.0000
  C   C24       1.0  0.13049017584240485  0.6592404516486825  0.17055527457351924  1.0000
  H   H10       1.0  0.9532879535021181  0.43591384723013976  0.23546715562128018  1.0000
  H   H11       1.0  0.953287934413751  0.4359139151476672  0.006963126060557374  1.0000
  H   H12       1.0  0.18040631288597053  0.7221494964565436  0.98636000359454  1.0000
  H   H13       1.0  0.18040626803238857  0.7221494458764781  0.21478437132857284  1.0000
  Zn  Zn1       1.0  0.9687100363495251  0.5790624609674404  0.6108933819527453  1.0000
  Zn  Zn2       1.0  0.16502172243963442  0.5790583679088452  0.6108891828270114  1.0000
  C   C25       1.0  0.06690022013987518  0.5733127529402289  0.8396417192375686  1.0000
  C   C26       1.0  0.06683367221071923  0.5848098964178239  0.3821409594244962  1.0000
  C   C27       1.0  0.06539545272884273  0.842584121076353  0.6046007111493336  1.0000
  C   C28       1.0  0.0683383823049537  0.3155367947677945  0.6171820428347403  1.0000
  O   O1        1.0  0.14132071473075714  0.586731517107199  0.428787260689671  1.0000
  O   O2        1.0  0.14140921109129723  0.5713869372303508  0.7929918758139953  1.0000
  O   O3        1.0  0.14019308809075337  0.7888269724225141  0.6031945914459036  1.0000
  O   O4        1.0  0.1425367706858451  0.3692914922379784  0.6185844511121152  1.0000
  O   O5        1.0  0.991194921111762  0.7888293366412749  0.60319811366248  1.0000
  O   O6        1.0  0.9924110344375515  0.5713910349659843  0.7929953227034001  1.0000
  O   O7        1.0  0.9923225384171678  0.5867355645628194  0.42878920220463623  1.0000
  O   O8        1.0  0.9935385944261588  0.369295529373624  0.6185864865675664  1.0000
