data_image0
_chemical_formula_structural       NC12NC2H8C10H6C6NCOCH9Zn2C4O8
_chemical_formula_sum              "N3 C36 H23 O9 Zn2"
_cell_length_a       17.80743265337812
_cell_length_b       10.30283237001006
_cell_length_c       10.300272075376752
_cell_angle_alpha    85.54094874510433
_cell_angle_beta     91.53227337963533
_cell_angle_gamma    89.43531271068052

_space_group_name_H-M_alt    "P 1"
_space_group_IT_number       1

loop_
  _space_group_symop_operation_xyz
  'x, y, z'

loop_
  _atom_site_type_symbol
  _atom_site_label
  _atom_site_symmetry_multiplicity
  _atom_site_fract_x
  _atom_site_fract_y
  _atom_site_fract_z
  _atom_site_occupancy
  N   N1        1.0  0.7074343460550387  0.4066996887570374  0.6014469803657168  1.0000
  C   C1        1.0  0.6566151409166405  0.43627131029011745  0.5327529798673165  1.0000
  C   C2        1.0  0.593391034863758  0.4730562597792732  0.4473062906891594  1.0000
  C   C3        1.0  0.605118835395718  0.5271007154901988  0.32069525917843156  1.0000
  C   C4        1.0  0.5438020621444315  0.5623817716872641  0.23764437585519424  1.0000
  C   C5        1.0  0.4706031911226235  0.5438819660514123  0.28054466692153635  1.0000
  C   C6        1.0  0.45789861316983876  0.48971859489316666  0.40762381067035713  1.0000
  C   C7        1.0  0.5200727026611092  0.4544407968490109  0.49065818335087363  1.0000
  C   C8        1.0  0.3801315105229597  0.47010409320648416  0.45338420067830687  1.0000
  C   C9        1.0  0.36134470731574675  0.49724194709344444  0.5804218203651976  1.0000
  C   C10       1.0  0.2881158899552085  0.47878368927151493  0.6233626730188426  1.0000
  C   C11       1.0  0.23273090178962763  0.4329331180762836  0.5401038191348477  1.0000
  C   C12       1.0  0.1573654720853395  0.41392175976932316  0.5844455035052243  1.0000
  N   N2        1.0  0.09677700367434781  0.39863790631629364  0.620093167326595  1.0000
  C   C13       1.0  0.25082620907850267  0.40562623140475274  0.41360913303819524  1.0000
  C   C14       1.0  0.3240021727696255  0.4240993510889888  0.37041240867356007  1.0000
  H   H1        1.0  0.6615846608991159  0.5419308525677946  0.286260645603871  1.0000
  H   H2        1.0  0.5530005619092897  0.60449691949511  0.13987206839178468  1.0000
  H   H3        1.0  0.4239641200160039  0.5735291907903004  0.21495843284200156  1.0000
  H   H4        1.0  0.5115725944095627  0.41094080146812234  0.5883060185403948  1.0000
  H   H5        1.0  0.40302055161492983  0.5343891837855504  0.6459920150904255  1.0000
  H   H6        1.0  0.2746718683957087  0.5005916301609763  0.7213663760884481  1.0000
  H   H7        1.0  0.20843347641238694  0.36974576053975555  0.34845189976945834  1.0000
  H   H8        1.0  0.336917806947607  0.4007562345254445  0.272711985777949  1.0000
  C   C15       1.0  0.9021092411429862  0.02141616677709624  0.610775828639665  1.0000
  C   C16       1.0  0.938267843147693  0.02901418980093596  0.49093224891002446  1.0000
  C   C17       1.0  0.9562574304811314  0.9156908736007912  0.4313082041843109  1.0000
  C   C18       1.0  0.9382679450702209  0.7937115955372007  0.49093252570328993  1.0000
  C   C19       1.0  0.902109294686387  0.7839113194987833  0.6107758577540372  1.0000
  C   C20       1.0  0.8842183721576701  0.8983594447718598  0.670073078662752  1.0000
  C   C21       1.0  0.9933234323438632  0.9246084089179637  0.3084570381475429  1.0000
  C   C22       1.0  0.024355640395931077  0.9320743772842666  0.2056036071740828  1.0000
  C   C23       1.0  0.06069404484552422  0.9408168775710183  0.08516331987930448  1.0000
  C   C24       1.0  0.09172147680140452  0.9482817166823697  0.9823255352746982  1.0000
  H   H9        1.0  0.8884166745448744  0.34586126730456496  0.6561584806314074  1.0000
  H   H10       1.0  0.9525316697164977  0.1228641317991641  0.44365633694183515  1.0000
  H   H11       1.0  0.9525319056559182  0.7067250210300255  0.4436564169083956  1.0000
  H   H12       1.0  0.8563331677989123  0.8916508590964598  0.7624949275186665  1.0000
  H   H13       1.0  0.8884164622714845  0.4528776603270313  0.6561582811547215  1.0000
  H   H14       1.0  0.11896612126791783  0.9548365894124701  0.8920253926645505  1.0000
  C   C25       1.0  0.9021154330803621  0.4027954559972846  0.2294234048394992  1.0000
  C   C26       1.0  0.8252281163570432  0.4350997183070868  0.22230210419542404  1.0000
  C   C27       1.0  0.7867111894453308  0.45312713063390087  0.1013099376312867  1.0000
  C   C28       1.0  0.825235709869867  0.43480356161411654  0.9871685089172851  1.0000
  C   C29       1.0  0.9021031300760408  0.4025319756622723  0.992128309695358  1.0000
  C   C30       1.0  0.9402010229265297  0.38718084800345137  0.11374311348274734  1.0000
  N   N3        1.0  0.7077279714122623  0.48420511402771904  0.09254566797880215  1.0000
  C   C31       1.0  0.6704341636192658  0.5657967113865667  0.17821155190852456  1.0000
  O   O1        1.0  0.7077242585948416  0.6344635346676226  0.25226021145327393  1.0000
  C   C32       1.0  0.586688470095909  0.5770797816864117  0.17308842722546247  1.0000
  H   H15       1.0  0.9311011994219637  0.3886494645644476  0.5596887834758082  1.0000
  H   H16       1.0  0.7949851947449772  0.4436983965432579  0.3109968691892302  1.0000
  H   H17       1.0  0.7949376780381835  0.44696479782767806  0.8943482434452682  1.0000
  H   H18       1.0  0.9995064412066847  0.36230060704265243  0.1184241757532496  1.0000
  H   H19       1.0  0.9309808543632084  0.38840784291497005  0.6667354152842591  1.0000
  H   H20       1.0  0.6763395016657927  0.45247786738297413  0.014085643838264389  1.0000
  H   H21       1.0  0.5617422579773842  0.48057249986982864  0.15951794668636787  1.0000
  H   H22       1.0  0.566104193257361  0.6121847744973132  0.2651477093892476  1.0000
  H   H23       1.0  0.5686382929285444  0.6468400780117356  0.09036152836066003  1.0000
  Zn  Zn1       1.0  0.8197902299970942  0.4043697636806318  0.6068353537515847  1.0000
  Zn  Zn2       1.0  0.9844211170663829  0.40095723750688284  0.6147153865337085  1.0000
  C   C33       1.0  0.9021037595550496  0.3974097499438445  0.8479606439126837  1.0000
  C   C34       1.0  0.90210938527066  0.40791885205461537  0.3735903098833191  1.0000
  C   C35       1.0  0.902105504858772  0.6397853643235238  0.6056007152711782  1.0000
  C   C36       1.0  0.9021075837886849  0.1655416789889388  0.6159503050715074  1.0000
  O   O2        1.0  0.9645839192317617  0.40833761066301655  0.4249644715704635  1.0000
  O   O3        1.0  0.9645802595860808  0.39439998363557377  0.8025668709457107  1.0000
  O   O4        1.0  0.9645808267051251  0.5901213744964762  0.6068594735180048  1.0000
  O   O5        1.0  0.9645832959369223  0.21261623028759732  0.6206717689387882  1.0000
  O   O6        1.0  0.839627994946113  0.5927107720658604  0.600878968650606  1.0000
  O   O7        1.0  0.8396274278248793  0.3969909410568986  0.7965862968357289  1.0000
  O   O8        1.0  0.8396310875457552  0.41092852338042646  0.4189823361296534  1.0000
  O   O9        1.0  0.8396304642462691  0.21520713368546798  0.6146897308614601  1.0000
