data_image0
_chemical_formula_structural       NC12NC2H8C7NH5C6OCH7Zn2C4O8
_chemical_formula_sum              "N3 C32 H20 O9 Zn2"
_cell_length_a       19.240039667572717
_cell_length_b       9.275154477615127
_cell_length_c       9.273891588657152
_cell_angle_alpha    86.29931945807607
_cell_angle_beta     89.6801242657702
_cell_angle_gamma    89.43370810513201

_space_group_name_H-M_alt    "P 1"
_space_group_IT_number       1

loop_
  _space_group_symop_operation_xyz
  'x, y, z'

loop_
  _atom_site_type_symbol
  _atom_site_label
  _atom_site_symmetry_multiplicity
  _atom_site_fract_x
  _atom_site_fract_y
  _atom_site_fract_z
  _atom_site_occupancy
  N   N1        1.0  0.6512889756449614  0.5636007033977818  0.4162804459932594  1.0000
  C   C1        1.0  0.5911406066310716  0.563600795816052  0.41628035542182595  1.0000
  C   C2        1.0  0.5163225692847406  0.56360092465584  0.4162802035440889  1.0000
  C   C3        1.0  0.4798768320908145  0.49306447775040607  0.5307737785012456  1.0000
  C   C4        1.0  0.4072064092404639  0.4929422405268647  0.5308693421275905  1.0000
  C   C5        1.0  0.3699903345475457  0.5636010251464135  0.4162799512452986  1.0000
  C   C6        1.0  0.407149936660175  0.6342600193081771  0.30169077711725123  1.0000
  C   C7        1.0  0.4798209512503705  0.6341375218531815  0.30178647566561967  1.0000
  C   C8        1.0  0.29278524481448864  0.5636009368606838  0.4162798449925591  1.0000
  C   C9        1.0  0.2560708552426019  0.4382750937399962  0.46225074307017233  1.0000
  C   C10       1.0  0.183399877228319  0.43839286330644206  0.46214985303879463  1.0000
  C   C11       1.0  0.1464529583912977  0.5636007940593117  0.41627991202531467  1.0000
  C   C12       1.0  0.07163492108482769  0.5636006702665266  0.41628018751513207  1.0000
  N   N2        1.0  0.011486603816725598  0.5636006270278817  0.4162804186634843  1.0000
  C   C13       1.0  0.1824535501693684  0.6888088084686774  0.37040991264351764  1.0000
  C   C14       1.0  0.2551239562955386  0.688926776383155  0.37030884294364763  1.0000
  H   H1        1.0  0.5076113028745625  0.4384604007889897  0.6201689821926726  1.0000
  H   H2        1.0  0.3801250911549101  0.4392353720809814  0.6215062126756818  1.0000
  H   H3        1.0  0.3800447239684736  0.6879669172796987  0.21105385025131573  1.0000
  H   H4        1.0  0.5075162516243801  0.6887414902593443  0.21239157764114114  1.0000
  H   H5        1.0  0.2835422281135025  0.33960453435743376  0.49644891558179477  1.0000
  H   H6        1.0  0.15605523128621798  0.34073092478263045  0.4974985277425721  1.0000
  H   H7        1.0  0.15436837274961399  0.7864707198966553  0.3350612539807609  1.0000
  H   H8        1.0  0.2818390619579345  0.7875974232215652  0.3361106210902838  1.0000
  C   C15       1.0  0.8334069388507238  0.1401963364855339  0.4146124071124828  1.0000
  C   C16       1.0  0.814676546373428  0.2222289048469093  0.2875212526258457  1.0000
  C   C17       1.0  0.79027443900949  0.1551046970008958  0.16716230723563097  1.0000
  C   C18       1.0  0.7841993902573744  0.005032118250023918  0.17247702878977988  1.0000
  C   C19       1.0  0.8035818733550975  0.9217657407974131  0.2966712414312258  1.0000
  C   C20       1.0  0.8293753364896828  0.9869940624342795  0.4179608843293372  1.0000
  C   C21       1.0  0.7706235576270588  0.24070525924771502  0.03853937304602861  1.0000
  N   N3        1.0  0.754829707272856  0.3095125024709423  0.9351594804258236  1.0000
  H   H9        1.0  0.8459163869194901  0.22005928305728317  0.7684322371601375  1.0000
  H   H10       1.0  0.8175266843634913  0.3391497217675375  0.28324433589793996  1.0000
  H   H11       1.0  0.765074497528968  0.9520710502238436  0.07997362017990728  1.0000
  H   H12       1.0  0.7999325596131827  0.8052970008057978  0.29654438797319194  1.0000
  H   H13       1.0  0.840750886884349  0.6903624731397564  0.6550302342265608  1.0000
  C   C22       1.0  0.8325479273000874  0.5597765952680264  0.9929961921297518  1.0000
  C   C23       1.0  0.8891764920018489  0.620676230424619  0.06181069478190904  1.0000
  C   C24       1.0  0.9418113885842602  0.6923423269540994  0.982284325155604  1.0000
  C   C25       1.0  0.9380054369490463  0.7034700759394705  0.8308877146113685  1.0000
  C   C26       1.0  0.882841223383388  0.6416974125831736  0.7607275616895697  1.0000
  C   C27       1.0  0.8302343291339989  0.5674137267834902  0.839577032141535  1.0000
  O   O1        1.0  0.9965503020929973  0.7514667384917064  0.057724716196464465  1.0000
  C   C28       1.0  0.05342319164965413  0.8273474999502427  0.9909483862699603  1.0000
  H   H14       1.0  0.6676505823900488  0.4712202172368496  0.10366328436103234  1.0000
  H   H15       1.0  0.9777808073935946  0.7585276421892101  0.7661832828940787  1.0000
  H   H16       1.0  0.8822450358093185  0.649128410703004  0.6436757694963986  1.0000
  H   H17       1.0  0.7202995900676242  0.5020767275279361  0.5638760434076664  1.0000
  H   H18       1.0  0.03430189553393114  0.9249174602303535  0.9269386249783697  1.0000
  H   H19       1.0  0.0827438287996567  0.7557896185870545  0.9202527578160057  1.0000
  H   H20       1.0  0.08883718253205464  0.8618109969523664  0.0759282023867971  1.0000
  Zn  Zn1       1.0  0.7552342352223064  0.5635969069733684  0.4162887344671977  1.0000
  Zn  Zn2       1.0  0.9075413868559551  0.5635927684563147  0.4162838476544337  1.0000
  C   C29       1.0  0.8306974564574711  0.5602262531908546  0.6795324316459244  1.0000
  C   C30       1.0  0.832079819762141  0.5669652427024521  0.1530402990940547  1.0000
  C   C31       1.0  0.8301495123924276  0.8268794291405361  0.41158386908836175  1.0000
  C   C32       1.0  0.8326277198927842  0.3003103351642551  0.4209889316530402  1.0000
  O   O2        1.0  0.8897225188335894  0.5693699576706648  0.20675068401923413  1.0000
  O   O3        1.0  0.8886523676409279  0.5578173057306149  0.6258179185012656  1.0000
  O   O4        1.0  0.8882091126141  0.7731431311419983  0.4094475644086628  1.0000
  O   O5        1.0  0.8901657221345609  0.3540441415999096  0.4231209300758283  1.0000
  O   O6        1.0  0.7726098479687579  0.7731455338326868  0.4094516520398952  1.0000
  O   O7        1.0  0.7730530949550428  0.5578214400127319  0.625821936125166  1.0000
  O   O8        1.0  0.7741232511692784  0.5693740260745045  0.2067529684086875  1.0000
  O   O9        1.0  0.774566454221164  0.35404820066603393  0.4231233224953823  1.0000
