data_image0
_chemical_formula_structural       NC9NC5H8C6NCOH7C7F3H5Zn2C4O8
_chemical_formula_sum              "N3 C32 H20 O9 F3 Zn2"
_cell_length_a       17.807436237873137
_cell_length_b       10.29961932979008
_cell_length_c       9.272291681409872
_cell_angle_alpha    86.06619691581682
_cell_angle_beta     89.81650948764641
_cell_angle_gamma    88.41592915749165

_space_group_name_H-M_alt    "P 1"
_space_group_IT_number       1

loop_
  _space_group_symop_operation_xyz
  'x, y, z'

loop_
  _atom_site_type_symbol
  _atom_site_label
  _atom_site_symmetry_multiplicity
  _atom_site_fract_x
  _atom_site_fract_y
  _atom_site_fract_z
  _atom_site_occupancy
  N   N1        1.0  0.7017894833768359  0.37541677393938616  0.3985058605632881  1.0000
  C   C1        1.0  0.6411470271853374  0.3401334317612119  0.38626493130431716  1.0000
  C   C2        1.0  0.5657144767938096  0.296244839550869  0.3710385444181592  1.0000
  C   C3        1.0  0.5471688630327787  0.2239343183141522  0.25447294353215666  1.0000
  C   C4        1.0  0.4739273780339516  0.18120967572974095  0.2395973698188465  1.0000
  C   C5        1.0  0.41818255497028334  0.21041775306204458  0.34125133235353733  1.0000
  C   C6        1.0  0.3403461072879969  0.1651280774262014  0.3255335686695384  1.0000
  C   C7        1.0  0.2782987216055236  0.24710453432493185  0.3543359531710615  1.0000
  C   C8        1.0  0.2049149353981164  0.20417697335764437  0.339475543548754  1.0000
  C   C9        1.0  0.1418196731458772  0.28884785070121266  0.3686821747064697  1.0000
  N   N2        1.0  0.0911040660469075  0.3569173875499214  0.3921634990763223  1.0000
  C   C10       1.0  0.19299481741537286  0.07901476279765207  0.2957845814697  1.0000
  C   C11       1.0  0.2541847948550445  0.9970243821714012  0.2669728825047013  1.0000
  C   C12       1.0  0.3274482058216102  0.03955567853073295  0.2816084220017867  1.0000
  C   C13       1.0  0.4374206117949773  0.28322450532640464  0.4580603424551122  1.0000
  C   C14       1.0  0.5107142727471361  0.32575742734197743  0.4727631159834793  1.0000
  H   H1        1.0  0.5892604587372893  0.20083715268514157  0.1748662006430568  1.0000
  H   H2        1.0  0.4606568565945651  0.12682022118825254  0.14754613446309614  1.0000
  H   H3        1.0  0.2869414467400709  0.3448145525963892  0.38640151339663426  1.0000
  H   H4        1.0  0.13647694787831735  0.04488875087125033  0.2840200324828252  1.0000
  H   H5        1.0  0.24483896050877493  0.9001242026720713  0.2335749049835485  1.0000
  H   H6        1.0  0.3739928403026601  0.9736489684323345  0.2604565899005773  1.0000
  H   H7        1.0  0.396051124695659  0.30579368157545206  0.539103974531356  1.0000
  H   H8        1.0  0.5245091424947564  0.38135855668628094  0.5636582360879447  1.0000
  C   C15       1.0  0.8963505859977915  0.9848028846175249  0.39529874042254076  1.0000
  C   C16       1.0  0.8596132779609453  0.9935775454260894  0.2609675110576395  1.0000
  C   C17       1.0  0.8422191391340575  0.8812096113852445  0.19226564259245738  1.0000
  C   C18       1.0  0.8598374095894147  0.7584093118461015  0.2610748427222922  1.0000
  C   C19       1.0  0.8965501548111658  0.7475211041580145  0.39538304702492244  1.0000
  C   C20       1.0  0.914864212533974  0.8613275250596419  0.46145894968955914  1.0000
  N   N3        1.0  0.8035870839894418  0.8940444944880711  0.055831978531251984  1.0000
  C   C21       1.0  0.8149748141490247  0.8079317517960815  0.9422107439409241  1.0000
  O   O1        1.0  0.8677361414838024  0.7237479728449572  0.9474119573055244  1.0000
  H   H9        1.0  0.9649372900383295  0.17549233056937916  0.6494122996329548  1.0000
  H   H10       1.0  0.8448583633438171  0.08796475783093635  0.2083682350610685  1.0000
  H   H11       1.0  0.8435875657364469  0.6713953742838326  0.21147034852211163  1.0000
  H   H12       1.0  0.9431933953013727  0.8536872231761168  0.5650051591218361  1.0000
  H   H13       1.0  0.9096380946453078  0.41587890871364586  0.4479728206533957  1.0000
  H   H14       1.0  0.7687281414866654  0.9761185819085185  0.03305078816919881  1.0000
  H   H15       1.0  0.7789592592288354  0.8177681351772914  0.8481258354067003  1.0000
  C   C22       1.0  0.8948683287372182  0.36290353512758355  0.9720055589244375  1.0000
  C   C23       1.0  0.9453690957990315  0.27877057660658355  0.051392848640103406  1.0000
  C   C24       1.0  0.9999549186838818  0.20608059713338145  0.9816985292230881  1.0000
  C   C25       1.0  0.006225449041149304  0.21710492743047907  0.8307053356277292  1.0000
  C   C26       1.0  0.9542267404143019  0.2970066137053604  0.7501717576554352  1.0000
  C   C27       1.0  0.8980324274982157  0.3694204550848845  0.8186761584047875  1.0000
  C   C28       1.0  0.06387736920356146  0.1357135208140563  0.7551717733152716  1.0000
  F   F1        1.0  0.12677142012620646  0.11079680983075368  0.8410637952985821  1.0000
  F   F2        1.0  0.08637872213687126  0.19963548510105222  0.6267402346794615  1.0000
  F   F3        1.0  0.03289630603695093  0.018841876239208636  0.7257038475722036  1.0000
  H   H16       1.0  0.7891509624281208  0.6303570980155209  0.05384854920724979  1.0000
  H   H17       1.0  0.9436332634313688  0.27109954647313117  0.16846692478634462  1.0000
  H   H18       1.0  0.0377810598861421  0.14193492702581767  0.04628849140557634  1.0000
  H   H19       1.0  0.9563694122884527  0.30036889177231485  0.6331494558099862  1.0000
  H   H20       1.0  0.7278243727842528  0.5019181636213341  0.7081209679862877  1.0000
  Zn  Zn1       1.0  0.8141372913352696  0.37007484956665593  0.3966839289489552  1.0000
  Zn  Zn2       1.0  0.978756281411446  0.36224881710441403  0.3939972810032264  1.0000
  C   C29       1.0  0.8974313238259576  0.36301505534189693  0.6586367721245394  1.0000
  C   C30       1.0  0.8954640475125935  0.36931016555705076  0.1320445501636327  1.0000
  C   C31       1.0  0.8964871190449053  0.6033070640828464  0.3896224931546217  1.0000
  C   C32       1.0  0.8964081959996061  0.12901659979534363  0.401058906735668  1.0000
  O   O2        1.0  0.958136023507747  0.36848468505111254  0.18473552807791013  1.0000
  O   O3        1.0  0.9597013504672474  0.3578997753868003  0.6039062754913949  1.0000
  O   O4        1.0  0.9589380566142128  0.5519386629262695  0.3866753557962088  1.0000
  O   O5        1.0  0.9588992607859571  0.17444580864026668  0.40196634060097214  1.0000
  O   O6        1.0  0.8339942557843483  0.5578778607027992  0.38871487026044793  1.0000
  O   O7        1.0  0.8347575497550125  0.36384053285608386  0.605945713262755  1.0000
  O   O8        1.0  0.8331922163563804  0.37442538392191427  0.18677323262390888  1.0000
  O   O9        1.0  0.8339554540330048  0.1803864990544415  0.40400415322833355  1.0000
