data_image0
_chemical_formula_structural       NC10NC3NCH9C7OC3NC3H11C6SCOC6H10Zn2C4O8
_chemical_formula_sum              "N4 C44 H30 O10 S1 Zn2"
_cell_length_a       19.437513618241372
_cell_length_b       10.298746005989749
_cell_length_c       10.30204148141511
_cell_angle_alpha    85.5447523670973
_cell_angle_beta     90.34339533155027
_cell_angle_gamma    89.53148363849229

_space_group_name_H-M_alt    "P 1"
_space_group_IT_number       1

loop_
  _space_group_symop_operation_xyz
  'x, y, z'

loop_
  _atom_site_type_symbol
  _atom_site_label
  _atom_site_symmetry_multiplicity
  _atom_site_fract_x
  _atom_site_fract_y
  _atom_site_fract_z
  _atom_site_occupancy
  N   N1        1.0  0.6480145294281716  0.411090717900731  0.5761462406860192  1.0000
  C   C1        1.0  0.5890826579881235  0.4281032762641596  0.5731734254198357  1.0000
  C   C2        1.0  0.5156440156046803  0.4493589004519647  0.5694834031178336  1.0000
  C   C3        1.0  0.4738726961543033  0.3481658593184676  0.5578113994100478  1.0000
  C   C4        1.0  0.3979835629181102  0.35823433839481167  0.5505931150766268  1.0000
  C   C5        1.0  0.3584168398218178  0.43906231516948674  0.6163336772763801  1.0000
  C   C6        1.0  0.28223379477975  0.43045683738064183  0.6078900921631853  1.0000
  C   C7        1.0  0.2490874066252712  0.30910092081614504  0.612514223072611  1.0000
  C   C8        1.0  0.1773521026843925  0.3027316039815781  0.6053467447710605  1.0000
  C   C9        1.0  0.13779252291364685  0.41724533362691546  0.593917218457384  1.0000
  C   C10       1.0  0.0639427144365442  0.410537879767505  0.5865816339847219  1.0000
  N   N2        1.0  0.0045725665065118  0.4051456767871006  0.5806842824646878  1.0000
  C   C11       1.0  0.1702222958628813  0.5382903476844134  0.5900381570015676  1.0000
  C   C12       1.0  0.24194202763235434  0.5449136496556857  0.5972676816236968  1.0000
  C   C13       1.0  0.3871099457564578  0.5313169837640104  0.7062482021533405  1.0000
  N   N3        1.0  0.44410050556922104  0.5945428554990793  0.6858578951894216  1.0000
  C   C14       1.0  0.4879386694846287  0.5853283059582504  0.5727732299105552  1.0000
  H   H1        1.0  0.49624782202765727  0.2531074537390814  0.5456784976215845  1.0000
  H   H2        1.0  0.3732621277908427  0.28874124587614514  0.4922770468343609  1.0000
  H   H3        1.0  0.2785296836541488  0.2191776239309451  0.6235191766166732  1.0000
  H   H4        1.0  0.152749976160423  0.20849655575111137  0.6092189055232582  1.0000
  H   H5        1.0  0.1400947121390431  0.6275577170416069  0.5813447561743363  1.0000
  H   H6        1.0  0.2660626699357905  0.6395615353410529  0.5933801265058027  1.0000
  H   H7        1.0  0.3571099034531994  0.5516687171885319  0.7905998026984657  1.0000
  H   H8        1.0  0.5306977998787545  0.655643668767931  0.5785459706576628  1.0000
  H   H9        1.0  0.45827274180076766  0.6134772384409912  0.48215135257402597  1.0000
  C   C15       1.0  0.8262639688532829  0.026716587965163182  0.5783977377286353  1.0000
  C   C16       1.0  0.8584525304269441  0.0347294748025686  0.45633045004859923  1.0000
  C   C17       1.0  0.87400517722824  0.9216701134822772  0.3939092705817562  1.0000
  C   C18       1.0  0.8584530479311667  0.7994928831225827  0.45628133048587416  1.0000
  C   C19       1.0  0.8263297098043316  0.7895096679878321  0.5784441189014788  1.0000
  C   C20       1.0  0.8102734002382459  0.9036869419144807  0.6385706160956988  1.0000
  C   C21       1.0  0.9085807607206501  0.9299302015268998  0.26556250733345554  1.0000
  O   O1        1.0  0.9505890398023591  0.8412607311941113  0.24089052929600618  1.0000
  C   C22       1.0  0.8955020602377328  0.03872141171582522  0.16521268191828065  1.0000
  C   C23       1.0  0.8303558277568416  0.0992040092833224  0.15227878598513866  1.0000
  C   C24       1.0  0.8183031214012361  0.2011099614413998  0.05623995929773451  1.0000
  N   N4        1.0  0.7520555166195327  0.26245279762017826  0.04419522055038506  1.0000
  C   C25       1.0  0.8714392481315457  0.24214064656551224  0.9718010604108636  1.0000
  C   C26       1.0  0.9359575367114618  0.1815044119040616  0.9828713066312851  1.0000
  C   C27       1.0  0.9479567382312567  0.08002393364168636  0.0786053122601107  1.0000
  H   H10       1.0  0.766397499794528  0.2188551396095557  0.8099195655255316  1.0000
  H   H11       1.0  0.8721359011652218  0.1290344828469494  0.4102931179866805  1.0000
  H   H12       1.0  0.870862885160317  0.7121112709841692  0.40875203671039245  1.0000
  H   H13       1.0  0.7854652222201614  0.8967583190118906  0.7326643270825219  1.0000
  H   H14       1.0  0.7658915103345044  0.5633239486791484  0.8094702532876465  1.0000
  H   H15       1.0  0.7886892747914082  0.066472004006225  0.21569682204607246  1.0000
  H   H16       1.0  0.7120789337481507  0.23264301809582696  0.10662352972679635  1.0000
  H   H17       1.0  0.742513444796561  0.33825247174777473  0.9728512821220057  1.0000
  H   H18       1.0  0.8627713279273909  0.3206630878124117  0.8972202297090108  1.0000
  H   H19       1.0  0.976781197949406  0.21321568979757008  0.9171107534412481  1.0000
  H   H20       1.0  0.9984154827276162  0.03453836423651647  0.08577362043971126  1.0000
  C   C28       1.0  0.8263097547586016  0.40824218291292874  0.19713407741446784  1.0000
  C   C29       1.0  0.8578614633079532  0.5308250313503837  0.18663003024845937  1.0000
  C   C30       1.0  0.8738666015891342  0.5912894607058874  0.06445205105854601  1.0000
  C   C31       1.0  0.8579267251658178  0.530420046169383  0.9515254248116173  1.0000
  C   C32       1.0  0.8262839545309766  0.4079840321746559  0.9597078245076843  1.0000
  C   C33       1.0  0.8106900272396272  0.3474741877243214  0.08308446159927274  1.0000
  S   S1        1.0  0.9147873044440534  0.7471534355212671  0.0524596843847407  1.0000
  C   C34       1.0  0.9995330124384316  0.6759337562239405  0.05610252477216182  1.0000
  O   O2        1.0  0.026456204781712293  0.6523101154779049  0.9493835389738714  1.0000
  C   C35       1.0  0.037452268363557195  0.6439561453198606  0.18010777710275128  1.0000
  C   C36       1.0  0.09847915013163955  0.56920894255186  0.1810723633244018  1.0000
  C   C37       1.0  0.13433542468805265  0.5377117031428287  0.29747895134592417  1.0000
  C   C38       1.0  0.10989508438311968  0.5804703520782775  0.41410798912283875  1.0000
  C   C39       1.0  0.0496076413636546  0.6550464013808204  0.41453307138791584  1.0000
  C   C40       1.0  0.013546042928133549  0.6869212309007084  0.2984232984471302  1.0000
  H   H21       1.0  0.766737207576708  0.17730979168994482  0.4242394270900649  1.0000
  H   H22       1.0  0.870225050974936  0.5795508430417133  0.2731046439173719  1.0000
  H   H23       1.0  0.8705818990245624  0.5788094374734707  0.8577180296827711  1.0000
  H   H24       1.0  0.7863675060148784  0.25297130279466695  0.09026179885216123  1.0000
  H   H25       1.0  0.8144412228664769  0.36126084875569403  0.6354950291254964  1.0000
  H   H26       1.0  0.1183497153416484  0.5344167843461471  0.0920045547019881  1.0000
  H   H27       1.0  0.18109787134045743  0.4799426598845466  0.2972236981768779  1.0000
  H   H28       1.0  0.13771409496979947  0.555953279161489  0.5041226868172339  1.0000
  H   H29       1.0  0.030805281644811888  0.6884335924197347  0.5049684307595037  1.0000
  H   H30       1.0  0.9673057889195937  0.7456237047300023  0.30191251258736673  1.0000
  Zn  Zn1       1.0  0.7509094818051145  0.4093716153998383  0.5774633286426891  1.0000
  Zn  Zn2       1.0  0.9016776190583617  0.4068541052158789  0.5793778614357283  1.0000
  C   C41       1.0  0.8262868325184498  0.402858749139261  0.8155646979526907  1.0000
  C   C42       1.0  0.8263019148653388  0.4133685827018694  0.34127664057106455  1.0000
  C   C43       1.0  0.8263139251454164  0.6453273323587025  0.5732612601869849  1.0000
  C   C44       1.0  0.8262747706548955  0.17089843988206205  0.5835801468122959  1.0000
  O   O3        1.0  0.8835150055899844  0.41412800108074793  0.39037875639764336  1.0000
  O   O4        1.0  0.8835032693599902  0.40018761910223016  0.7679152943915637  1.0000
  O   O5        1.0  0.8835243756578796  0.5959840789076869  0.5722535443464203  1.0000
  O   O6        1.0  0.8834938478492402  0.21833155145831729  0.5860404084363351  1.0000
  O   O7        1.0  0.7690932015644708  0.5978941700179194  0.5708007809819169  1.0000
  O   O8        1.0  0.7690720954002925  0.40209927067334694  0.766462461891369  1.0000
  O   O9        1.0  0.7690838317250024  0.41603960791968486  0.38892436283054765  1.0000
  O   O10       1.0  0.7690626739773476  0.22024314897474717  0.584586112215526  1.0000
