data_image0
_chemical_formula_structural       NC6NC2H4C12H9C12H10Zn2C4O8
_chemical_formula_sum              "N2 C36 H23 Zn2 O8"
_cell_length_a       14.927258858638513
_cell_length_b       14.388199552941785
_cell_length_c       14.388129018870243
_cell_angle_alpha    82.87086475722218
_cell_angle_beta     90.8946685499874
_cell_angle_gamma    92.40759436960245

_space_group_name_H-M_alt    "P 1"
_space_group_IT_number       1

loop_
  _space_group_symop_operation_xyz
  'x, y, z'

loop_
  _atom_site_type_symbol
  _atom_site_label
  _atom_site_symmetry_multiplicity
  _atom_site_fract_x
  _atom_site_fract_y
  _atom_site_fract_z
  _atom_site_occupancy
  N   N1        1.0  0.8709065200417524  0.06041320244837661  0.963526188286179  1.0000
  C   C1        1.0  0.7933800282225424  0.06041318376384131  0.9635261952637534  1.0000
  C   C2        1.0  0.6969475232467948  0.06041325938106738  0.9635261624881295  1.0000
  C   C3        1.0  0.6481755651894188  0.04840572214284317  0.8815755445959899  1.0000
  C   C4        1.0  0.5544642533539976  0.048405742162846155  0.8815754580522466  1.0000
  C   C5        1.0  0.5091314547860377  0.06041314424801897  0.9635261752986901  1.0000
  C   C6        1.0  0.4126988828187801  0.0604132198673129  0.9635261425192172  1.0000
  N   N2        1.0  0.33517239099956975  0.06041320118277764  0.9635261494967916  1.0000
  C   C7        1.0  0.5579033458519036  0.07242068148831103  0.04547679318698115  1.0000
  C   C8        1.0  0.6516146576873247  0.07242066146830806  0.04547687973072434  1.0000
  H   H1        1.0  0.68253382801305  0.03906318450557804  0.8178132604032813  1.0000
  H   H2        1.0  0.5174301776114308  0.03906331218951323  0.8178132563780041  1.0000
  H   H3        1.0  0.5235451506868976  0.0817632096560501  0.10923914742594476  1.0000
  H   H4        1.0  0.6886487369231261  0.08176315143201918  0.10923915225845093  1.0000
  C   C9        1.0  0.09199031993127886  0.7869571959774945  0.9653104847641021  1.0000
  C   C10       1.0  0.002575855813241362  0.8076504522354573  0.9803648126858473  1.0000
  C   C11       1.0  0.9361220456405482  0.7360786357486798  0.9916896074957608  1.0000
  C   C12       1.0  0.957885264614642  0.6431916976382615  0.9881460863126139  1.0000
  C   C13       1.0  0.046805438167584416  0.620710999375869  0.9730942224910664  1.0000
  C   C14       1.0  0.11349485003938464  0.6932247713761667  0.9617749666290594  1.0000
  C   C15       1.0  0.06998843151793377  0.5218817870743132  0.9691975692166278  1.0000
  C   C16       1.0  0.031662177661998095  0.4491602666822216  0.03226755278618565  1.0000
  C   C17       1.0  0.05350162952020823  0.3561703713332335  0.028626724521693455  1.0000
  C   C18       1.0  0.11409701897138887  0.33386173669905483  0.9617499878976108  1.0000
  C   C19       1.0  0.15237698425320279  0.4064741041757395  0.8986578918894321  1.0000
  C   C20       1.0  0.1305900969451047  0.4994740659942606  0.9023503329464746  1.0000
  H   H5        1.0  0.30007770905941755  0.8928257801789196  0.9302988747882537  1.0000
  H   H6        1.0  0.8673962209670609  0.7527047215508686  0.003007254496244504  1.0000
  H   H7        1.0  0.9049616424356478  0.5890715301396995  0.9959326826463285  1.0000
  H   H8        1.0  0.18238138480388796  0.6763485249851691  0.951485585783586  1.0000
  H   H9        1.0  0.9856254183249447  0.4643056656859444  0.08531504040207188  1.0000
  H   H10       1.0  0.023053601174744878  0.3017877122464345  0.07838768342302567  1.0000
  H   H11       1.0  0.2139495857742033  0.1470477897639142  0.8876945904179039  1.0000
  H   H12       1.0  0.19907658240220372  0.3915275739368481  0.8461467682444546  1.0000
  H   H13       1.0  0.16030187018684558  0.553788363950938  0.8520046507835811  1.0000
  C   C21       1.0  0.099361870713639  0.07140399905033207  0.6893590043175288  1.0000
  C   C22       1.0  0.06974807382210774  0.15974397526786485  0.7043227033180501  1.0000
  C   C23       1.0  0.047827282968332156  0.22540843764277144  0.6285092282329204  1.0000
  C   C24       1.0  0.05511074390056758  0.20390738723246282  0.5370324977022529  1.0000
  C   C25       1.0  0.08449280083450739  0.11601282703465453  0.5202439769663578  1.0000
  C   C26       1.0  0.09215034023134754  0.09304663200796393  0.42290796947780396  1.0000
  C   C27       1.0  0.12693522880618538  0.16014012629500748  0.35186479037083207  1.0000
  C   C28       1.0  0.13418081216694655  0.13853445746281284  0.2602757841992176  1.0000
  C   C29       1.0  0.10672541838904115  0.04941491207981043  0.23770149367879723  1.0000
  C   C30       1.0  0.07187403008041687  0.9822877622080012  0.3086539892332395  1.0000
  C   C31       1.0  0.06469697284237566  0.0038711051600257497  0.4002537527194532  1.0000
  C   C32       1.0  0.10652925898667553  0.05013933633495204  0.5970176564352454  1.0000
  H   H14       1.0  0.16834687018772598  0.8659384587583494  0.8085515214781336  1.0000
  H   H15       1.0  0.06349708729973824  0.17815187887888986  0.7745932707468133  1.0000
  H   H16       1.0  0.024853018239649804  0.2931779397031394  0.6407129798191895  1.0000
  H   H17       1.0  0.03662008910145942  0.2555670694077529  0.4794441942758223  1.0000
  H   H18       1.0  0.14969059072665303  0.2290535961346467  0.3673695915915356  1.0000
  H   H19       1.0  0.161528470318549  0.1916789814440807  0.20723562574246845  1.0000
  H   H20       1.0  0.1546372854979725  0.079170249156306  0.004151436007961305  1.0000
  H   H21       1.0  0.04988840113500782  0.9130551087526737  0.29340387920473343  1.0000
  H   H22       1.0  0.036512221151326484  0.9511025334116494  0.4531560520592687  1.0000
  H   H23       1.0  0.13044170392951587  0.9827566319730685  0.5846510901076123  1.0000
  Zn  Zn1       1.0  0.0048836012698849594  0.06041049051009289  0.9635315881476556  1.0000
  Zn  Zn2       1.0  0.20119511518611022  0.060407978464720714  0.9635284580746861  1.0000
  C   C33       1.0  0.10518162124937797  0.049861589164116094  0.1340771522267813  1.0000
  C   C34       1.0  0.10089928764608858  0.0709580510602874  0.7929829779494681  1.0000
  C   C35       1.0  0.10986379224283471  0.23063430594294237  0.9587024971054507  1.0000
  C   C36       1.0  0.09621700511032506  0.890184213490685  0.9683576901321096  1.0000
  O   O1        1.0  0.17591429104407974  0.07080337098356404  0.8277589687189568  1.0000
  O   O2        1.0  0.17916248256942358  0.05001367093637432  0.09929852161485242  1.0000
  O   O3        1.0  0.1829424036127335  0.19598988700080458  0.9576822405120027  1.0000
  O   O4        1.0  0.17213430234214455  0.9248271643886601  0.9693751797755508  1.0000
  O   O5        1.0  0.03394434712234084  0.19599130458822178  0.9576848664429416  1.0000
  O   O6        1.0  0.03016447062982764  0.05001620931663564  0.09930109048063052  1.0000
  O   O7        1.0  0.026916262778401215  0.07080592192748347  0.8277604152840821  1.0000
  O   O8        1.0  0.023136274743581264  0.924829705865121  0.9693766963830821  1.0000
