data_image0
_chemical_formula_structural       NC5N2C2NH4C7NH5C6ClH4Zn2C4O8
_chemical_formula_sum              "N5 C24 H13 Cl1 Zn2 O8"
_cell_length_a       13.87973921873968
_cell_length_b       9.275154477615127
_cell_length_c       9.276548810779735
_cell_angle_alpha    86.30571482512589
_cell_angle_beta     89.72476731639557
_cell_angle_gamma    89.4337086285363

_space_group_name_H-M_alt    "P 1"
_space_group_IT_number       1

loop_
  _space_group_symop_operation_xyz
  'x, y, z'

loop_
  _atom_site_type_symbol
  _atom_site_label
  _atom_site_symmetry_multiplicity
  _atom_site_fract_x
  _atom_site_fract_y
  _atom_site_fract_z
  _atom_site_occupancy
  N   N1        1.0  0.9019908505650011  0.5634354029630095  0.4167512747241908  1.0000
  C   C1        1.0  0.8289045675015797  0.5874492771451636  0.3602289584594681  1.0000
  C   C2        1.0  0.7381340811490587  0.6172768513999227  0.2900221326718093  1.0000
  C   C3        1.0  0.6516581233375857  0.5872548695664672  0.3630743277240739  1.0000
  C   C4        1.0  0.5652546802933144  0.6172767871492573  0.2900221723053546  1.0000
  C   C5        1.0  0.47442744705971135  0.587449131533224  0.3602288546937138  1.0000
  N   N2        1.0  0.4012954196166503  0.5634353782446899  0.4167512636368912  1.0000
  N   N3        1.0  0.5669586806580352  0.674639345119793  0.15154460517822788  1.0000
  C   C6        1.0  0.6517836215516215  0.7046240308890854  0.08253405440649918  1.0000
  C   C7        1.0  0.6518860772586876  0.7637248801052654  0.9290758081557078  1.0000
  N   N4        1.0  0.7365615795931011  0.6746392985641139  0.15154461574065947  1.0000
  H   H1        1.0  0.6516065276992465  0.5413545074909984  0.47358144644719724  1.0000
  H   H2        1.0  0.7165121833327689  0.8313780344459419  0.9069562739011591  1.0000
  H   H3        1.0  0.6527181479741779  0.6731421649991567  0.8565228140896193  1.0000
  H   H4        1.0  0.586507379167268  0.8313759641676421  0.9069554999619598  1.0000
  C   C8        1.0  0.15444118432172993  0.1400308631682723  0.4150837662027975  1.0000
  C   C9        1.0  0.12841111535206928  0.22205016593705776  0.28803038154062544  1.0000
  C   C10       1.0  0.09452243760093502  0.15491339515202895  0.16770720398480687  1.0000
  C   C11       1.0  0.08610399207678832  0.004841371098106561  0.17302034477066464  1.0000
  C   C12       1.0  0.11303648040775482  0.9215879568666953  0.2971776487257356  1.0000
  C   C13       1.0  0.14885433388689442  0.986828938595874  0.41843124743659077  1.0000
  C   C14       1.0  0.06721559419727408  0.24050053191662113  0.03912249471254393  1.0000
  N   N5        1.0  0.045268475471529124  0.3092969844910467  0.9357733251347352  1.0000
  H   H5        1.0  0.17196567783427863  0.21993074068062454  0.768798438108068  1.0000
  H   H6        1.0  0.13235974186162602  0.3389705364626263  0.2837547365174  1.0000
  H   H7        1.0  0.05954505010817601  0.9518706476617966  0.08054442591755848  1.0000
  H   H8        1.0  0.10797775016981248  0.8051192036099093  0.29705083227724827  1.0000
  H   H9        1.0  0.1647463259659212  0.6902220941021006  0.6554301389560695  1.0000
  C   C15       1.0  0.15303123347133968  0.5595671146660306  0.9935928616699149  1.0000
  C   C16       1.0  0.23348780561537996  0.6143758481836679  0.0629159955582963  1.0000
  C   C17       1.0  0.3084698315478098  0.679930862665918  0.9829426660810641  1.0000
  C   C18       1.0  0.3041191161345673  0.6917805668737735  0.8325499825543013  1.0000
  C   C19       1.0  0.2257684894318397  0.6359604586538534  0.7615737443304423  1.0000
  C   C20       1.0  0.15026425554545095  0.5672926052297635  0.8399221381981712  1.0000
  Cl  Cl1       1.0  0.40747644385040915  0.7493559008306441  0.07172157326475603  1.0000
  H   H10       1.0  0.037199487380865426  0.39818436983096217  0.2859570481180119  1.0000
  H   H11       1.0  0.36195057147934295  0.7430722270568051  0.7702634858960951  1.0000
  H   H12       1.0  0.22536561493205928  0.6434837519184804  0.6445551931575966  1.0000
  H   H13       1.0  0.9958498029037888  0.51443162834683  0.5631170776370347  1.0000
  Zn  Zn1       1.0  0.04607936295498116  0.5634316081019735  0.41675958047913014  1.0000
  Zn  Zn2       1.0  0.257206932159183  0.5634274700979607  0.4167547240496263  1.0000
  C   C21       1.0  0.15082303878807668  0.560088431565664  0.6799250520480971  1.0000
  C   C22       1.0  0.1524655493675553  0.5667724671134173  0.15358940105514968  1.0000
  C   C23       1.0  0.14992417814214165  0.8267136396899317  0.41205612768649424  1.0000
  C   C24       1.0  0.15336434914819175  0.3001455274079403  0.4214583953973619  1.0000
  O   O1        1.0  0.23239755432777698  0.5691827886286827  0.20728383340394613  1.0000
  O   O2        1.0  0.23113198222692244  0.5576738779039989  0.6262265146646189  1.0000
  O   O3        1.0  0.2304050559086106  0.7729771190990997  0.4099204689767886  1.0000
  O   O4        1.0  0.23312440888774377  0.35387955676293315  0.423589771087868  1.0000
  O   O5        1.0  0.07016181417895637  0.7729795214399133  0.4099245334349724  1.0000
  O   O6        1.0  0.07088872931510326  0.5576780118289344  0.6262305091362768  1.0000
  O   O7        1.0  0.07215430747576002  0.5691868564944296  0.2072860951563011  1.0000
  O   O8        1.0  0.07288116174660808  0.3538836153022409  0.4235921408382151  1.0000
