data_image0
_chemical_formula_structural       NC8NC6H8C6H4C7H7Zn2C4O8
_chemical_formula_sum              "N2 C31 H19 Zn2 O8"
_cell_length_a       17.457602349358154
_cell_length_b       10.681118228259551
_cell_length_c       9.274345330872308
_cell_angle_alpha    85.12371440556142
_cell_angle_beta     92.4462132353122
_cell_angle_gamma    91.68806569353352

_space_group_name_H-M_alt    "P 1"
_space_group_IT_number       1

loop_
  _space_group_symop_operation_xyz
  'x, y, z'

loop_
  _atom_site_type_symbol
  _atom_site_label
  _atom_site_symmetry_multiplicity
  _atom_site_fract_x
  _atom_site_fract_y
  _atom_site_fract_z
  _atom_site_occupancy
  N   N1        1.0  0.728673283383003  0.4113456244420306  0.4742477239358218  1.0000
  C   C1        1.0  0.667643645869994  0.36714109674669965  0.462455193900926  1.0000
  C   C2        1.0  0.5917201503617413  0.312156102304022  0.44779588626865  1.0000
  C   C3        1.0  0.5328507920722149  0.3503162296960647  0.530996325055056  1.0000
  C   C4        1.0  0.4583625839947396  0.29736918738852136  0.5170195689545072  1.0000
  C   C5        1.0  0.39588221341444757  0.3376588547427428  0.6051319891254898  1.0000
  C   C6        1.0  0.3215892307682851  0.35588999685453987  0.5431868352817313  1.0000
  C   C7        1.0  0.2627193785359748  0.39387195026435434  0.6265071949069203  1.0000
  C   C8        1.0  0.1869983192174463  0.4127040869313871  0.5621009859488595  1.0000
  N   N2        1.0  0.12613150334576695  0.4278389718302982  0.510318561738279  1.0000
  C   C9        1.0  0.2776480328653503  0.41385336728067834  0.7723375975418596  1.0000
  C   C10       1.0  0.35115454820595954  0.39599438289839006  0.8347133165894043  1.0000
  C   C11       1.0  0.4100107132248573  0.3581825860331984  0.7519014188317397  1.0000
  C   C12       1.0  0.444038898772275  0.20561964648332662  0.4182506084894058  1.0000
  C   C13       1.0  0.5028947191904569  0.16772521592608935  0.3354945152752191  1.0000
  C   C14       1.0  0.5765956597482473  0.22077645474345164  0.350082185684748  1.0000
  H   H1        1.0  0.5448917095756483  0.4223202186748971  0.605013367108103  1.0000
  H   H2        1.0  0.30970836466870416  0.342227162494815  0.42985246426437596  1.0000
  H   H3        1.0  0.2325194010745708  0.4431874802650613  0.8376956628439114  1.0000
  H   H4        1.0  0.36252340126878374  0.41116207088429824  0.9476330495167746  1.0000
  H   H5        1.0  0.4662865786422381  0.34337700739254107  0.8031189857340373  1.0000
  H   H6        1.0  0.38760270356377313  0.16198399968857569  0.4064179578813665  1.0000
  H   H7        1.0  0.4913730628922313  0.09680688894184097  0.26014631257455734  1.0000
  H   H8        1.0  0.6217220102521904  0.1905998348706457  0.28529190586378506  1.0000
  C   C15       1.0  0.9274060435304733  0.051842389690781136  0.4922896835182449  1.0000
  C   C16       1.0  0.9606043689645511  0.9779452529289467  0.609915623000391  1.0000
  C   C17       1.0  0.9606043575093214  0.8470630147161847  0.609915555978874  1.0000
  C   C18       1.0  0.9274060303987164  0.7873327926881694  0.4922897447136152  1.0000
  C   C19       1.0  0.8942351873191248  0.8612190408178632  0.3747610126264078  1.0000
  C   C20       1.0  0.8942351987662815  0.9921112990025617  0.3747610722389003  1.0000
  H   H9        1.0  0.9866268283218448  0.02120382660213701  0.7021163451090733  1.0000
  H   H10       1.0  0.9866267341340718  0.7926997942672607  0.7021163110683206  1.0000
  H   H11       1.0  0.8682093350618908  0.8180059473388483  0.28254825238981374  1.0000
  H   H12       1.0  0.8682093150069429  0.046430385618490666  0.28254823883480107  1.0000
  C   C21       1.0  0.9291409800049079  0.4224753519652422  0.06864471048515508  1.0000
  C   C22       1.0  0.8834764381022964  0.5087905069418797  0.12976006315125987  1.0000
  C   C23       1.0  0.8332268073267334  0.584844355313533  0.04316610565668033  1.0000
  C   C24       1.0  0.8268670707310598  0.5753679228592151  0.8936447265383319  1.0000
  C   C25       1.0  0.8737207872539431  0.49262316799901407  0.8306330102618698  1.0000
  C   C26       1.0  0.9256710612830595  0.41669980945171536  0.9159346786237412  1.0000
  C   C27       1.0  0.7740096348164487  0.6592032455273826  0.8003189176018632  1.0000
  H   H13       1.0  0.017185654896098915  0.1533599806972954  0.2049715205220859  1.0000
  H   H14       1.0  0.8854292144933752  0.5155916527031721  0.24575427822604157  1.0000
  H   H15       1.0  0.7986086843103267  0.6503036341109472  0.09318659672602103  1.0000
  H   H16       1.0  0.8708173574595828  0.4896474573314624  0.7139774546760536  1.0000
  H   H17       1.0  0.8053294989143507  0.7474520660683717  0.7640373112511051  1.0000
  H   H18       1.0  0.7236809575370269  0.6826240729511546  0.8613263276989791  1.0000
  H   H19       1.0  0.7524637258649097  0.6120298724506302  0.7037619312075983  1.0000
  Zn  Zn1       1.0  0.843371106014031  0.4161018331099  0.48466531825253917  1.0000
  Zn  Zn2       1.0  0.011433618094958797  0.42307241507173043  0.49991277860132466  1.0000
  C   C28       1.0  0.9263252571807017  0.4128025074620489  0.7557786062489755  1.0000
  C   C29       1.0  0.928481301585768  0.4263733959764075  0.22879979870336498  1.0000
  C   C30       1.0  0.927425620949137  0.6483484481111472  0.4865405157989067  1.0000
  C   C31       1.0  0.9273808801544051  0.19082594784122753  0.4980379608643959  1.0000
  O   O1        1.0  0.992038754951804  0.43032145126830373  0.28833564108330956  1.0000
  O   O2        1.0  0.9903233634830211  0.414144020685691  0.7078148181832811  1.0000
  O   O3        1.0  0.9912110552294231  0.6043503007596622  0.49040307723714754  1.0000
  O   O4        1.0  0.9911510063000337  0.24011517851154182  0.5057472686575254  1.0000
  O   O5        1.0  0.8636536604575008  0.5990590672927856  0.4788308229855403  1.0000
  O   O6        1.0  0.8627659690225696  0.4088542923275933  0.6962424870099133  1.0000
  O   O7        1.0  0.864481367645585  0.4250316910956109  0.27676157542711266  1.0000
  O   O8        1.0  0.8635936185477262  0.23482540864433687  0.49417331116244756  1.0000
