data_image0
_chemical_formula_structural       NC9NC5H8C7NC2NH8C12H10Zn2C4O8
_chemical_formula_sum              "N4 C39 H26 Zn2 O8"
_cell_length_a       17.807436237873137
_cell_length_b       9.273995741505848
_cell_length_c       10.299141136925908
_cell_angle_alpha    85.68706710251877
_cell_angle_beta     89.41385425082623
_cell_angle_gamma    88.97465214434487

_space_group_name_H-M_alt    "P 1"
_space_group_IT_number       1

loop_
  _space_group_symop_operation_xyz
  'x, y, z'

loop_
  _atom_site_type_symbol
  _atom_site_label
  _atom_site_symmetry_multiplicity
  _atom_site_fract_x
  _atom_site_fract_y
  _atom_site_fract_z
  _atom_site_occupancy
  N   N1        1.0  0.7152657655226855  0.5410842585924414  0.5603949067825207  1.0000
  C   C1        1.0  0.6544685215324689  0.5020227859130979  0.5492853096928942  1.0000
  C   C2        1.0  0.5788434322324151  0.45343461558021314  0.5354661773121256  1.0000
  C   C3        1.0  0.5603081172599333  0.37419033877252605  0.4302844544983109  1.0000
  C   C4        1.0  0.4868793893445745  0.32689122230164763  0.41678406618410596  1.0000
  C   C5        1.0  0.4309350270075497  0.358417286012934  0.5084320350213745  1.0000
  C   C6        1.0  0.3528999128332663  0.30827805147690124  0.494166975260089  1.0000
  C   C7        1.0  0.2912108608803379  0.3990293213972897  0.5203049662585393  1.0000
  C   C8        1.0  0.21763863521043733  0.35150480119576444  0.5068177693848335  1.0000
  C   C9        1.0  0.154915426585205  0.44524370254640044  0.5333261871677748  1.0000
  N   N2        1.0  0.1044989205698177  0.5206032936275438  0.5546382144195052  1.0000
  C   C10       1.0  0.2051703914868045  0.21294262795836885  0.46716660698932877  1.0000
  C   C11       1.0  0.2660019901673966  0.12217598302660539  0.4410201923204391  1.0000
  C   C12       1.0  0.3394524150829153  0.16926257980898352  0.45430388540431044  1.0000
  C   C13       1.0  0.4501647069047903  0.4382102998348556  0.6138341950489881  1.0000
  C   C14       1.0  0.5236451502365584  0.4852981065749388  0.6271784632165233  1.0000
  H   H1        1.0  0.6025547149014228  0.34925326290421493  0.35851303688666264  1.0000
  H   H2        1.0  0.4736322770153369  0.26732513725367246  0.3337289035474269  1.0000
  H   H3        1.0  0.3002888027031692  0.5072183180772256  0.5494191976663405  1.0000
  H   H4        1.0  0.148502543309417  0.17516174986539992  0.45648886237281505  1.0000
  H   H5        1.0  0.2562302683190506  0.014897814605095087  0.4107074580717449  1.0000
  H   H6        1.0  0.38570178294453056  0.09628344107163911  0.43509551277207986  1.0000
  H   H7        1.0  0.4086321012040339  0.46254851801758945  0.6868988872310198  1.0000
  H   H8        1.0  0.537427570826037  0.546219558049074  0.7091948845905506  1.0000
  C   C15       1.0  0.9076395353544394  0.10747311277458649  0.5566009982337854  1.0000
  C   C16       1.0  0.920801652986814  0.1900528379169557  0.4389536988719609  1.0000
  C   C17       1.0  0.9406852840095804  0.12392673272207276  0.3260783571763517  1.0000
  C   C18       1.0  0.9482365365815407  0.9730828137115839  0.32762223005188473  1.0000
  C   C19       1.0  0.9334970785726401  0.8893088198122754  0.4442169712226749  1.0000
  C   C20       1.0  0.9121322687517205  0.9542029460068683  0.5584432412180842  1.0000
  C   C21       1.0  0.9702249270447535  0.9049655178970314  0.20660778027150495  1.0000
  N   N3        1.0  0.9729359419481866  0.9791436525992331  0.0885534372107657  1.0000
  C   C22       1.0  0.9954467629270435  0.8800967578274154  0.006538141881604843  1.0000
  C   C23       1.0  0.0061779684069367385  0.7485964800323633  0.07532634662328629  1.0000
  N   N4        1.0  0.990348251616465  0.7643897044653286  0.2011339574652797  1.0000
  H   H9        1.0  0.8467715276786326  0.37522022339800937  0.744419144509375  1.0000
  H   H10       1.0  0.9175327880569938  0.30707000568891246  0.4348132000486728  1.0000
  H   H11       1.0  0.9512667437891859  0.19159697856400795  0.2376954529017343  1.0000
  H   H12       1.0  0.9360406613579111  0.772612324952406  0.4459791856627642  1.0000
  H   H13       1.0  0.9131605722012368  0.6560517640507796  0.7744057297362124  1.0000
  H   H14       1.0  0.0037344115673405543  0.902714095076275  0.9028683806340896  1.0000
  H   H15       1.0  0.02461588715040451  0.6485266315052066  0.036552790970923336  1.0000
  H   H16       1.0  0.994446125920426  0.6836100306962136  0.2769900531061771  1.0000
  C   C24       1.0  0.9098011863186424  0.530965589187667  0.17613066373315567  1.0000
  C   C25       1.0  0.9883336602253908  0.5423645896201161  0.17318894058359754  1.0000
  C   C26       1.0  0.028239979137569145  0.5480132948735195  0.05456207728075046  1.0000
  C   C27       1.0  0.9885523062089672  0.542109219456183  0.9379194527012483  1.0000
  C   C28       1.0  0.9099706391203092  0.5307105159151424  0.9389136311661073  1.0000
  C   C29       1.0  0.8710789278432011  0.5252065109906383  0.058458168358014095  1.0000
  C   C30       1.0  0.11131944456440056  0.5600741065618455  0.05249479774512822  1.0000
  C   C31       1.0  0.15559872812786435  0.4788849107253512  0.9694388190891343  1.0000
  C   C32       1.0  0.2337923080372637  0.49041680998148734  0.9677314013771814  1.0000
  C   C33       1.0  0.2686079194345627  0.5829036832630019  0.048587140470128805  1.0000
  C   C34       1.0  0.22530040020440786  0.664051312104871  0.13138408773557694  1.0000
  C   C35       1.0  0.1470890572661756  0.6528819123592335  0.13356239938337655  1.0000
  H   H17       1.0  0.8795889105151984  0.5266543880660002  0.5047330879670293  1.0000
  H   H18       1.0  0.01874651597268428  0.5448810660939818  0.26350080909132995  1.0000
  H   H19       1.0  0.018927036746803738  0.5484077889990748  0.8460621815340751  1.0000
  H   H20       1.0  0.8105048583094216  0.5164182175741137  0.06001128402410471  1.0000
  H   H21       1.0  0.7616078980024  0.5101132114895306  0.7334375057562393  1.0000
  H   H22       1.0  0.12984731517099024  0.405176652966331  0.9071391461951767  1.0000
  H   H23       1.0  0.2674295903718901  0.4272836505908255  0.9038670126826255  1.0000
  H   H24       1.0  0.3291417609795322  0.5916896656460406  0.047083402632509104  1.0000
  H   H25       1.0  0.2523326820400635  0.7359900029052537  0.19374119189389025  1.0000
  H   H26       1.0  0.1145463433090541  0.7181285624945744  0.19731136736597651  1.0000
  Zn  Zn1       1.0  0.8275900262340926  0.5351700450742172  0.5587411525845477  1.0000
  Zn  Zn2       1.0  0.992174581676622  0.5265057515068632  0.5563026202913314  1.0000
  C   C36       1.0  0.9099064392531627  0.5250153485195383  0.7947188212174363  1.0000
  C   C37       1.0  0.9098599755961335  0.5366621724919187  0.32032505646160514  1.0000
  C   C38       1.0  0.9112780301045971  0.7941549603505837  0.5529196183282887  1.0000
  C   C39       1.0  0.9084883194081497  0.2675208314497637  0.5621243256568729  1.0000
  O   O1        1.0  0.9723386534923395  0.5352796539028153  0.3677925879117072  1.0000
  O   O2        1.0  0.9723436248565033  0.5198207812711793  0.7454001239460444  1.0000
  O   O3        1.0  0.9734503601381963  0.7371544654326607  0.5501455725803415  1.0000
  O   O4        1.0  0.9712318620821789  0.3179459830438216  0.5630470427515292  1.0000
  O   O5        1.0  0.8485326896639113  0.7437298164955288  0.5519967309496736  1.0000
  O   O6        1.0  0.8474259635541432  0.5263978645034273  0.7472512168345802  1.0000
  O   O7        1.0  0.8474209916265174  0.5418566874144093  0.3696421191971657  1.0000
  O   O8        1.0  0.8463142001802001  0.3245230062111977  0.5648966713881924  1.0000
