data_image0
_chemical_formula_structural       NC12NC2H8C6BrH5C6NH7Zn2C4O8
_chemical_formula_sum              "N3 C30 H20 Br1 Zn2 O8"
_cell_length_a       19.240039667572717
_cell_length_b       9.276564384272257
_cell_length_c       9.274774538082514
_cell_angle_alpha    85.01137938942293
_cell_angle_beta     90.34966360595384
_cell_angle_gamma    90.58593109150864

_space_group_name_H-M_alt    "P 1"
_space_group_IT_number       1

loop_
  _space_group_symop_operation_xyz
  'x, y, z'

loop_
  _atom_site_type_symbol
  _atom_site_label
  _atom_site_symmetry_multiplicity
  _atom_site_fract_x
  _atom_site_fract_y
  _atom_site_fract_z
  _atom_site_occupancy
  N   N1        1.0  0.6576397992237365  0.5920955112104931  0.40670153034402223  1.0000
  C   C1        1.0  0.5974914306020663  0.5920956052591295  0.4067014392103434  1.0000
  C   C2        1.0  0.5226733936603963  0.5920957368260973  0.40670128651565857  1.0000
  C   C3        1.0  0.48618005172325485  0.5195102673315113  0.5216826563867079  1.0000
  C   C4        1.0  0.41350897564092903  0.5193863034885984  0.5217789323309567  1.0000
  C   C5        1.0  0.37634115849612076  0.5920958418177111  0.40670103340658526  1.0000
  C   C6        1.0  0.4135490213885191  0.6648055858985793  0.2916233505075714  1.0000
  C   C7        1.0  0.48621938097581724  0.6646813593638241  0.29171976280168077  1.0000
  C   C8        1.0  0.2991360673186388  0.5920957553937909  0.40670092744163866  1.0000
  C   C9        1.0  0.26146334065525517  0.46592213028398444  0.4533348816359127  1.0000
  C   C10       1.0  0.1887929430585522  0.466041719790691  0.45323329391551526  1.0000
  C   C11       1.0  0.1528037798847844  0.5920956113665425  0.40670099524885606  1.0000
  C   C12       1.0  0.0779857429084685  0.5920954826553513  0.4067012716911791  1.0000
  N   N2        1.0  0.017837426504407793  0.5920954353056105  0.4067015033467199  1.0000
  C   C13       1.0  0.18976212781219606  0.7181495876557993  0.36016863773548136  1.0000
  C   C14       1.0  0.2624331152793886  0.7182693787486094  0.36006686915893227  1.0000
  H   H1        1.0  0.5138819032958313  0.46330645966552914  0.6114564611565518  1.0000
  H   H2        1.0  0.386410615627255  0.46405791252160183  0.612791688587371  1.0000
  H   H3        1.0  0.3864608505982938  0.7201340073977651  0.20061053771827475  1.0000
  H   H4        1.0  0.5139473012061455  0.7208850530248263  0.20194626461692966  1.0000
  H   H5        1.0  0.288169130899856  0.36661949239316227  0.4880525058332111  1.0000
  H   H6        1.0  0.16069886460647256  0.3677275567387934  0.4890980504415879  1.0000
  H   H7        1.0  0.16242638272908588  0.816463723320338  0.32430389740167564  1.0000
  H   H8        1.0  0.2899138041410481  0.8175721049930642  0.3253491951348688  1.0000
  C   C15       1.0  0.8356489893313018  0.16861131173988153  0.4070705628286744  1.0000
  C   C16       1.0  0.8263595740251208  0.25325858119974454  0.27516120264794286  1.0000
  C   C17       1.0  0.8235420725888082  0.18940696954837644  0.14448394053921376  1.0000
  C   C18       1.0  0.8299913482030111  0.04001067966906912  0.1432347469632074  1.0000
  C   C19       1.0  0.8380505539162898  0.9536874406919391  0.2731494150895748  1.0000
  C   C20       1.0  0.8398348942621806  0.01556842926434986  0.40634487430655214  1.0000
  Br  Br1       1.0  0.8266463652427949  0.9532134211813483  0.9639227112403077  1.0000
  H   H9        1.0  0.815948398198641  0.42912170147611745  0.6417094248348613  1.0000
  H   H10       1.0  0.822922474837382  0.3699364771733862  0.27269039290860353  1.0000
  H   H11       1.0  0.8170048297600905  0.2565021043436871  0.04395284958765222  1.0000
  H   H12       1.0  0.8412573499352995  0.8374745377734246  0.2700377831161349  1.0000
  H   H13       1.0  0.8788279566024394  0.7156795260926108  0.6311275203386733  1.0000
  C   C21       1.0  0.8365128333643055  0.5957782873784851  0.9828882683126682  1.0000
  C   C22       1.0  0.8861820244233075  0.6808797514203939  0.04955185468118507  1.0000
  C   C23       1.0  0.9389106264249475  0.7541019823892796  0.9687241918056954  1.0000
  C   C24       1.0  0.9423958023572743  0.7425548385305294  0.8197566690254554  1.0000
  C   C25       1.0  0.892965299007897  0.6606301916870869  0.7513877982641688  1.0000
  C   C26       1.0  0.8389710408685324  0.5884014426699882  0.830527214366787  1.0000
  N   N3        1.0  0.9893767269887281  0.8390028178076847  0.038393195037557566  1.0000
  H   H14       1.0  0.7312293604097024  0.3138717051112194  0.10905013300456458  1.0000
  H   H15       1.0  0.8849647366506238  0.6877192713300524  0.16556612444739405  1.0000
  H   H16       1.0  0.9831022122142586  0.7982720724811647  0.7561781527674154  1.0000
  H   H17       1.0  0.8960447545290916  0.6566188010901723  0.6352181848652836  1.0000
  H   H18       1.0  0.7659460458774836  0.4029176379003192  0.5646043647499983  1.0000
  H   H19       1.0  0.9874031256447044  0.8480462201538719  0.14975537029625552  1.0000
  H   H20       1.0  0.029074349168113356  0.8935860052275268  0.9791043352550384  1.0000
  Zn  Zn1       1.0  0.7615850680375104  0.59209156679076  0.4067098478218931  1.0000
  Zn  Zn2       1.0  0.9138921524829765  0.5920875138825229  0.4067049746213043  1.0000
  C   C27       1.0  0.8384764471437615  0.5840508388959649  0.6703102274225927  1.0000
  C   C28       1.0  0.8370024459690161  0.6001300600753257  0.143104735063319  1.0000
  C   C29       1.0  0.8390234102822871  0.8555255792032513  0.4007308587187213  1.0000
  C   C30       1.0  0.83645542251883  0.3286535864904067  0.4126841821989379  1.0000
  O   O1        1.0  0.894966478129864  0.6015827252701487  0.19687300093635401  1.0000
  O   O2        1.0  0.8961099613493354  0.5825940133383338  0.616537848375937  1.0000
  O   O3        1.0  0.8965508661848985  0.801813286363696  0.3988505995690381  1.0000
  O   O4        1.0  0.894525521059368  0.382363463504084  0.4145601415225366  1.0000
  O   O5        1.0  0.7809516474861716  0.8018156171722179  0.3988546809147312  1.0000
  O   O6        1.0  0.7805107509873215  0.582598077427507  0.6165418512839524  1.0000
  O   O7        1.0  0.779367262533498  0.601586754206725  0.19687526868564767  1.0000
  O   O8        1.0  0.7789263057229873  0.38236748118438224  0.41456251748661765  1.0000
