data_image0
_chemical_formula_structural       NC8NC6H8C7OC4NC3H7C7OC2NC3H11Zn2C4O8
_chemical_formula_sum              "N4 C44 H26 O10 Zn2"
_cell_length_a       17.457602349358154
_cell_length_b       10.299371701877257
_cell_length_c       10.298749378158432
_cell_angle_alpha    85.57636868446646
_cell_angle_beta     92.88501269270333
_cell_angle_gamma    91.69730494660953

_space_group_name_H-M_alt    "P 1"
_space_group_IT_number       1

loop_
  _space_group_symop_operation_xyz
  'x, y, z'

loop_
  _atom_site_type_symbol
  _atom_site_label
  _atom_site_symmetry_multiplicity
  _atom_site_fract_x
  _atom_site_fract_y
  _atom_site_fract_z
  _atom_site_occupancy
  N   N1        1.0  0.7224504258553454  0.4529343577590932  0.6268960035090316  1.0000
  C   C1        1.0  0.6613666744323082  0.40700978384933784  0.6162629288477302  1.0000
  C   C2        1.0  0.5853759061158152  0.3498853276177955  0.6030449288513127  1.0000
  C   C3        1.0  0.5268584545697772  0.3900419272781973  0.6779638736737015  1.0000
  C   C4        1.0  0.45230604895446347  0.3350356952033262  0.6653611235970134  1.0000
  C   C5        1.0  0.3901983474936202  0.3774351331067691  0.7447030819972653  1.0000
  C   C6        1.0  0.3156484526606138  0.395907570870686  0.6889409747569895  1.0000
  C   C7        1.0  0.2571309889328137  0.4358802368693533  0.7639678177477933  1.0000
  C   C8        1.0  0.18114279694866664  0.4549586877110116  0.7059902596919445  1.0000
  N   N2        1.0  0.12006120644331103  0.470291382463605  0.659376451803573  1.0000
  C   C9        1.0  0.2726713301136341  0.45762357082361493  0.895265419439577  1.0000
  C   C10       1.0  0.3464365978430465  0.43954009300507185  0.9514152993977139  1.0000
  C   C11       1.0  0.40494251807678416  0.3997474490375619  0.8768462843821947  1.0000
  C   C12       1.0  0.4375595364526703  0.23919554481902972  0.5764061345532054  1.0000
  C   C13       1.0  0.4960653363011215  0.19931759724411635  0.5018873294965036  1.0000
  C   C14       1.0  0.5698330391191745  0.25443616586491924  0.5150401204847688  1.0000
  H   H1        1.0  0.5392165916041417  0.4652316869198452  0.7446275667223372  1.0000
  H   H2        1.0  0.3032924083304961  0.3809445568609669  0.5869016860048635  1.0000
  H   H3        1.0  0.2278190683411392  0.4885022100957275  0.954117723676346  1.0000
  H   H4        1.0  0.358279060443733  0.4560607981577072  0.053081848004881804  1.0000
  H   H5        1.0  0.4614308332347892  0.384752300990064  0.9229516763589802  1.0000
  H   H6        1.0  0.3810691217614326  0.1938606431546237  0.5657371497668919  1.0000
  H   H7        1.0  0.484221015359802  0.1252443877914735  0.4340256017752353  1.0000
  H   H8        1.0  0.6146853007026064  0.22268778982787296  0.4566986787660323  1.0000
  C   C15       1.0  0.9212193409450883  0.08024083811135305  0.6430062455118788  1.0000
  C   C16       1.0  0.9249344545809686  0.08975502981883854  0.5066362160579785  1.0000
  C   C17       1.0  0.9259370889691155  0.9773467879711775  0.43772138618943357  1.0000
  C   C18       1.0  0.9249439743840454  0.8544871038025301  0.506954409614528  1.0000
  C   C19       1.0  0.9212996254424084  0.8429751791801837  0.6432780326567085  1.0000
  C   C20       1.0  0.9192565373951344  0.9564458237289561  0.7104828620924741  1.0000
  C   C21       1.0  0.930665746204734  0.9872845293124153  0.2938485800956141  1.0000
  O   O1        1.0  0.967586541268709  0.9031538919945227  0.2419152708128054  1.0000
  C   C22       1.0  0.8934971471407851  0.09258194481738612  0.2088949612282138  1.0000
  C   C23       1.0  0.9263446853835009  0.1386698999053917  0.09160040722962481  1.0000
  C   C24       1.0  0.8911998140121813  0.2370453435613593  0.009933705334803198  1.0000
  C   C25       1.0  0.9255355519578441  0.28438249244030955  0.8905744339307288  1.0000
  N   N3        1.0  0.9531399576133113  0.32243186255742073  0.794627170381899  1.0000
  C   C26       1.0  0.8226345185946928  0.28922740712001405  0.04450704632050151  1.0000
  C   C27       1.0  0.789139164863809  0.24290068753561767  0.16000902133471384  1.0000
  C   C28       1.0  0.8240637515377673  0.14481310310681828  0.24164633005063685  1.0000
  H   H9        1.0  0.927911996393789  0.18481304632790674  0.4539894883640907  1.0000
  H   H10       1.0  0.926285577855376  0.7677124600888031  0.45404839943257147  1.0000
  H   H11       1.0  0.916392876027074  0.9483072037669966  0.8156144695647634  1.0000
  H   H12       1.0  0.9795476069830374  0.09890380089029517  0.06436762140998598  1.0000
  H   H13       1.0  0.7949713408668204  0.3652409535324457  0.9820039786874557  1.0000
  H   H14       1.0  0.7358051344355787  0.2826773423717004  0.18607801809260605  1.0000
  H   H15       1.0  0.7963541990797066  0.10888626764675037  0.3295447830642362  1.0000
  C   C29       1.0  0.9212241003653774  0.46163447829484744  0.2617382041392904  1.0000
  C   C30       1.0  0.9631440079710339  0.5803294884954424  0.25518355822136196  1.0000
  C   C31       1.0  0.983571536181274  0.6411171742739863  0.13456776542983762  1.0000
  C   C32       1.0  0.9631470622526545  0.5803784833820582  0.019939795293476777  1.0000
  C   C33       1.0  0.9212948418325754  0.4615815338982714  0.02454607320725754  1.0000
  C   C34       1.0  0.9004227245079308  0.40313627593608015  0.14587508510964686  1.0000
  C   C35       1.0  0.028460737696607962  0.7658450189337507  0.12759727988080427  1.0000
  O   O2        1.0  0.0764016635036775  0.7862806439049608  0.040172993963187846  1.0000
  C   C36       1.0  0.018965192319956747  0.8673815951538717  0.21974673753620944  1.0000
  C   C37       1.0  0.9386203288887299  0.9839506428904288  0.3566297399984959  1.0000
  N   N4        1.0  0.8655780299103044  0.0026138020578336777  0.4083427356792819  1.0000
  C   C38       1.0  0.0019363309301172456  0.06296590466021978  0.39122615523586224  1.0000
  C   C39       1.0  0.0731051390701354  0.04544923957525526  0.3398690943543654  1.0000
  C   C40       1.0  0.08163263969624503  0.9486308732142139  0.25420843018632056  1.0000
  H   H16       1.0  0.8430327962674161  0.2363900387845295  0.4816463743755164  1.0000
  H   H17       1.0  0.9806699171863736  0.6249404763553708  0.34417663118584807  1.0000
  H   H18       1.0  0.9793321550208199  0.6266070991415775  0.9268714577577158  1.0000
  H   H19       1.0  0.8681136925670007  0.3116416079707005  0.1501760416929392  1.0000
  H   H20       1.0  0.8424929095022388  0.23688942859815748  0.8259879491623536  1.0000
  H   H21       1.0  0.8976833805190902  0.8276539456017975  0.2424886371659654  1.0000
  H   H22       1.0  0.8179978528382946  0.9442645757027649  0.3832083834384532  1.0000
  H   H23       1.0  0.8585561480649666  0.07482585066036095  0.47228206612869617  1.0000
  H   H24       1.0  0.9960490005787116  0.13832344704792068  0.45750458476823663  1.0000
  H   H25       1.0  0.12179441084604492  0.1070418828085038  0.36650350790056985  1.0000
  H   H26       1.0  0.13736748705104151  0.9364191452806733  0.2157558022374897  1.0000
  Zn  Zn1       1.0  0.8371923086288189  0.45793973690396267  0.6362766571866378  1.0000
  Zn  Zn2       1.0  0.005319309285597205  0.4652753546702022  0.6500064278355868  1.0000
  C   C41       1.0  0.921279230590248  0.45641776388858246  0.8803570726354746  1.0000
  C   C42       1.0  0.9212342234500893  0.4667990464150338  0.4059262903774831  1.0000
  C   C43       1.0  0.9212800188470569  0.6988023553118271  0.638050693034832  1.0000
  C   C44       1.0  0.9212333776654779  0.22441289216794713  0.6482327339821028  1.0000
  O   O3        1.0  0.9850409408014564  0.47131048557767175  0.4595275036824919  1.0000
  O   O4        1.0  0.9850770164055834  0.4574729091709477  0.8371760633382686  1.0000
  O   O5        1.0  0.985076792958928  0.6532014944957185  0.6415118776947175  1.0000
  O   O6        1.0  0.9850411068696991  0.27558190704680907  0.6551915872607028  1.0000
  O   O7        1.0  0.8574704536712228  0.6476331820254839  0.6310914930693936  1.0000
  O   O8        1.0  0.8574706772721864  0.4519061570226827  0.8267556100168402  1.0000
  O   O9        1.0  0.8574346015694633  0.46574368828361373  0.44910548880502943  1.0000
  O   O10       1.0  0.8574347676426246  0.27001510045697086  0.6447696697564529  1.0000
