data_image0
_chemical_formula_structural       NC8NH4C10H6C6FH3Zn2C4O8
_chemical_formula_sum              "N2 C28 H13 F1 Zn2 O8"
_cell_length_a       11.048855714531884
_cell_length_b       9.275150299802176
_cell_length_c       9.275646106892307
_cell_angle_alpha    84.62811981021342
_cell_angle_beta     90.02253791369307
_cell_angle_gamma    89.4838956589931

_space_group_name_H-M_alt    "P 1"
_space_group_IT_number       1

loop_
  _space_group_symop_operation_xyz
  'x, y, z'

loop_
  _atom_site_type_symbol
  _atom_site_label
  _atom_site_symmetry_multiplicity
  _atom_site_fract_x
  _atom_site_fract_y
  _atom_site_fract_z
  _atom_site_occupancy
  N   N1        1.0  0.12708261510473795  0.5961262752373546  0.39889619790483666  1.0000
  C   C1        1.0  0.0729748812187512  0.5390504734680632  0.3141197574369794  1.0000
  C   C2        1.0  0.005465112994026631  0.467836147199664  0.20834268739536607  1.0000
  C   C3        1.0  0.8777483590914286  0.46783595542593265  0.20834279034162734  1.0000
  C   C4        1.0  0.8154757709990523  0.3974374125161609  0.10377772961724219  1.0000
  C   C5        1.0  0.8793952743870618  0.3275957233997915  3.969802359460388e-05  1.0000
  C   C6        1.0  0.005801487649384593  0.32759561296770934  3.9721344471608533e-05  1.0000
  C   C7        1.0  0.0687333090592821  0.39743751130660376  0.10377770130360386  1.0000
  C   C8        1.0  0.8092314595680361  0.5390505485861611  0.31411974386070507  1.0000
  N   N2        1.0  0.7543165009327231  0.5961263176270555  0.3988962264937607  1.0000
  H   H1        1.0  0.7174197634835203  0.39655586629808925  0.1024676808822016  1.0000
  H   H2        1.0  0.8308804776874712  0.27342487175228114  0.9195786822410223  1.0000
  H   H3        1.0  0.055082518086157835  0.2734249812469276  0.9195786810099832  1.0000
  H   H4        1.0  0.1668017757302174  0.39655581428680553  0.10246795666141265  1.0000
  C   C9        1.0  0.4438997788451307  0.17239498204904202  0.4013126711711483  1.0000
  C   C10       1.0  0.5075028417070238  0.2556113488119265  0.2921100642427481  1.0000
  C   C11       1.0  0.5607240019432129  0.1906852615864134  0.17735792282782664  1.0000
  C   C12       1.0  0.5508820201643481  0.0415926755086753  0.17033032850780172  1.0000
  C   C13       1.0  0.4899210132826477  0.9569393846549376  0.2788842165152195  1.0000
  C   C14       1.0  0.4375110042183855  0.01984630973014512  0.3964922982104997  1.0000
  C   C15       1.0  0.6243407350804833  0.2776703861330496  0.06565850938773421  1.0000
  C   C16       1.0  0.6776040201092721  0.3505224090158223  0.972142819061057  1.0000
  C   C17       1.0  0.739972855101368  0.4358370260506362  0.8626400241089769  1.0000
  C   C18       1.0  0.7932258702373229  0.5086833756560436  0.7691422600828135  1.0000
  H   H5        1.0  0.3866035668389953  0.4322749410680029  0.6305247604331592  1.0000
  H   H6        1.0  0.5133189053983014  0.3720359386080543  0.29433994234242344  1.0000
  H   H7        1.0  0.5914166224177415  0.990394236684956  0.08153628117104472  1.0000
  H   H8        1.0  0.48621706307633095  0.8410057668790354  0.27265243406558937  1.0000
  H   H9        1.0  0.3590081541623889  0.8857189796717341  0.7394430420277427  1.0000
  H   H10       1.0  0.839986459836402  0.5726486523683176  0.6870435008446543  1.0000
  C   C19       1.0  0.4405305050993289  0.6006369613168718  0.9750363498155209  1.0000
  C   C20       1.0  0.5512345218522762  0.6157179636777923  0.04701142545312709  1.0000
  C   C21       1.0  0.6605404872016665  0.61725021960702  0.971556897078791  1.0000
  C   C22       1.0  0.6610631849557895  0.603583557597765  0.8232583797054572  1.0000
  C   C23       1.0  0.5522375848930245  0.59090846877548  0.7493376600851702  1.0000
  C   C24       1.0  0.4408802687600635  0.5916043782286138  0.8227686108976298  1.0000
  F   F1        1.0  0.7664311727162483  0.63027759607085  0.042918014770429114  1.0000
  H   H11       1.0  0.16077021884221532  0.48340785125582375  0.08885605337782598  1.0000
  H   H12       1.0  0.7459301074434292  0.6041872078710888  0.7649395875170075  1.0000
  H   H13       1.0  0.2514342488062056  0.5186143647969361  0.5483380219174765  1.0000
  Zn  Zn1       1.0  0.3080888125447663  0.5961223276471568  0.39890456053548196  1.0000
  Zn  Zn2       1.0  0.5733104247164261  0.5961183043379938  0.398899743987307  1.0000
  C   C25       1.0  0.44085482765358075  0.5875633442662211  0.6625617611576071  1.0000
  C   C26       1.0  0.4405472921524751  0.604679106802293  0.13524267462710698  1.0000
  C   C27       1.0  0.4387100459517537  0.8597212777182236  0.39165158865182664  1.0000
  C   C28       1.0  0.44269199645381546  0.33251943891134217  0.4061529339496398  1.0000
  O   O1        1.0  0.5412031931031642  0.6060278658380596  0.18900758868882095  1.0000
  O   O2        1.0  0.5414960015656805  0.5862104475094156  0.6087927821340893  1.0000
  O   O3        1.0  0.5397627070232034  0.805981404707653  0.39003089259175744  1.0000
  O   O4        1.0  0.5429363970209959  0.386256920116516  0.40776936994862956  1.0000
  O   O5        1.0  0.3384627497330619  0.8059837118716596  0.39003493456820126  1.0000
  O   O6        1.0  0.3401960311688908  0.5862144891153953  0.6087967372878236  1.0000
  O   O7        1.0  0.3399032224498446  0.6060318756517022  0.1890098087357659  1.0000
  O   O8        1.0  0.341636426485187  0.3862609184564898  0.40777169827214044  1.0000
