data_image0
_chemical_formula_structural       NC6NC3H6C7NH3C6FH3Zn2C4O8
_chemical_formula_sum              "N3 C26 H12 F1 Zn2 O8"
_cell_length_a       14.934028789175542
_cell_length_b       9.275154477615127
_cell_length_c       9.275646106892307
_cell_angle_alpha    85.17883559390603
_cell_angle_beta     89.99728415196485
_cell_angle_gamma    89.3962875590186

_space_group_name_H-M_alt    "P 1"
_space_group_IT_number       1

loop_
  _space_group_symop_operation_xyz
  'x, y, z'

loop_
  _atom_site_type_symbol
  _atom_site_label
  _atom_site_symmetry_multiplicity
  _atom_site_fract_x
  _atom_site_fract_y
  _atom_site_fract_z
  _atom_site_occupancy
  N   N1        1.0  0.8330147079981548  0.5939387081680856  0.41376842980194484  1.0000
  C   C1        1.0  0.7555351632988925  0.5928480996987389  0.4130843988613133  1.0000
  C   C2        1.0  0.6591467343440752  0.5914863662682106  0.41223051223108165  1.0000
  C   C3        1.0  0.6107526718216033  0.6975402165196065  0.4786246373029981  1.0000
  C   C4        1.0  0.5172474572121158  0.6964468294207544  0.4779400006809196  1.0000
  C   C5        1.0  0.471223433870108  0.5893537121454802  0.4108953225223537  1.0000
  C   C6        1.0  0.3745639845714952  0.5916514893131526  0.4123351299130915  1.0000
  N   N2        1.0  0.2970730071451365  0.5934750616898135  0.4134781273512214  1.0000
  C   C7        1.0  0.519620662154686  0.48183263599033244  0.34358209366171466  1.0000
  C   C8        1.0  0.47199771550608316  0.3654001433028055  0.270691824483706  1.0000
  C   C9        1.0  0.6137503014134466  0.4840417229778053  0.3449651268827896  1.0000
  H   H1        1.0  0.645299384693386  0.7811008067055869  0.5309376392736129  1.0000
  H   H2        1.0  0.48071805680210117  0.7793638833502906  0.52984997681777  1.0000
  H   H3        1.0  0.4289194735036157  0.41540124903491105  0.18217141397225078  1.0000
  H   H4        1.0  0.429663491710891  0.3017178465415733  0.35065396122284676  1.0000
  H   H5        1.0  0.5199056114380626  0.28998521862359405  0.2234724335717346  1.0000
  H   H6        1.0  0.6517661937465407  0.40222770999370194  0.29374599383313127  1.0000
  C   C10       1.0  0.06763882614095729  0.17033276831024713  0.41195154367606435  1.0000
  C   C11       1.0  0.043020595172097206  0.2548912968559325  0.28471601307220795  1.0000
  C   C12       1.0  0.011121046446583401  0.19016782257528897  0.16422570927988311  1.0000
  C   C13       1.0  0.003314663869453666  0.03999844028595479  0.1695519949508375  1.0000
  C   C14       1.0  0.028761909694475785  0.9542622910475363  0.2938864232629468  1.0000
  C   C15       1.0  0.062457569409421376  0.017069767028828006  0.4153074711871858  1.0000
  C   C16       1.0  0.9853110392763306  0.2783256836288692  0.03545721869877938  1.0000
  N   N3        1.0  0.964566951908332  0.34918833949982847  0.9319603356814704  1.0000
  H   H7        1.0  0.08511123279162341  0.24321449655383096  0.7662052538373757  1.0000
  H   H8        1.0  0.9783207312270048  0.9888829634573055  0.07694792758686342  1.0000
  H   H9        1.0  0.07802170482009281  0.7157567093999571  0.6526651205864817  1.0000
  C   C17       1.0  0.06491636944264287  0.5982138549424107  0.9898069919478405  1.0000
  C   C18       1.0  0.14681252673523754  0.6132002240399433  0.0618762730650404  1.0000
  C   C19       1.0  0.22768160457905628  0.6146503769390701  0.9863859254793415  1.0000
  C   C20       1.0  0.22807565255639972  0.6009949253341993  0.8379553570651593  1.0000
  C   C21       1.0  0.1475679493121956  0.5884110396531674  0.7639627664589903  1.0000
  C   C22       1.0  0.06517998666189873  0.5891886778651241  0.8374519757407684  1.0000
  F   F1        1.0  0.30601772552067175  0.6275884209218676  0.057823670376549785  1.0000
  H   H10       1.0  0.8579989056592924  0.4812910279649174  0.10262557065929734  1.0000
  H   H11       1.0  0.2908640291784492  0.6015353267484009  0.7796031023681396  1.0000
  H   H12       1.0  0.9250577054447676  0.5164006450740817  0.5624051229976992  1.0000
  Zn  Zn1       1.0  0.9669319486652207  0.5938009577382433  0.41369296753403817  1.0000
  Zn  Zn2       1.0  0.1631558724792006  0.5936008766376161  0.41356534248032406  1.0000
  C   C23       1.0  0.0651633316426003  0.5851510917157672  0.6772061637399047  1.0000
  C   C24       1.0  0.06492662117377535  0.6022525580689992  0.150052293746346  1.0000
  C   C25       1.0  0.06343053541372234  0.8570796719476159  0.4089218304492379  1.0000
  C   C26       1.0  0.06665936106831633  0.33032224492717166  0.4183366971616749  1.0000
  O   O1        1.0  0.13939605669398794  0.6035257642141942  0.20378362291769458  1.0000
  O   O2        1.0  0.1396233205107602  0.5837249454362688  0.6233775503330292  1.0000
  O   O3        1.0  0.1382230622718099  0.8033106980247635  0.40673605963891135  1.0000
  O   O4        1.0  0.14079624787823675  0.3839400231596479  0.4204250054819261  1.0000
  O   O5        1.0  0.989291506304578  0.80346181128614  0.40683330456840316  1.0000
  O   O6        1.0  0.9906917539162571  0.5838777916775524  0.6234747251738266  1.0000
  O   O7        1.0  0.9904644899267447  0.6036785786903069  0.20387906234519715  1.0000
  O   O8        1.0  0.9918646812040878  0.3840928261717407  0.42052055307528224  1.0000
