data_image0
_chemical_formula_structural       NC12NC2H8C6NCONH8C6OCH8Zn2C4O8
_chemical_formula_sum              "N4 C32 H24 O10 Zn2"
_cell_length_a       17.80743265337812
_cell_length_b       10.300273812906134
_cell_length_c       10.300312196595936
_cell_angle_alpha    85.5569990727622
_cell_angle_beta     91.53959400843588
_cell_angle_gamma    89.41532131896969

_space_group_name_H-M_alt    "P 1"
_space_group_IT_number       1

loop_
  _space_group_symop_operation_xyz
  'x, y, z'

loop_
  _atom_site_type_symbol
  _atom_site_label
  _atom_site_symmetry_multiplicity
  _atom_site_fract_x
  _atom_site_fract_y
  _atom_site_fract_z
  _atom_site_occupancy
  N   N1        1.0  0.7070491758490068  0.40662864408251836  0.6014285895692464  1.0000
  C   C1        1.0  0.6562190544666258  0.4361867057083568  0.5327351614739195  1.0000
  C   C2        1.0  0.5929813696615218  0.4729547887811518  0.4472891842343254  1.0000
  C   C3        1.0  0.6046891433220907  0.5269741349301522  0.32067922488548795  1.0000
  C   C4        1.0  0.5433592677184387  0.5622386772299597  0.23762905118139627  1.0000
  C   C5        1.0  0.47016722050045506  0.5437473317916219  0.280528985967438  1.0000
  C   C6        1.0  0.4574827270826866  0.4896091836449368  0.40760705056960955  1.0000
  C   C7        1.0  0.5196699170820233  0.45434789525807945  0.4906407139122894  1.0000
  C   C8        1.0  0.37972287914656955  0.4700037364188434  0.45336705611401745  1.0000
  C   C9        1.0  0.3609396956433237  0.49718751612156664  0.5804005619840242  1.0000
  C   C10       1.0  0.2877176965841914  0.47873774153930904  0.6233410558160664  1.0000
  C   C11       1.0  0.23233601865670922  0.43284992024055624  0.5400859459781457  1.0000
  C   C12       1.0  0.1569776197509684  0.41384733441480376  0.5844272579897994  1.0000
  N   N2        1.0  0.09639480362425501  0.39857053342572996  0.6200746224614648  1.0000
  C   C13       1.0  0.250427779421197  0.4054972314093608  0.4135953667588199  1.0000
  C   C14       1.0  0.32359690344365655  0.4239617930668833  0.370399006905758  1.0000
  H   H1        1.0  0.6611494954423224  0.5417974764439129  0.2862448979956968  1.0000
  H   H2        1.0  0.5525422251475393  0.6043345317687379  0.13985755745707615  1.0000
  H   H3        1.0  0.4235174408146948  0.573381970229107  0.21494324561882625  1.0000
  H   H4        1.0  0.5111856226393129  0.41086680206372345  0.5882877901090703  1.0000
  H   H5        1.0  0.4026127228449379  0.5343643534212228  0.6459677693500918  1.0000
  H   H6        1.0  0.27427629083129634  0.5005813343611558  0.7213415526927444  1.0000
  H   H7        1.0  0.2080376369869721  0.3695876095222294  0.3484410634709482  1.0000
  H   H8        1.0  0.3365102544164689  0.400582726540305  0.272701840122608  1.0000
  C   C15       1.0  0.9018027523656438  0.021249816575524386  0.6107715961536788  1.0000
  C   C16       1.0  0.9194032465929123  0.030146214367811508  0.4783005168020466  1.0000
  C   C17       1.0  0.9293002218362896  0.9172998546912257  0.411999069974081  1.0000
  C   C18       1.0  0.9192297102505027  0.7949931786685536  0.47830666969226904  1.0000
  C   C19       1.0  0.9016484238754822  0.7839392865850823  0.6107431303178574  1.0000
  C   C20       1.0  0.8933116685811727  0.8976598231491901  0.6764020454121785  1.0000
  N   N3        1.0  0.9461413444968911  0.9248514301056547  0.275853258272605  1.0000
  C   C21       1.0  0.9934845548523501  0.021520238900053047  0.21355062363494026  1.0000
  O   O1        1.0  0.03270596279945415  0.09459461973997518  0.280055552584695  1.0000
  N   N4        1.0  0.9981882039260777  0.03261844874829612  0.07508320275906066  1.0000
  H   H9        1.0  0.8940114578656687  0.34534794108207983  0.6606537967912915  1.0000
  H   H10       1.0  0.9239218303282296  0.12486875702109601  0.4260701989560642  1.0000
  H   H11       1.0  0.925828409515891  0.7084515962536659  0.4260819716821513  1.0000
  H   H12       1.0  0.8797575630471556  0.8899881638065802  0.7785806462957366  1.0000
  H   H13       1.0  0.8938699131361038  0.45240080100840596  0.6604354375720237  1.0000
  H   H14       1.0  0.9270312727782046  0.8504001503362569  0.220441514039597  1.0000
  H   H15       1.0  0.9665115021639346  0.9724308937317352  0.018325976767914476  1.0000
  H   H16       1.0  0.03320104857123973  0.10154555901049367  0.029056610788373627  1.0000
  C   C22       1.0  0.9017043618217475  0.40260917441989186  0.22941423955834117  1.0000
  C   C23       1.0  0.828099320494115  0.4535365075839273  0.22099581853515102  1.0000
  C   C24       1.0  0.7910629305872258  0.47916208174270486  0.09918051034680352  1.0000
  C   C25       1.0  0.82818616503295  0.4534765108104948  0.9858583066231903  1.0000
  C   C26       1.0  0.9017468218787313  0.40257989291220003  0.9921005226331938  1.0000
  C   C27       1.0  0.9381231762420671  0.37741094559232247  0.11440547495115494  1.0000
  O   O2        1.0  0.7175925837817884  0.5299964447842649  0.08647572106892285  1.0000
  C   C28       1.0  0.6729592426474598  0.5608785721197508  0.19278883492234544  1.0000
  H   H17       1.0  0.9297500898093095  0.3832053147137129  0.5600515301764212  1.0000
  H   H18       1.0  0.7998421018103273  0.47308766261899854  0.3091652339860953  1.0000
  H   H19       1.0  0.7990840572568116  0.4736123980886832  0.892675631915047  1.0000
  H   H20       1.0  0.9948802333617977  0.33814077803985887  0.12009332007642534  1.0000
  H   H21       1.0  0.9295854274754168  0.38331880252419454  0.6670538004152209  1.0000
  H   H22       1.0  0.6638547466979005  0.47209385833130435  0.2584594175324786  1.0000
  H   H23       1.0  0.6175838198694611  0.5991928414533676  0.1545540075499361  1.0000
  H   H24       1.0  0.7007737955839761  0.6367180284064877  0.24742091923811693  1.0000
  Zn  Zn1       1.0  0.8194059181534125  0.4042997800188053  0.6068169184410269  1.0000
  Zn  Zn2       1.0  0.9840380615589737  0.40088880415710915  0.6146968863197005  1.0000
  C   C29       1.0  0.9017381569927734  0.3974120383402912  0.8479365834927701  1.0000
  C   C30       1.0  0.9017076201730326  0.4077781471200203  0.37357743471368354  1.0000
  C   C31       1.0  0.901673437541213  0.6397749854301156  0.6055735199764154  1.0000
  C   C32       1.0  0.9017722837667171  0.16541364096748065  0.6159405648332972  1.0000
  O   O3        1.0  0.9641857552866905  0.40821278855824605  0.42495032690933127  1.0000
  O   O4        1.0  0.9642120095728759  0.39438756548885107  0.8025440308027665  1.0000
  O   O5        1.0  0.9641589056520166  0.5900987277596075  0.6068341018913674  1.0000
  O   O6        1.0  0.9642388030224522  0.21250163674491868  0.6206601557634  1.0000
  O   O7        1.0  0.8392051205090628  0.5926869485964079  0.6008536463014511  1.0000
  O   O8        1.0  0.8392582241069263  0.39697734655378  0.7965635059137146  1.0000
  O   O9        1.0  0.8392319697929667  0.41080252442841125  0.418968240729226  1.0000
  O   O10       1.0  0.8392850175329546  0.215091363323068  0.6146781669447487  1.0000
