data_image0
_chemical_formula_structural       NC6NCNCH5C6ClH5C7NH4Zn2C4O8
_chemical_formula_sum              "N4 C25 H14 Cl1 Zn2 O8"
_cell_length_a       14.933214217465613
_cell_length_b       10.30297070629231
_cell_length_c       9.275157849593905
_cell_angle_alpha    86.11098826397364
_cell_angle_beta     89.70661770832213
_cell_angle_gamma    90.03245333812676

_space_group_name_H-M_alt    "P 1"
_space_group_IT_number       1

loop_
  _space_group_symop_operation_xyz
  'x, y, z'

loop_
  _atom_site_type_symbol
  _atom_site_label
  _atom_site_symmetry_multiplicity
  _atom_site_fract_x
  _atom_site_fract_y
  _atom_site_fract_z
  _atom_site_occupancy
  N   N1        1.0  0.8476714790099799  0.4078347912821661  0.4095137648267482  1.0000
  C   C1        1.0  0.7701839802565813  0.4087235136048866  0.40852349802361787  1.0000
  C   C2        1.0  0.6737889824766464  0.40983152218959296  0.40728875770516826  1.0000
  C   C3        1.0  0.6256992296687452  0.3244416637593473  0.5024546369935758  1.0000
  C   C4        1.0  0.5321688054380259  0.32540723929487925  0.5013785455047362  1.0000
  C   C5        1.0  0.4858256279958317  0.41171374920442233  0.4051911071312577  1.0000
  C   C6        1.0  0.3892442572615747  0.40983344588232923  0.40728668736819884  1.0000
  N   N2        1.0  0.3117537420478381  0.4082648542647187  0.4090344911505057  1.0000
  C   C7        1.0  0.534017497142448  0.49818184981132796  0.3088236702847389  1.0000
  N   N3        1.0  0.4889845902976021  0.5878874708736466  0.2088482040361459  1.0000
  C   C8        1.0  0.6280256018368566  0.4963547953090883  0.3108600159892252  1.0000
  H   H1        1.0  0.6604875981487734  0.2571175026837862  0.5774864897685621  1.0000
  H   H2        1.0  0.4958779284190588  0.2586494184427351  0.5757790905653533  1.0000
  H   H3        1.0  0.5255370624531867  0.6512461988364081  0.13823569009904224  1.0000
  H   H4        1.0  0.4192579472579419  0.5926605754674498  0.2035287135278081  1.0000
  H   H5        1.0  0.6654388283576814  0.5624409212364787  0.2372079003279326  1.0000
  C   C9        1.0  0.07971685846041887  0.026802414727159714  0.40928035698996124  1.0000
  C   C10       1.0  0.17210592122953844  0.023985703439547874  0.43694276349463457  1.0000
  C   C11       1.0  0.21794690855543009  0.9056312816944643  0.45066801054418826  1.0000
  C   C12       1.0  0.17210592070493214  0.7888777341813292  0.4369426957187055  1.0000
  C   C13       1.0  0.07971686778544584  0.7892873572639815  0.40928043947707105  1.0000
  C   C14       1.0  0.033972691453866936  0.9088436519774344  0.3955840463266902  1.0000
  Cl  Cl1       1.0  0.3333628604827785  0.903616054277957  0.48522484763055296  1.0000
  H   H6        1.0  0.04491551891714485  0.35516653186518654  0.39885960611429994  1.0000
  H   H7        1.0  0.20885129715835804  0.11339069234252253  0.447944651112358  1.0000
  H   H8        1.0  0.20885126203604643  0.698189498583869  0.44794454760886043  1.0000
  H   H9        1.0  0.9627194426394818  0.9100876576812449  0.3742499225344136  1.0000
  H   H10       1.0  0.04491551378617854  0.4621385675440659  0.3988598782072632  1.0000
  C   C15       1.0  0.0809050988790172  0.40437622842294424  0.9860813748797391  1.0000
  C   C16       1.0  0.15808856324269208  0.44677125967249753  0.05569770465951085  1.0000
  C   C17       1.0  0.2306784395631859  0.4993708012248378  0.9757445810970373  1.0000
  C   C18       1.0  0.22693108756668745  0.5104112503109131  0.8250895041607134  1.0000
  C   C19       1.0  0.15158869309330492  0.4669666246198547  0.7541297312872959  1.0000
  C   C20       1.0  0.07852867127146705  0.41171347363244576  0.8324793997700284  1.0000
  C   C21       1.0  0.30873958203976115  0.5435746605955971  0.04866759674769706  1.0000
  N   N4        1.0  0.37148075282737714  0.5791026453031058  0.1072854065005362  1.0000
  H   H11       1.0  0.863023780609754  0.3604005375392794  0.09414397880656034  1.0000
  H   H12       1.0  0.28269291161427934  0.5515292230420719  0.7622091264556179  1.0000
  H   H13       1.0  0.15139059112516295  0.4737920413824479  0.6370654963738618  1.0000
  H   H14       1.0  0.9327688313421002  0.37665511130888585  0.5552234163149681  1.0000
  Zn  Zn1       1.0  0.9815955726092149  0.40795548680526383  0.40938378771078066  1.0000
  Zn  Zn2       1.0  0.17782960055744867  0.4081336106215761  0.4091763029260804  1.0000
  C   C22       1.0  0.07897584763597987  0.4051545717056042  0.6724920264789225  1.0000
  C   C23       1.0  0.08045146800308257  0.4109361669901835  0.14606820333976223  1.0000
  C   C24       1.0  0.07972839648728813  0.6451116552798912  0.4035375809488506  1.0000
  C   C25       1.0  0.07969885197503196  0.170977524215568  0.4150227257735746  1.0000
  O   O1        1.0  0.15476901626106118  0.413199675422328  0.199682505073969  1.0000
  O   O2        1.0  0.15359538720913424  0.4030252721218186  0.6187198337429831  1.0000
  O   O3        1.0  0.1542020718280792  0.596793663858527  0.40153721714164003  1.0000
  O   O4        1.0  0.15416226498412455  0.2194312919753898  0.4168650136909984  1.0000
  O   O5        1.0  0.005262841217516855  0.5966578053920117  0.401695077009087  1.0000
  O   O6        1.0  0.004656156810292527  0.40289097279619496  0.6188776167699135  1.0000
  O   O7        1.0  0.005829790786611171  0.41306531583506345  0.19983855543941664  1.0000
  O   O8        1.0  0.005223039202644666  0.21929692403891776  0.41702117210398426  1.0000
