data_image0
_chemical_formula_structural       NC12NC2H8C9H10C9H8Zn2C4O8
_chemical_formula_sum              "N2 C36 H26 Zn2 O8"
_cell_length_a       19.240039667572717
_cell_length_b       10.297183801781406
_cell_length_c       9.275155815604963
_cell_angle_alpha    86.02609203372302
_cell_angle_beta     90.35749810205114
_cell_angle_gamma    89.99762600624447

_space_group_name_H-M_alt    "P 1"
_space_group_IT_number       1

loop_
  _space_group_symop_operation_xyz
  'x, y, z'

loop_
  _atom_site_type_symbol
  _atom_site_label
  _atom_site_symmetry_multiplicity
  _atom_site_fract_x
  _atom_site_fract_y
  _atom_site_fract_z
  _atom_site_occupancy
  N   N1        1.0  0.6496618963197918  0.4093442222491528  0.40953181107356906  1.0000
  C   C1        1.0  0.5895135272270327  0.40934430554880574  0.4095317201029347  1.0000
  C   C2        1.0  0.5146954896247945  0.40934442168587376  0.40953156767133764  1.0000
  C   C3        1.0  0.4785684740967418  0.34575076826743945  0.5243251072911308  1.0000
  C   C4        1.0  0.4058980174814148  0.3456406007831867  0.524421201441162  1.0000
  C   C5        1.0  0.3683632539253049  0.4093445123183681  0.40953131495447304  1.0000
  C   C6        1.0  0.40520416940134607  0.47304861256445774  0.294641644273016  1.0000
  C   C7        1.0  0.47787514976419326  0.4729382105694769  0.29473787448163136  1.0000
  C   C8        1.0  0.29115816316904974  0.4093444328149574  0.4095312091031307  1.0000
  C   C9        1.0  0.2541127868247563  0.2964125751848834  0.45605144405446607  1.0000
  C   C10       1.0  0.18144179108456568  0.29651871941837604  0.4559500438066513  1.0000
  C   C11       1.0  0.1448258764522126  0.40934430413036726  0.40953127676029966  1.0000
  C   C12       1.0  0.0700078401299431  0.40934419249468457  0.40953155276880815  1.0000
  N   N2        1.0  0.009859523974484797  0.4093441534522962  0.4095317840842989  1.0000
  C   C13       1.0  0.1811574724981397  0.522169964235981  0.36311245098182043  1.0000
  C   C14       1.0  0.2538278608129924  0.5222762872416806  0.3630108702072179  1.0000
  H   H1        1.0  0.5065540223073128  0.296521003532322  0.6139524420181428  1.0000
  H   H2        1.0  0.3790790975474203  0.29721873378129354  0.6152861069747431  1.0000
  H   H3        1.0  0.3778365583768484  0.5214705061889369  0.20377668229690227  1.0000
  H   H4        1.0  0.5053193739396412  0.5221678773862855  0.20511084586974948  1.0000
  H   H5        1.0  0.281312199539895  0.20750069069358215  0.4906823236504818  1.0000
  H   H6        1.0  0.15383651332837336  0.20851514562221407  0.4917268464248657  1.0000
  H   H7        1.0  0.15333292685568886  0.6101735136136656  0.3273356645227601  1.0000
  H   H8        1.0  0.28081492676375297  0.6111882505463602  0.3283799408879138  1.0000
  C   C15       1.0  0.8297670947112851  0.027870224906291655  0.40973599140155126  1.0000
  C   C16       1.0  0.8272846163026458  0.036553568583903365  0.2580747605907818  1.0000
  C   C17       1.0  0.8260126092543504  0.9243858120854636  0.1803742770027681  1.0000
  C   C18       1.0  0.8272747053423624  0.8013779152718995  0.257486944117312  1.0000
  C   C19       1.0  0.8297610486317682  0.7908082792833587  0.4093400042226356  1.0000
  C   C20       1.0  0.8309903531964383  0.9045228719034124  0.48447326579437555  1.0000
  C   C21       1.0  0.8233274412633433  0.943209656225672  0.016341946852321376  1.0000
  C   C22       1.0  0.7823887525341078  0.8438702971415186  0.9361122774328039  1.0000
  C   C23       1.0  0.8615572607962864  0.8441429794050611  0.9315338324070224  1.0000
  H   H9        1.0  0.830730272825466  0.3520627080554595  0.46817592819120457  1.0000
  H   H10       1.0  0.8263263886261234  0.13132818365926727  0.19952515810894234  1.0000
  H   H11       1.0  0.826341401286055  0.7133365765302571  0.2005632527682235  1.0000
  H   H12       1.0  0.8329052890578674  0.8970960470466852  0.6014830901421073  1.0000
  H   H13       1.0  0.8344478183693859  0.5636287631365356  0.6961476764033168  1.0000
  H   H14       1.0  0.8224650191608187  0.04351617856239387  0.9636190723450335  1.0000
  H   H15       1.0  0.7593934289952279  0.760741650705158  0.0017009975738841972  1.0000
  H   H16       1.0  0.7575616440135714  0.883952154793809  0.8341425682188794  1.0000
  H   H17       1.0  0.8866525569258242  0.7611807783516433  0.9943421454348336  1.0000
  H   H18       1.0  0.8830006573011558  0.884381830195595  0.8268868937846344  1.0000
  C   C24       1.0  0.8284906320184194  0.40605569352291915  0.986308482293727  1.0000
  C   C25       1.0  0.7741183684927017  0.46935330503716943  0.0540905115689847  1.0000
  C   C26       1.0  0.7244013840404738  0.5412843854500007  0.9727684190171947  1.0000
  C   C27       1.0  0.7281346601561027  0.5514241024970441  0.8221813584059792  1.0000
  C   C28       1.0  0.7811082844182387  0.4874285399788803  0.752691326827332  1.0000
  C   C29       1.0  0.8310374850212613  0.412622767334142  0.832767499094718  1.0000
  C   C30       1.0  0.6770127223970795  0.6263901122837106  0.7385450725994295  1.0000
  C   C31       1.0  0.6342073089970733  0.6891639078780022  0.6684844551994602  1.0000
  C   C32       1.0  0.5822706370229932  0.7653292949938024  0.5834662653097111  1.0000
  H   H19       1.0  0.9898151071294846  0.3012469251245926  0.09932069701025958  1.0000
  H   H20       1.0  0.7709958337268485  0.46575233651859427  0.1708839191189473  1.0000
  H   H21       1.0  0.6833859585063854  0.5901102288110263  0.027556116048453212  1.0000
  H   H22       1.0  0.7823924185880117  0.4935370426679304  0.635541860420747  1.0000
  H   H23       1.0  0.9386795245184565  0.3373942355079167  0.5592241359774146  1.0000
  H   H24       1.0  0.5963942119171672  0.7690616829390412  0.46746533780276334  1.0000
  H   H25       1.0  0.5305063596935705  0.7190705722646427  0.5985165635438459  1.0000
  H   H26       1.0  0.5805108629925744  0.8656364651287686  0.6199189336296729  1.0000
  Zn  Zn1       1.0  0.7536071851676622  0.4093407987129223  0.4095401154711549  1.0000
  Zn  Zn2       1.0  0.9059142893727478  0.40933707184453066  0.40953524746466297  1.0000
  C   C33       1.0  0.8305545763561754  0.4062063773978093  0.6727713411215994  1.0000
  C   C34       1.0  0.8289685617856861  0.4124731332876013  0.14630416236808919  1.0000
  C   C35       1.0  0.8297413237378886  0.646552185917741  0.40367165847202036  1.0000
  C   C36       1.0  0.8297817626757924  0.17212576463248896  0.4154039226678805  1.0000
  O   O1        1.0  0.8869287117172098  0.4146198030666666  0.1999983297378145  1.0000
  O   O2        1.0  0.8881919931292803  0.4040558958005745  0.6190730646752829  1.0000
  O   O3        1.0  0.8875345066957961  0.5981381874137646  0.40177316633473703  1.0000
  O   O4        1.0  0.8875861458533779  0.22053751990914222  0.4172981200122883  1.0000
  O   O5        1.0  0.7719352767120695  0.5981403506509382  0.40177724291760925  1.0000
  O   O6        1.0  0.772592762898772  0.4040596191755548  0.619077063602023  1.0000
  O   O7        1.0  0.7713294763195939  0.41462346772966985  0.20000059590162023  1.0000
  O   O8        1.0  0.7719869107781158  0.22054117611910629  0.4173004942362466  1.0000
