data_image0
_chemical_formula_structural       NC5NC4H6C10H6C6NH7Zn2C4O8
_chemical_formula_sum              "N3 C29 H19 Zn2 O8"
_cell_length_a       13.854160002989762
_cell_length_b       9.275150299802176
_cell_length_c       9.274774538082514
_cell_angle_alpha    84.74231674010296
_cell_angle_beta     90.34967120186236
_cell_angle_gamma    89.48388968248379

_space_group_name_H-M_alt    "P 1"
_space_group_IT_number       1

loop_
  _space_group_symop_operation_xyz
  'x, y, z'

loop_
  _atom_site_type_symbol
  _atom_site_label
  _atom_site_symmetry_multiplicity
  _atom_site_fract_x
  _atom_site_fract_y
  _atom_site_fract_z
  _atom_site_occupancy
  N   N1        1.0  0.8927610943615307  0.593006819824683  0.39900511129432714  1.0000
  C   C1        1.0  0.8200310727036128  0.6187461892630164  0.33974414468875747  1.0000
  C   C2        1.0  0.7295538940208363  0.6507666687255635  0.2660212347461526  1.0000
  C   C3        1.0  0.6424584124897293  0.6206432891705215  0.3379986241154469  1.0000
  C   C4        1.0  0.5544114814667889  0.6507666832642103  0.2660212114641849  1.0000
  C   C5        1.0  0.46492293261110423  0.6187460410712626  0.33974423725764047  1.0000
  N   N2        1.0  0.392987524147929  0.5930067562968573  0.39900511156789986  1.0000
  C   C6        1.0  0.5534890723087668  0.7116199831657933  0.12208198602797204  1.0000
  C   C7        1.0  0.6405383698481788  0.7438954609174893  0.049988830310105925  1.0000
  C   C8        1.0  0.6395342519143475  0.8050902079347751  0.8945453251438996  1.0000
  C   C9        1.0  0.7285661609784262  0.7116199826270782  0.1220818956479426  1.0000
  H   H1        1.0  0.6431983186202602  0.5734326663970137  0.4494055728294492  1.0000
  H   H2        1.0  0.48525358497420046  0.733902601752231  0.06624138234634369  1.0000
  H   H3        1.0  0.7038771393532903  0.8734922386694358  0.8703430815545521  1.0000
  H   H4        1.0  0.5741686619529053  0.8734922399796554  0.8703431467075521  1.0000
  H   H5        1.0  0.6397861142679785  0.7151447182399466  0.8234182237629843  1.0000
  H   H6        1.0  0.7960765430209834  0.7339027150368289  0.06624129617821861  1.0000
  C   C10       1.0  0.14543572006473002  0.16928019450307175  0.4014214267909213  1.0000
  C   C11       1.0  0.19574382534365165  0.25228380180437915  0.2922262479788422  1.0000
  C   C12       1.0  0.23775109607670764  0.18713414467572578  0.17748191188500195  1.0000
  C   C13       1.0  0.22987522302646446  0.038027868492638506  0.17045479530280572  1.0000
  C   C14       1.0  0.18167171673678184  0.953586072915606  0.2790012993676596  1.0000
  C   C15       1.0  0.14032223038226863  0.016722131810790856  0.39660138152808644  1.0000
  C   C16       1.0  0.2880605901726514  0.27390164541389017  0.06579009636766786  1.0000
  C   C17       1.0  0.33018237152926516  0.3465714718097362  0.9722807670860162  1.0000
  C   C18       1.0  0.37950502176659495  0.43167274470435874  0.8627854206402397  1.0000
  C   C19       1.0  0.42161868106594724  0.5043369327486333  0.7692940164397322  1.0000
  H   H7        1.0  0.10061466544187422  0.42960671786849863  0.6306179263022962  1.0000
  H   H8        1.0  0.20039070094975894  0.36871273517482983  0.29445597454665573  1.0000
  H   H9        1.0  0.2618637205083494  0.9866564336189547  0.08166678763118917  1.0000
  H   H10       1.0  0.17869402835739567  0.8376403146819055  0.2727699406605677  1.0000
  H   H11       1.0  0.07902200180993438  0.8832629574607046  0.7395287998643882  1.0000
  H   H12       1.0  0.4585979873009266  0.5681422565646411  0.6872008416537896  1.0000
  C   C20       1.0  0.14112447691622343  0.5966916912750002  0.9751740961347983  1.0000
  C   C21       1.0  0.20900493485420824  0.6818418659870316  0.041426293854800005  1.0000
  C   C22       1.0  0.2812874211199416  0.7551060074326987  0.960244670498044  1.0000
  C   C23       1.0  0.28627644857523316  0.7435522534463406  0.8113329705992194  1.0000
  C   C24       1.0  0.21868648514355926  0.661580714406273  0.7433601309921647  1.0000
  C   C25       1.0  0.1446334950856227  0.589310623697419  0.8228487044692088  1.0000
  N   N3        1.0  0.35027717976993944  0.8400554386191519  0.02950325519680574  1.0000
  H   H13       1.0  0.998548380669702  0.31462374609331567  0.10269874099862597  1.0000
  H   H14       1.0  0.20722618274349824  0.6886853010984303  0.15740749925814468  1.0000
  H   H15       1.0  0.3420888836290788  0.7993013784325821  0.7474851141878891  1.0000
  H   H16       1.0  0.22301484689859685  0.6575670273668737  0.6272099105670619  1.0000
  H   H17       1.0  0.045612577668758134  0.403720648539012  0.5578225112959525  1.0000
  H   H18       1.0  0.34741966065103497  0.849104017779459  0.1408217117381283  1.0000
  H   H19       1.0  0.404703285890607  0.894669867990014  0.9699505372531281  1.0000
  Zn  Zn1       1.0  0.03711569991550643  0.5930028656902213  0.39901347711158097  1.0000
  Zn  Zn2       1.0  0.24863304008493414  0.5929987995357657  0.3990086663935437  1.0000
  C   C26       1.0  0.14400275281893624  0.5849575295630929  0.6626527493371634  1.0000
  C   C27       1.0  0.1417482865451105  0.6010459550016214  0.135369525421019  1.0000
  C   C28       1.0  0.14126003610171242  0.8565876688478683  0.39176100120773105  1.0000
  C   C29       1.0  0.14449094186532568  0.3294140814470461  0.4062613603612988  1.0000
  O   O1        1.0  0.22222740900166404  0.6024994475805592  0.1891307850549624  1.0000
  O   O2        1.0  0.22406040222120402  0.5834998659470947  0.6088874291941944  1.0000
  O   O3        1.0  0.22184454792384467  0.8028446256046591  0.39014041746666916  1.0000
  O   O4        1.0  0.22444319061222162  0.3831546991887409  0.40787768850732653  1.0000
  O   O5        1.0  0.06130547720769107  0.8028469660402706  0.3901444549918396  1.0000
  O   O6        1.0  0.06352132072153083  0.5835039406555306  0.6088913799025597  1.0000
  O   O7        1.0  0.061688320686261705  0.6025034871162767  0.18913300077454087  1.0000
  O   O8        1.0  0.0639041028030931  0.38315872746173696  0.40788001249610745  1.0000
