data_image0
_chemical_formula_structural       NC6NC2H4C6ClH5C7NH4Zn2C4O8
_chemical_formula_sum              "N3 C25 H13 Cl1 Zn2 O8"
_cell_length_a       14.927258858638513
_cell_length_b       10.302970706292308
_cell_length_c       9.275157849593905
_cell_angle_alpha    86.11098826397364
_cell_angle_beta     89.74087902936087
_cell_angle_gamma    89.9983139300619

_space_group_name_H-M_alt    "P 1"
_space_group_IT_number       1

loop_
  _space_group_symop_operation_xyz
  'x, y, z'

loop_
  _atom_site_type_symbol
  _atom_site_label
  _atom_site_symmetry_multiplicity
  _atom_site_fract_x
  _atom_site_fract_y
  _atom_site_fract_z
  _atom_site_occupancy
  N   N1        1.0  0.8480068970590646  0.4070492797139422  0.41038905131481274  1.0000
  C   C1        1.0  0.77048040586217  0.4070492541394752  0.4103890619000692  1.0000
  C   C2        1.0  0.6740478984558546  0.407049357326124  0.4103890120560294  1.0000
  C   C3        1.0  0.6273518723232064  0.3846231474169579  0.28374017906271964  1.0000
  C   C4        1.0  0.5336405613541382  0.384623169339094  0.2837400456442325  1.0000
  C   C5        1.0  0.48623183441506956  0.4070491976455603  0.41038903067769494  1.0000
  C   C6        1.0  0.3897992600172345  0.40704930083482616  0.41038898082773256  1.0000
  N   N2        1.0  0.3122727688203403  0.40704927526035917  0.41038899141298923  1.0000
  C   C7        1.0  0.5329277935561985  0.4294754075573439  0.5370378636650822  1.0000
  C   C8        1.0  0.6266391045252662  0.4294753856352078  0.5370379970835691  1.0000
  H   H1        1.0  0.663325328702018  0.36717429058720374  0.18520011826831095  1.0000
  H   H2        1.0  0.49822167320116784  0.3671744683805802  0.18520011333689101  1.0000
  H   H3        1.0  0.4969544038617547  0.4469242560355577  0.6355780325126346  1.0000
  H   H4        1.0  0.6620579923651262  0.44692417516928423  0.6355780393885648  1.0000
  C   C9        1.0  0.08014409534545758  0.025801873711297052  0.4103952483134843  1.0000
  C   C10       1.0  0.17256971586124892  0.022899548268461516  0.4381530536846865  1.0000
  C   C11       1.0  0.21842884216540914  0.9045026470643719  0.4519256351058684  1.0000
  C   C12       1.0  0.1725697153364355  0.7877915790107294  0.4381529859082162  1.0000
  C   C13       1.0  0.08014410467417422  0.7882868162394773  0.41039533081022284  1.0000
  C   C14       1.0  0.03438182767180242  0.9078855007001109  0.3966517032530674  1.0000
  Cl  Cl1       1.0  0.33389046342856465  0.9023804671696444  0.48660164810617007  1.0000
  H   H5        1.0  0.04532898514019436  0.35419824020001855  0.3999385623579923  1.0000
  H   H6        1.0  0.20932963169451516  0.11227048634091319  0.4491928837504531  1.0000
  H   H7        1.0  0.20932959655830563  0.6970692926148065  0.4491927802106885  1.0000
  H   H8        1.0  0.9631003844138146  0.9091955346384478  0.37524400495998234  1.0000
  H   H9        1.0  0.045328980007197685  0.4611702758836529  0.39993883444565714  1.0000
  C   C15       1.0  0.08133280594300256  0.4033745863005591  0.987197493153571  1.0000
  C   C16       1.0  0.1585468112977093  0.44569809396387056  0.05689352084123777  1.0000
  C   C17       1.0  0.23116541095655008  0.49823036866932796  0.9770153519510484  1.0000
  C   C18       1.0  0.2274165761574246  0.5092742903133649  0.826356405583407  1.0000
  C   C19       1.0  0.15204436919230035  0.4658994821446629  0.7553188358494194  1.0000
  C   C20       1.0  0.07895543799862198  0.41071403367377934  0.8335930641982063  1.0000
  C   C21       1.0  0.30925744171563485  0.5423618911360364  0.05001897178026637  1.0000
  N   N3        1.0  0.37202343877336097  0.5778317354947446  0.10870156665375141  1.0000
  H   H10       1.0  0.8633652734639707  0.35960079945665213  0.09503511773567541  1.0000
  H   H11       1.0  0.2832004647933608  0.55034059024564  0.7635336062826177  1.0000
  H   H12       1.0  0.151846188836508  0.4727250824823692  0.638254396380352  1.0000
  H   H13       1.0  0.9331379218558224  0.3757907425933631  0.5561865724135013  1.0000
  Zn  Zn1       1.0  0.9819839835444735  0.40704587182269725  0.41039736120325254  1.0000
  Zn  Zn2       1.0  0.1782956600115596  0.40704215148965517  0.41039250325856624  1.0000
  C   C22       1.0  0.07940279130789146  0.4041547173621012  0.673606152651349  1.0000
  C   C23       1.0  0.08087899556830272  0.4099349452338347  0.14718385320456284  1.0000
  C   C24       1.0  0.08015563793784852  0.6441111035720875  0.40465248418628064  1.0000
  C   C25       1.0  0.0801260817350227  0.16997699988577167  0.41613759850400606  1.0000
  O   O1        1.0  0.1552259507930921  0.41212958583767123  0.20087489356620658  1.0000
  O   O2        1.0  0.15405185734384075  0.40195627010377244  0.61991101037228  1.0000
  O   O3        1.0  0.15465878202391325  0.5957240996441597  0.40272902021981793  1.0000
  O   O4        1.0  0.15461895942865167  0.21836176464882362  0.4180567756655251  1.0000
  O   O5        1.0  0.005660617135862193  0.5957262586661463  0.4027330887903715  1.0000
  O   O6        1.0  0.005053692667593484  0.40195998826645324  0.6199150021025357  1.0000
  O   O7        1.0  0.00622779104318516  0.4121332437341483  0.2008771526400639  1.0000
  O   O8        1.0  0.005620799371593323  0.21836541419637756  0.41805914278660383  1.0000
