data_image0
_chemical_formula_structural       NC9NC4H8C7F3H5C7OCH10Zn2C4O8
_chemical_formula_sum              "N2 C32 H23 F3 O9 Zn2"
_cell_length_a       16.32274767691083
_cell_length_b       9.272718291674593
_cell_length_c       10.300835455316063
_cell_angle_alpha    86.00164586726821
_cell_angle_beta     89.48565492192432
_cell_angle_gamma    89.10298441660798

_space_group_name_H-M_alt    "P 1"
_space_group_IT_number       1

loop_
  _space_group_symop_operation_xyz
  'x, y, z'

loop_
  _atom_site_type_symbol
  _atom_site_label
  _atom_site_symmetry_multiplicity
  _atom_site_fract_x
  _atom_site_fract_y
  _atom_site_fract_z
  _atom_site_occupancy
  N   N1        1.0  0.7645952037596146  0.5673626172470412  0.5678053338790223  1.0000
  C   C1        1.0  0.7124797382474266  0.5146827337171045  0.5131593143651227  1.0000
  C   C2        1.0  0.6476994434785974  0.4492539082358735  0.44528852123879564  1.0000
  C   C3        1.0  0.6596260779654869  0.3597589501207792  0.3524490626642254  1.0000
  C   C4        1.0  0.5804429217302088  0.3160849366221884  0.30714646946379354  1.0000
  C   C5        1.0  0.5212428810625954  0.3800008500544194  0.37345326492458586  1.0000
  C   C6        1.0  0.4313759652740435  0.36310844935492836  0.3559325027855156  1.0000
  C   C7        1.0  0.3754688210744757  0.4376065728155897  0.433209962769908  1.0000
  C   C8        1.0  0.2908206186951281  0.4231695153215642  0.41823561090704686  1.0000
  C   C9        1.0  0.23449198136160943  0.49995784795273324  0.4978879546688662  1.0000
  N   N2        1.0  0.1892227510935607  0.5616830314951833  0.5619149509181625  1.0000
  C   C10       1.0  0.2610270256657262  0.3341138481383357  0.3258594447844101  1.0000
  C   C11       1.0  0.315611839307015  0.2597144029555827  0.24868468568127966  1.0000
  C   C12       1.0  0.4001028701466488  0.2737625928181147  0.2632555411331201  1.0000
  C   C13       1.0  0.5586075682913231  0.4731973069036968  0.47012993264704606  1.0000
  H   H1        1.0  0.7186790032308638  0.3249585806372642  0.31634591764514  1.0000
  H   H2        1.0  0.572453277251289  0.2429408188571416  0.2312687109753635  1.0000
  H   H3        1.0  0.3972907306345111  0.507129534295828  0.5053252400996093  1.0000
  H   H4        1.0  0.1956849685820185  0.3222207036389484  0.31352390938091945  1.0000
  H   H5        1.0  0.2923912500459274  0.190821541904584  0.17722326056078708  1.0000
  H   H6        1.0  0.44013283085422905  0.2142478258286955  0.201521095872061  1.0000
  H   H7        1.0  0.5420141988501697  0.43464406556110036  0.5713535034180366  1.0000
  H   H8        1.0  0.5413367034229791  0.5887274157971361  0.4487599715574311  1.0000
  C   C14       1.0  0.9786966969484443  0.14111551448509174  0.5619670005274371  1.0000
  C   C15       1.0  0.9287349855117659  0.22307468774613873  0.47292473951738057  1.0000
  C   C16       1.0  0.8729777964676594  0.15626954619894387  0.3942082692695603  1.0000
  C   C17       1.0  0.869353265469484  0.0050311906401849845  0.40184990292529976  1.0000
  C   C18       1.0  0.9193756795171484  0.9221114599741894  0.4880815546939898  1.0000
  C   C19       1.0  0.9751291441114713  0.9879188865449232  0.5677643758047599  1.0000
  C   C20       1.0  0.8215241462696713  0.24584400428586964  0.2969259767836343  1.0000
  F   F1        1.0  0.8004797722804088  0.37755613874853505  0.344408641325306  1.0000
  F   F2        1.0  0.7499970142146063  0.1753937223139035  0.27078965208286165  1.0000
  F   F3        1.0  0.8657018036001567  0.2700077303450697  0.18257221675720814  1.0000
  H   H9        1.0  0.07603697894563655  0.21857451614456605  0.8408445189058726  1.0000
  H   H10       1.0  0.9320042945355045  0.3399983262859202  0.4668359104344315  1.0000
  H   H11       1.0  0.8283870566187174  0.9504714172471467  0.33997735154258857  1.0000
  H   H12       1.0  0.9160319294716656  0.8053875178576195  0.48987496631879973  1.0000
  H   H13       1.0  0.15105123673586118  0.8696899271115234  0.7216068665217898  1.0000
  C   C21       1.0  0.9768387879417662  0.564444635312729  0.1835496567926862  1.0000
  C   C22       1.0  0.05173241928628091  0.6372049067632055  0.177075068585818  1.0000
  C   C23       1.0  0.08897172592863732  0.675384706217466  0.05660784276012688  1.0000
  C   C24       1.0  0.05192730298056313  0.6373938877836207  0.9417748807422702  1.0000
  C   C25       1.0  0.9769870832844648  0.5645897543356828  0.9461817020673968  1.0000
  C   C26       1.0  0.9397902378971772  0.5288533228413694  0.06750082173137328  1.0000
  C   C27       1.0  0.17026282738951415  0.7494453630821147  0.05102503278995085  1.0000
  O   O1        1.0  0.2333237392557761  0.6433668625810115  0.05694398533974043  1.0000
  C   C28       1.0  0.30999546005928025  0.7115407314875606  0.051810242533833144  1.0000
  H   H14       1.0  0.9486179087744797  0.5350772939625033  0.513515611881185  1.0000
  H   H15       1.0  0.0814169897861079  0.6644530704045  0.26558945146682156  1.0000
  H   H16       1.0  0.08174553292330344  0.6647731024056849  0.8491134814787223  1.0000
  H   H17       1.0  0.8820330062074672  0.4727264795162323  0.07173183968516672  1.0000
  H   H18       1.0  0.8360788936375875  0.4258075599620428  0.7473287191454174  1.0000
  H   H19       1.0  0.17430226297337326  0.8197650771365567  0.13412933481061762  1.0000
  H   H20       1.0  0.17449201683559304  0.8197845299895512  0.9590128039296014  1.0000
  H   H21       1.0  0.3588884915187289  0.626934109347567  0.05653967801990745  1.0000
  H   H22       1.0  0.3180016855420624  0.7783789380678799  0.13629649679808487  1.0000
  H   H23       1.0  0.3182014939828046  0.7784364043334389  0.9587831172550406  1.0000
  Zn  Zn1       1.0  0.8871335654287541  0.565719743118998  0.5661129690510711  1.0000
  Zn  Zn2       1.0  0.0666844475114885  0.5633140759580844  0.5636178724488359  1.0000
  C   C29       1.0  0.9769814093058602  0.5588183893135685  0.8019885968234173  1.0000
  C   C30       1.0  0.9768385566848284  0.5702172227626665  0.3277423573336833  1.0000
  C   C31       1.0  0.9757982755833912  0.8278541008556344  0.5614941191916702  1.0000
  C   C32       1.0  0.9780216364506592  0.30117977975984456  0.5682368931863262  1.0000
  O   O2        1.0  0.0449771295866066  0.5712353274173756  0.37518782563048036  1.0000
  O   O3        1.0  0.045117805890088514  0.555973351158572  0.7526490266972907  1.0000
  O   O4        1.0  0.044161492167702265  0.7732231032135397  0.5584480574996229  1.0000
  O   O5        1.0  0.04593338197805586  0.35398558647905354  0.5693886983890086  1.0000
  O   O6        1.0  0.9078845696902752  0.7750482334205333  0.560342143955533  1.0000
  O   O7        1.0  0.9088408760973873  0.5578002136488258  0.7545430557769393  1.0000
  O   O8        1.0  0.9087001997565345  0.5730621393652566  0.3770802931813051  1.0000
  O   O9        1.0  0.9096564522070084  0.3558123881327929  0.5712812632236084  1.0000
