data_image0
_chemical_formula_structural       NC9NC4H8C7NC2NH7C7F3H5Zn2C4O8
_chemical_formula_sum              "N4 C33 H20 F3 Zn2 O8"
_cell_length_a       16.32274767691083
_cell_length_b       9.273995741505848
_cell_length_c       9.272721663655245
_cell_angle_alpha    86.0144275597797
_cell_angle_beta     89.98655041730063
_cell_angle_gamma    90.10890436374608

_space_group_name_H-M_alt    "P 1"
_space_group_IT_number       1

loop_
  _space_group_symop_operation_xyz
  'x, y, z'

loop_
  _atom_site_type_symbol
  _atom_site_label
  _atom_site_symmetry_multiplicity
  _atom_site_fract_x
  _atom_site_fract_y
  _atom_site_fract_z
  _atom_site_occupancy
  N   N1        1.0  0.7723179587697308  0.5590991728374208  0.40154882800346403  1.0000
  C   C1        1.0  0.719375223771193  0.5060940160808844  0.34114282277522023  1.0000
  C   C2        1.0  0.6535674537964266  0.44026119865266455  0.26611808128385617  1.0000
  C   C3        1.0  0.664088661659181  0.3502136262715423  0.16349282044725033  1.0000
  C   C4        1.0  0.5842196694198172  0.3062699549368231  0.1134150963329099  1.0000
  C   C5        1.0  0.5260233753440652  0.37058055036609194  0.1867110132623997  1.0000
  C   C6        1.0  0.4358911978463402  0.35358385946013726  0.16734347864265242  1.0000
  C   C7        1.0  0.3811539442785669  0.42854196690772367  0.25276639490987796  1.0000
  C   C8        1.0  0.2962790350220899  0.4140157764276027  0.23621367310668792  1.0000
  C   C9        1.0  0.2411562486694404  0.4912782292968008  0.3242617947251708  1.0000
  N   N2        1.0  0.19685632205723433  0.5533845252568305  0.39503757274504614  1.0000
  C   C10       1.0  0.2650869558762231  0.3244102520151553  0.13410057629332894  1.0000
  C   C11       1.0  0.3185034303768144  0.24955143412988415  0.048791187834228186  1.0000
  C   C12       1.0  0.4032150607929799  0.26368635522918416  0.06489788194768331  1.0000
  C   C13       1.0  0.5648516029839925  0.46435246217144505  0.29357793362904583  1.0000
  H   H1        1.0  0.7225950703107613  0.31519835791448014  0.12358418914443912  1.0000
  H   H2        1.0  0.5750813704920581  0.2326741851372569  0.02953939345961709  1.0000
  H   H3        1.0  0.404067608602107  0.4984941852774689  0.33248299989639807  1.0000
  H   H4        1.0  0.1995581405530797  0.31244368174027515  0.12046481625555637  1.0000
  H   H5        1.0  0.2942009825628935  0.18023320813835664  0.9697973557878097  1.0000
  H   H6        1.0  0.4423104275723867  0.20380412196077313  0.9966563003591578  1.0000
  H   H7        1.0  0.5484327858047952  0.426389664914  0.4061773332081655  1.0000
  H   H8        1.0  0.548615028984071  0.5797674447396619  0.2692491645851689  1.0000
  C   C14       1.0  0.9821357169542589  0.13278000706894644  0.39727742768707697  1.0000
  C   C15       1.0  0.9958485000262842  0.2151094860797642  0.26666291840044276  1.0000
  C   C16       1.0  0.0169191453904689  0.14901921580706667  0.14134409468356446  1.0000
  C   C17       1.0  0.025164397445665006  0.9984723323728687  0.14305574771828788  1.0000
  C   C18       1.0  0.009725310169240052  0.9148818792142132  0.2725022086162363  1.0000
  C   C19       1.0  0.9870464143374204  0.9796924611029445  0.39932127243801496  1.0000
  C   C20       1.0  0.048486312336721626  0.9304189746803052  0.008700345737098884  1.0000
  N   N3        1.0  0.05079695416308505  0.003946798246555521  0.8776371720175287  1.0000
  C   C21       1.0  0.07490229753327406  0.9052325999469898  0.7865779426755082  1.0000
  C   C22       1.0  0.08698444260268817  0.7745794433048058  0.8629423611864135  1.0000
  N   N4        1.0  0.07040656866955342  0.7905735405556669  0.0026171624094870633  1.0000
  H   H9        1.0  0.9167703093662246  0.39941087992458774  0.6058094064879982  1.0000
  H   H10       1.0  0.02797724299132541  0.21652783338431547  0.04321931880912566  1.0000
  H   H11       1.0  0.012509463911415608  0.7982933660129498  0.2744578091565008  1.0000
  H   H12       1.0  0.9893507357497157  0.6829586433566335  0.6390795901084088  1.0000
  H   H13       1.0  0.0833746244876874  0.9275035131007767  0.6714826137470933  1.0000
  H   H14       1.0  0.106883925164412  0.6749633597533319  0.819890785468381  1.0000
  H   H15       1.0  0.07529187721013764  0.710433821595029  0.08683030792923473  1.0000
  C   C23       1.0  0.9824100670603604  0.5539265599212007  0.9748837372705643  1.0000
  C   C24       1.0  0.016590724239772033  0.4355077734257607  0.05678669859829809  1.0000
  C   C25       1.0  0.05800102105476257  0.3255698227772544  0.9899728969537906  1.0000
  C   C26       1.0  0.0627095624054328  0.33214734060902695  0.8387674780099483  1.0000
  C   C27       1.0  0.028026004215431444  0.4475703376875184  0.755896415241263  1.0000
  C   C28       1.0  0.9867720823675703  0.5585459826813753  0.8217149689836383  1.0000
  C   C29       1.0  0.09232019022009808  0.1976115953046398  0.07947488714767359  1.0000
  F   F1        1.0  0.12015077518635886  0.23915097090909648  0.21138586380511293  1.0000
  F   F2        1.0  0.15727256633627773  0.1370863163895071  0.009209530785582613  1.0000
  F   F3        1.0  0.031576918734728565  0.09462389225195  0.10318250203200274  1.0000
  H   H16       1.0  0.9324751026563673  0.8980128523370087  0.0527282368688282  1.0000
  H   H17       1.0  0.012470680967735731  0.43043974959105724  0.1736827029519381  1.0000
  H   H18       1.0  0.09249652483143576  0.24703012144585412  0.7841908029473923  1.0000
  H   H19       1.0  0.031538962653184344  0.4479842878796246  0.6391890727412303  1.0000
  H   H20       1.0  0.8411767512741787  0.8037449565605  0.703265750632379  1.0000
  Zn  Zn1       1.0  0.8948305865384085  0.5574462241196461  0.3996781379246026  1.0000
  Zn  Zn2       1.0  0.07434369269194874  0.5550257051947488  0.39692004643816103  1.0000
  C   C30       1.0  0.9859124138503975  0.5519281061120724  0.6616319153984647  1.0000
  C   C31       1.0  0.9832638369364403  0.5605456170214667  0.13496638475690736  1.0000
  C   C32       1.0  0.9860843744420075  0.8195767364291053  0.3931892849793399  1.0000
  C   C33       1.0  0.983091805439772  0.2928952554316615  0.4034090888083832  1.0000
  O   O1        1.0  0.0516746216730568  0.561842167645759  0.18764488709875438  1.0000
  O   O2        1.0  0.05374791458802841  0.5487933475090976  0.6068596677476158  1.0000
  O   O3        1.0  0.05388586431514897  0.7649230219302047  0.3900903621365277  1.0000
  O   O4        1.0  0.05153661019321398  0.3457125037764901  0.40441408556546077  1.0000
  O   O5        1.0  0.9176376077781002  0.7667594263654376  0.39218409973092383  1.0000
  O   O6        1.0  0.9174996676969946  0.5506314840446358  0.6089533326432821  1.0000
  O   O7        1.0  0.9154263656156904  0.5636802444731784  0.18973681832396805  1.0000
  O   O8        1.0  0.9152883546295268  0.34755057087960406  0.4065061248686774  1.0000
