data_image0
_chemical_formula_structural       NC8NH4C6NH7C6ClH3Zn2C4O8
_chemical_formula_sum              "N3 C24 H14 Cl1 Zn2 O8"
_cell_length_a       13.859017981522156
_cell_length_b       9.274771166103582
_cell_length_c       9.276548810779733
_cell_angle_alpha    85.98017888068892
_cell_angle_beta     89.72476127004172
_cell_angle_gamma    90.59707920365587

_space_group_name_H-M_alt    "P 1"
_space_group_IT_number       1

loop_
  _space_group_symop_operation_xyz
  'x, y, z'

loop_
  _atom_site_type_symbol
  _atom_site_label
  _atom_site_symmetry_multiplicity
  _atom_site_fract_x
  _atom_site_fract_y
  _atom_site_fract_z
  _atom_site_occupancy
  N   N1        1.0  0.9246173617222988  0.564118718429377  0.40769359497802227  1.0000
  C   C1        1.0  0.8524068713833782  0.5565266605186334  0.34641496507561403  1.0000
  C   C2        1.0  0.7625812800761442  0.5470835059826524  0.2701923224323972  1.0000
  C   C3        1.0  0.7627483293939243  0.5286684542936537  0.12155443072863581  1.0000
  C   C4        1.0  0.6754897554749276  0.5194987862868348  0.04753244720361581  1.0000
  C   C5        1.0  0.58788306624829  0.5286701748238721  0.12155417937049505  1.0000
  C   C6        1.0  0.5873510505597801  0.5470844778235668  0.27019213692967226  1.0000
  C   C7        1.0  0.6747914981855192  0.5562899563967254  0.34449994349675633  1.0000
  C   C8        1.0  0.49716706168269864  0.5565275623124251  0.34641472308548726  1.0000
  N   N2        1.0  0.42466844853997043  0.5641190311390742  0.4076935008349798  1.0000
  H   H1        1.0  0.830181335128118  0.5214220040068145  0.06306698886827178  1.0000
  H   H2        1.0  0.6757597034590169  0.5052742101895833  0.9327160710588331  1.0000
  H   H3        1.0  0.5207250883489629  0.5214250987100355  0.06306656340245298  1.0000
  H   H4        1.0  0.6745209918811246  0.570543226613943  0.459549749356049  1.0000
  C   C9        1.0  0.1716827347498251  0.1405295074266495  0.4084789528793067  1.0000
  C   C10       1.0  0.1498853750437828  0.2226614151151991  0.27962133695852315  1.0000
  C   C11       1.0  0.1370994063067157  0.1564277253441002  0.1499461734232046  1.0000
  C   C12       1.0  0.14616434101504733  0.006676076956031673  0.14818937645407024  1.0000
  C   C13       1.0  0.16618303109564847  0.923208573776944  0.2752768657872826  1.0000
  C   C14       1.0  0.17761221451093206  0.9876973185790224  0.4069206460933401  1.0000
  N   N3        1.0  0.11589933093743587  0.24164619738781457  0.01967233746393115  1.0000
  H   H5        1.0  0.2792795173216758  0.22306995879554245  0.7238331710260473  1.0000
  H   H6        1.0  0.1450220222885621  0.33924906482043227  0.27906783145479097  1.0000
  H   H7        1.0  0.13678350635274028  0.9542776520833991  0.048417420979112606  1.0000
  H   H8        1.0  0.17044830774861924  0.8070068722831233  0.27115007544327674  1.0000
  H   H9        1.0  0.24616542174694367  0.692590515040321  0.6214731721236261  1.0000
  H   H10       1.0  0.1092515027958545  0.35371966664857357  0.019625537322770056  1.0000
  H   H11       1.0  0.10660186724965029  0.19328662228618487  0.9222700846710286  1.0000
  C   C15       1.0  0.17598044157000392  0.5602489342768111  0.9845575389907667  1.0000
  C   C16       1.0  0.2573032392610024  0.6150816600781794  0.05356313105457654  1.0000
  C   C17       1.0  0.33328955921154213  0.6806653546363401  0.9732100042194952  1.0000
  C   C18       1.0  0.3290936098337305  0.6925202292735977  0.8227486724324393  1.0000
  C   C19       1.0  0.24986614177584032  0.6366756888070082  0.752095834808875  1.0000
  C   C20       1.0  0.17331446826356367  0.5679777957885717  0.830842059831262  1.0000
  Cl  Cl1       1.0  0.43338905580153564  0.7501207810730084  0.061586688652668586  1.0000
  H   H12       1.0  0.05777913757076859  0.3987956379785096  0.2778566925909458  1.0000
  H   H13       1.0  0.3877095964252198  0.7438343287247509  0.7601650142899511  1.0000
  H   H14       1.0  0.01794972029363651  0.5150936201553846  0.5543432727762565  1.0000
  Zn  Zn1       1.0  0.06892125651135861  0.5641150327457776  0.40770189219294184  1.0000
  Zn  Zn2       1.0  0.280364436940018  0.5641110553364976  0.4076970150092576  1.0000
  C   C21       1.0  0.17377604027345606  0.5607704770934228  0.6708867096787712  1.0000
  C   C22       1.0  0.17551197442402056  0.5674574322646146  0.1445123355508051  1.0000
  C   C23       1.0  0.1765045268479526  0.8275120974833259  0.40147313915074645  1.0000
  C   C24       1.0  0.17278340332690845  0.30071407953741813  0.41392598609106424  1.0000
  O   O1        1.0  0.2555962935519931  0.569868867650454  0.19819278719141176  1.0000
  O   O2        1.0  0.2541721963189685  0.558354930972311  0.6172021435749353  1.0000
  O   O3        1.0  0.2563743973194508  0.7737521765492932  0.39964877649387076  1.0000
  O   O4        1.0  0.253394020812846  0.3544716314068414  0.41574604621453526  1.0000
  O   O5        1.0  0.09589160048338542  0.7737544566782923  0.3996528609817458  1.0000
  O   O6        1.0  0.09368941185037305  0.5583589434414618  0.617206148044658  1.0000
  O   O7        1.0  0.09511351425321271  0.5698728140315779  0.19819505932453274  1.0000
  O   O8        1.0  0.0929112410975852  0.35447556845745387  0.41574842639967957  1.0000
