data_image0
_chemical_formula_structural       NC9NC3NH7C9H10C6OCH7Zn2C4O8
_chemical_formula_sum              "N3 C32 H24 O9 Zn2"
_cell_length_a       16.053384444249904
_cell_length_b       9.272676604525723
_cell_length_c       9.273891588657152
_cell_angle_alpha    86.3289676754197
_cell_angle_beta     89.48625385378584
_cell_angle_gamma    89.72820801156413

_space_group_name_H-M_alt    "P 1"
_space_group_IT_number       1

loop_
  _space_group_symop_operation_xyz
  'x, y, z'

loop_
  _atom_site_type_symbol
  _atom_site_label
  _atom_site_symmetry_multiplicity
  _atom_site_fract_x
  _atom_site_fract_y
  _atom_site_fract_z
  _atom_site_occupancy
  N   N1        1.0  0.7981754410026666  0.5443446420062088  0.41350238850175014  1.0000
  C   C1        1.0  0.7475593811939748  0.5204796186918494  0.3303277314180608  1.0000
  C   C2        1.0  0.6846573540991711  0.49082727036702356  0.22700450457340507  1.0000
  C   C3        1.0  0.6986671564864322  0.4760953185419509  0.08184403697816212  1.0000
  C   C4        1.0  0.6220734110965311  0.4474455637493895  0.02372503628173739  1.0000
  C   C5        1.0  0.5646026063095284  0.4462921338354355  0.1365621120093452  1.0000
  C   C6        1.0  0.473839824058967  0.41973893992842237  0.12507424284136473  1.0000
  C   C7        1.0  0.4178718973982324  0.46811359316014745  0.2295085696209822  1.0000
  C   C8        1.0  0.3322190499377048  0.4429293900539219  0.2185064416319269  1.0000
  C   C9        1.0  0.2754733438010398  0.49326539140413866  0.32558178662012804  1.0000
  N   N2        1.0  0.2298664742141186  0.5337284231142991  0.41165359890433695  1.0000
  C   C10       1.0  0.3018073594096578  0.36924633300320564  0.10308466405818328  1.0000
  C   C11       1.0  0.3567667158502048  0.3210066308457914  0.9988858475872521  1.0000
  C   C12       1.0  0.4422139920344776  0.3460028140273116  0.00944700467000969  1.0000
  N   N3        1.0  0.6035343816686913  0.4729266441710593  0.26048897607356314  1.0000
  H   H1        1.0  0.7576393004531223  0.48516125708568264  0.024596472256404267  1.0000
  H   H2        1.0  0.6100895489202907  0.4311296729629041  0.9113629453247679  1.0000
  H   H3        1.0  0.4402281779187139  0.5271668541541975  0.31833061004632834  1.0000
  H   H4        1.0  0.2357043796310089  0.34921212029976956  0.09363868277476287  1.0000
  H   H5        1.0  0.3331310633125104  0.26377390205389895  0.9098121665126904  1.0000
  H   H6        1.0  0.4833762370379892  0.30590746226142573  0.9279775711450653  1.0000
  H   H7        1.0  0.5770536100301537  0.47649336309270635  0.36345489699517763  1.0000
  C   C13       1.0  0.011670591799081144  0.11558910542642775  0.41074668915354773  1.0000
  C   C14       1.0  0.9779439067381085  0.18160927521575201  0.5302681038777205  1.0000
  C   C15       1.0  0.9518272227350143  0.09923850230271354  0.6532797530225851  1.0000
  C   C16       1.0  0.9585938960090895  0.9483928497688724  0.6609091016245046  1.0000
  C   C17       1.0  0.990959365235944  0.8809463327851295  0.5402829673457029  1.0000
  C   C18       1.0  0.01637920295240325  0.9624728072061177  0.4144216768447233  1.0000
  C   C19       1.0  0.9294489784418878  0.8667599984155393  0.7994986511716697  1.0000
  C   C20       1.0  0.8873953317388888  0.7215684746986781  0.7853270934191678  1.0000
  C   C21       1.0  0.9751571528408697  0.7274115475177878  0.8459412719180766  1.0000
  H   H8        1.0  0.030926064566713544  0.4117806687830319  0.17446266336447036  1.0000
  H   H9        1.0  0.9735490768603158  0.29823861256457784  0.5301483595626031  1.0000
  H   H10       1.0  0.9268598999307528  0.15412752069049773  0.7439542449681351  1.0000
  H   H11       1.0  0.9949289454440473  0.7644606181642079  0.5416044707980141  1.0000
  H   H12       1.0  0.03912592162212581  0.8818690618942067  0.06138432866717159  1.0000
  H   H13       1.0  0.9055776876810935  0.9283002426592972  0.8903561354508088  1.0000
  H   H14       1.0  0.883882109214022  0.6813993274428597  0.6754561956689145  1.0000
  H   H15       1.0  0.8388526142666046  0.6947407412136796  0.8686918241903474  1.0000
  H   H16       1.0  0.024928900260979825  0.6906646857698013  0.7729754696839597  1.0000
  H   H17       1.0  0.9779047934016757  0.7039929816293184  0.9647511250230959  1.0000
  C   C22       1.0  0.015368256955448967  0.5351784255842111  0.9892864264256646  1.0000
  C   C23       1.0  0.08392279120518165  0.5944066839892113  0.057832273769717  1.0000
  C   C24       1.0  0.14781227899732063  0.6645186922595849  0.9780616352902531  1.0000
  C   C25       1.0  0.14337627811303144  0.6757581831599048  0.8266885782193629  1.0000
  C   C26       1.0  0.07656690891785356  0.6156137714671216  0.7567892493796959  1.0000
  C   C27       1.0  0.012681490548785092  0.5428834500285822  0.8358818995438904  1.0000
  O   O1        1.0  0.21408209662972144  0.7220274896334931  0.053242428646576474  1.0000
  C   C28       1.0  0.28309823422222546  0.7962290929060287  0.9862016002522652  1.0000
  H   H18       1.0  0.8167437607264362  0.4514855083965796  0.10076788369615364  1.0000
  H   H19       1.0  0.19166671433056304  0.7296413142564082  0.7617998816219718  1.0000
  H   H20       1.0  0.07593610873159085  0.6230620531522153  0.6397432010857202  1.0000
  H   H21       1.0  0.8801903816141179  0.4807890956685268  0.5607215619242809  1.0000
  H   H22       1.0  0.26128093866272045  0.8943588360704755  0.9223252208007816  1.0000
  H   H23       1.0  0.31743233738795906  0.7238098150215742  0.91532963597022  1.0000
  H   H24       1.0  0.3259296062213046  0.8296474958703315  0.07101209850963763  1.0000
  Zn  Zn1       1.0  0.9227520981031669  0.5412772605717455  0.4129771676950479  1.0000
  Zn  Zn2       1.0  0.1052896909485872  0.5367841639790527  0.4121905499427023  1.0000
  C   C29       1.0  0.01315556384772609  0.5356826051286208  0.6758323260479548  1.0000
  C   C30       1.0  0.014888228175630623  0.5423805910626568  0.14933553237563335  1.0000
  C   C31       1.0  0.015503094261601688  0.8023415993885126  0.40798288521366866  1.0000
  C   C32       1.0  0.012540625598251866  0.27571986657621944  0.4171850428114272  1.0000
  O   O2        1.0  0.08399915633760126  0.5430863059756852  0.2027509297629162  1.0000
  O   O3        1.0  0.082586440291746  0.5315656422678123  0.6218194843194635  1.0000
  O   O4        1.0  0.08448116221222968  0.746896189122956  0.40552917629703567  1.0000
  O   O5        1.0  0.08210437252975655  0.32775576998532774  0.4190411300181971  1.0000
  O   O6        1.0  0.9459373542309085  0.7503056561002447  0.406126587880412  1.0000
  O   O7        1.0  0.9440426421828386  0.5349768410064204  0.6224168265621908  1.0000
  O   O8        1.0  0.9454553635047549  0.5464974386905664  0.20334653872162844  1.0000
  O   O9        1.0  0.9435605792931826  0.3311668933701971  0.4196368470049155  1.0000
