data_image0
_chemical_formula_structural       NC10NC3NH7C12ClH9C12IH9Zn2C4O8
_chemical_formula_sum              "N3 C41 H25 Cl1 I1 Zn2 O8"
_cell_length_a       19.210446455230148
_cell_length_b       10.299768534541528
_cell_length_c       10.299773350644648
_cell_angle_alpha    85.54596918474078
_cell_angle_beta     89.99988081382295
_cell_angle_gamma    89.96529235611058

_space_group_name_H-M_alt    "P 1"
_space_group_IT_number       1

loop_
  _space_group_symop_operation_xyz
  'x, y, z'

loop_
  _atom_site_type_symbol
  _atom_site_label
  _atom_site_symmetry_multiplicity
  _atom_site_fract_x
  _atom_site_fract_y
  _atom_site_fract_z
  _atom_site_occupancy
  N   N1        1.0  0.6555847958542307  0.420583089914365  0.5674202172175284  1.0000
  C   C1        1.0  0.5953564674643557  0.4227904785262335  0.5676515140387872  1.0000
  C   C2        1.0  0.5205523018149781  0.4255272362551316  0.5679380620803498  1.0000
  C   C3        1.0  0.48495330047149626  0.5417501701793854  0.5830576589104763  1.0000
  C   C4        1.0  0.4122878284639633  0.5419017194181912  0.583005072012599  1.0000
  C   C5        1.0  0.3753856188953396  0.42623615862956843  0.568024592909821  1.0000
  C   C6        1.0  0.2980633557783706  0.42487976338949207  0.5678739096430832  1.0000
  C   C7        1.0  0.26031132685477487  0.5284668992968102  0.5045194073660717  1.0000
  C   C8        1.0  0.1875328381196292  0.5270647374869608  0.5044102385778484  1.0000
  C   C9        1.0  0.1515049841239846  0.42233295840717755  0.5676045929043287  1.0000
  C   C10       1.0  0.0765753364616828  0.42103095162672566  0.5674676765531415  1.0000
  N   N2        1.0  0.0163373815471486  0.41998409395702097  0.5673576306795396  1.0000
  C   C11       1.0  0.188533363760312  0.3188715193786571  0.6309340953350147  1.0000
  C   C12       1.0  0.2613136830635927  0.31999940495598755  0.6310934911918376  1.0000
  C   C13       1.0  0.4135946710762664  0.31183334625932774  0.5531932827051957  1.0000
  N   N3        1.0  0.4843648476808655  0.3142782077550976  0.5533590103135879  1.0000
  H   H1        1.0  0.5130632944534651  0.631177805746338  0.5951120885844295  1.0000
  H   H2        1.0  0.3850282073331928  0.631910779673969  0.5964542583747969  1.0000
  H   H3        1.0  0.2870398815889124  0.6097337142221417  0.453534501220604  1.0000
  H   H4        1.0  0.1593877767351517  0.607503462833427  0.45475566403477474  1.0000
  H   H5        1.0  0.1611649997278833  0.23746945235821124  0.6804891204518733  1.0000
  H   H6        1.0  0.2888140414159328  0.23967942364564077  0.6821857937788898  1.0000
  H   H7        1.0  0.3873200191627162  0.2209614015487977  0.5396977911130874  1.0000
  C   C14       1.0  0.8358987604347922  0.03891831852007055  0.5673868143279257  1.0000
  C   C15       1.0  0.8404715594378034  0.04851558135738453  0.430917316597651  1.0000
  C   C16       1.0  0.8428555539857132  0.9362391103197308  0.36177451399564453  1.0000
  C   C17       1.0  0.8406045090140859  0.8132276387227412  0.43093278346200775  1.0000
  C   C18       1.0  0.8360300724514603  0.8016388495845759  0.5674022194267876  1.0000
  C   C19       1.0  0.8337033278914016  0.9150414796057688  0.6348650050038873  1.0000
  C   C20       1.0  0.8476941196609358  0.947445880606532  0.21740116188979597  1.0000
  C   C21       1.0  0.8080867684577753  0.04107308559571333  0.14294435144127227  1.0000
  C   C22       1.0  0.812702986491822  0.05142531698291397  0.007064023517968421  1.0000
  C   C23       1.0  0.8568591875366467  0.9686730754594849  0.943948662659249  1.0000
  C   C24       1.0  0.896455000522363  0.8753585676704597  0.016894257049101972  1.0000
  C   C25       1.0  0.8919623998375316  0.8646138755966741  0.15278920676487084  1.0000
  Cl  Cl1       1.0  0.862573357925708  0.9819076617176499  0.7734629508826787  1.0000
  H   H8        1.0  0.8341205822241312  0.3627150994773325  0.619385163933255  1.0000
  H   H9        1.0  0.8431507242828769  0.14353863208773943  0.37818434798626255  1.0000
  H   H10       1.0  0.8414670614534812  0.7264076113905322  0.3779865750930651  1.0000
  H   H11       1.0  0.8301749189846552  0.90686944556995  0.740144940548584  1.0000
  H   H12       1.0  0.8343147141277824  0.46976918515677746  0.6194083591023745  1.0000
  H   H13       1.0  0.7728953910490833  0.10509402258172404  0.18969384762661456  1.0000
  H   H14       1.0  0.7817919341132247  0.12360665780305656  0.9509577183458404  1.0000
  H   H15       1.0  0.9308699245234353  0.8112927895161838  0.9684554203543859  1.0000
  H   H16       1.0  0.9237566334212859  0.7927248062387271  0.20740105598369407  1.0000
  C   C26       1.0  0.8359312449812137  0.4203847373159304  0.1860253518295536  1.0000
  C   C27       1.0  0.8990435696048302  0.4892828344137823  0.17967858827132233  1.0000
  C   C28       1.0  0.9310565305318175  0.5240861574406643  0.059332589340465924  1.0000
  C   C29       1.0  0.8991104910481168  0.48906856873133253  0.9444089589485083  1.0000
  C   C30       1.0  0.8359975838024851  0.4201724775288788  0.9487637644466549  1.0000
  C   C31       1.0  0.80476163642578  0.38621529408992217  0.07004008461467515  1.0000
  C   C32       1.0  0.9978238311174896  0.5969722759022034  0.05367226080059706  1.0000
  C   C33       1.0  0.008791624297759927  0.6999722377336468  0.13348306966492895  1.0000
  C   C34       1.0  0.07166941861149545  0.7684594583515274  0.1279537260491037  1.0000
  C   C35       1.0  0.12427835400933174  0.7350128034816328  0.04295457393448232  1.0000
  C   C36       1.0  0.11398217630193822  0.6328979160077259  0.9632864071268562  1.0000
  C   C37       1.0  0.05117495917542203  0.5641846083333922  0.9684097922689804  1.0000
  I   I1        1.0  0.21907539472642523  0.8384932802033381  0.03492198812957392  1.0000
  H   H17       1.0  0.811862362452482  0.3941964717025612  0.5158922507935215  1.0000
  H   H18       1.0  0.9239395634868066  0.5144882570338969  0.2686516480234986  1.0000
  H   H19       1.0  0.9230882097844606  0.5172162144576673  0.8512925699108012  1.0000
  H   H20       1.0  0.7560729606832927  0.3330646854756474  0.07416796439636553  1.0000
  H   H21       1.0  0.8119595122450297  0.3938841716888039  0.6229723879535175  1.0000
  H   H22       1.0  0.9684328930250706  0.7286169006504748  0.19888135148757358  1.0000
  H   H23       1.0  0.07938689075587146  0.8477228761939513  0.18953986044470716  1.0000
  H   H24       1.0  0.1546831656885701  0.6064888930707397  0.8975969705952207  1.0000
  H   H25       1.0  0.044667059479336135  0.48437830044646674  0.9069843470262305  1.0000
  Zn  Zn1       1.0  0.7596901986167228  0.4204067665127295  0.5674096550970216  1.0000
  Zn  Zn2       1.0  0.9122319619478615  0.420149831952189  0.5673788283705143  1.0000
  C   C38       1.0  0.8359825972647165  0.41503896998165235  0.8045897375486237  1.0000
  C   C39       1.0  0.8359412293443569  0.42551926424603637  0.33019887308202156  1.0000
  C   C40       1.0  0.8360012128106687  0.6574699152063916  0.5622241697684505  1.0000
  C   C41       1.0  0.835922561483976  0.1830867588019993  0.5725645100797863  1.0000
  O   O1        1.0  0.8938333834185553  0.427139287374165  0.3785731251589044  1.0000
  O   O2        1.0  0.8938661117815361  0.41322295985801144  0.7561917148334552  1.0000
  O   O3        1.0  0.8938803638189914  0.608989015023367  0.5604798042594221  1.0000
  O   O4        1.0  0.8938190793220598  0.23137324161371528  0.5742849383689073  1.0000
  O   O5        1.0  0.7781030291875065  0.609183356940298  0.5605035451023175  1.0000
  O   O6        1.0  0.7780887774094623  0.41341886208333506  0.7562153864624481  1.0000
  O   O7        1.0  0.7780560489491914  0.4273351447783998  0.37859523538516693  1.0000
  O   O8        1.0  0.7780417448567184  0.23156908970213919  0.5743071459628888  1.0000
