data_image0
_chemical_formula_structural       NC6NCNCH5C6BrH3C6SCH6Zn2C4O8
_chemical_formula_sum              "N3 C25 H14 Br1 S1 Zn2 O8"
_cell_length_a       14.933214217465613
_cell_length_b       9.276564384272257
_cell_length_c       10.302812801239593
_cell_angle_alpha    85.51203806162957
_cell_angle_beta     89.96595459003231
_cell_angle_gamma    90.62004099175812

_space_group_name_H-M_alt    "P 1"
_space_group_IT_number       1

loop_
  _space_group_symop_operation_xyz
  'x, y, z'

loop_
  _atom_site_type_symbol
  _atom_site_label
  _atom_site_symmetry_multiplicity
  _atom_site_fract_x
  _atom_site_fract_y
  _atom_site_fract_z
  _atom_site_occupancy
  N   N1        1.0  0.8532662984654157  0.5791162494328146  0.5659477843594527  1.0000
  C   C1        1.0  0.7757823693305101  0.5801129639376514  0.565054905828881  1.0000
  C   C2        1.0  0.6793918215863882  0.5813556123193027  0.5639415967523664  1.0000
  C   C3        1.0  0.6309591475970362  0.4855895053307262  0.6497483260770891  1.0000
  C   C4        1.0  0.5374326011487471  0.4866724136202485  0.6487780634787979  1.0000
  C   C5        1.0  0.49143602621372473  0.5834665597090027  0.5620502409294645  1.0000
  C   C6        1.0  0.3948471042988759  0.5813577690631658  0.5639397299670579  1.0000
  N   N2        1.0  0.3173502886846927  0.5795985717726162  0.5655156451429149  1.0000
  C   C7        1.0  0.539975147060586  0.6804419314895461  0.47516012190196255  1.0000
  N   N3        1.0  0.49530249402545284  0.78104823341781  0.38501680734599675  1.0000
  C   C8        1.0  0.6339759147225515  0.678392859191411  0.47699620177991703  1.0000
  H   H1        1.0  0.6654771456672567  0.410084370466051  0.7174011227845738  1.0000
  H   H2        1.0  0.5008736277583921  0.41180243971557773  0.7158616389373089  1.0000
  H   H3        1.0  0.5321094113880495  0.8521060717383854  0.3213487268047803  1.0000
  H   H4        1.0  0.4255950197207911  0.7864013467071513  0.38022046551721655  1.0000
  H   H5        1.0  0.6716545396679258  0.7525095179731522  0.41058745107562095  1.0000
  C   C9        1.0  0.08261459310667973  0.1558736275333441  0.566066232266724  1.0000
  C   C10       1.0  0.07113886012463412  0.2393609959352536  0.44741733670734035  1.0000
  C   C11       1.0  0.06799703289457432  0.17436886745095154  0.32986902114349514  1.0000
  C   C12       1.0  0.07631104267566391  0.024970347058843156  0.32873756408747146  1.0000
  C   C13       1.0  0.08620920870608284  0.9397880102396042  0.44559359530367426  1.0000
  C   C14       1.0  0.0880104865132825  0.0028300376253920256  0.5654084129054502  1.0000
  Br  Br1       1.0  0.07267132714742225  0.936608798023438  0.1674401118584583  1.0000
  H   H6        1.0  0.05994999288793059  0.24058074190886633  0.2394433779678722  1.0000
  H   H7        1.0  0.09035251892656614  0.8235523337874292  0.4427906573293859  1.0000
  H   H8        1.0  0.13740981118573742  0.7049487031489267  0.7675665289970353  1.0000
  C   C15       1.0  0.08531256469244514  0.5793518549869761  0.18448888402079877  1.0000
  C   C16       1.0  0.05602897909344563  0.7231327309775835  0.1732080332178394  1.0000
  C   C17       1.0  0.04122617284245589  0.7944606150455746  0.05061983292739214  1.0000
  C   C18       1.0  0.056028897398901385  0.7231325795117642  0.9380568637213296  1.0000
  C   C19       1.0  0.08531250654623368  0.579351845208196  0.946985787711968  1.0000
  C   C20       1.0  0.09978353235385184  0.5081514057705212  0.07074135026653106  1.0000
  S   S1        1.0  0.00399665522857573  0.9782689116734562  0.03770147830832804  1.0000
  C   C21       1.0  0.8858850495885077  0.9277615528354832  0.04136242071228646  1.0000
  H   H9        1.0  0.044396318728805895  0.7802429039911947  0.25929389081861  1.0000
  H   H10       1.0  0.044396138120859734  0.7802426960690549  0.8439435781647813  1.0000
  H   H11       1.0  0.12235496055619023  0.3972372660713903  0.07853637414701042  1.0000
  H   H12       1.0  0.8695972073206547  0.8635911875550054  0.9577807079114962  1.0000
  H   H13       1.0  0.8695976001363058  0.8635926453705494  0.13401539845599708  1.0000
  H   H14       1.0  0.845074192819596  0.02725649372175943  0.03438720076456736  1.0000
  Zn  Zn1       1.0  0.9871908892300822  0.5792515677310085  0.5658305864154218  1.0000
  Zn  Zn2       1.0  0.18342560788490947  0.5794514228273093  0.5656435137982083  1.0000
  C   C22       1.0  0.08527392104537479  0.5736068274293329  0.8028620229127461  1.0000
  C   C23       1.0  0.08534473053898561  0.5850979848849303  0.32861220127110413  1.0000
  C   C24       1.0  0.08698593565082757  0.8427372653582498  0.5603592571273082  1.0000
  C   C25       1.0  0.08363263793403244  0.3159658142798867  0.5711150376827414  1.0000
  O   O1        1.0  0.15982553865252447  0.5870959911243563  0.3769103149259043  1.0000
  O   O2        1.0  0.15973071689755727  0.5717594186697041  0.7544215525870022  1.0000
  O   O3        1.0  0.16111218645080935  0.7890856498937909  0.5585988532604487  1.0000
  O   O4        1.0  0.15844400220338595  0.36976977014822277  0.5727329169643687  1.0000
  O   O5        1.0  0.012172427946336889  0.7889332203434644  0.5587411833062703  1.0000
  O   O6        1.0  0.010790969427316272  0.5716087217288739  0.7545638120636322  1.0000
  O   O7        1.0  0.010885790921789873  0.5869452439300062  0.37705101353398573  1.0000
  O   O8        1.0  0.009504254403269075  0.36961901263928887  0.5728737129175479  1.0000
