data_image0
_chemical_formula_structural       NC9NC4H8C7F3H5C7ONH7Zn2C4O8
_chemical_formula_sum              "N3 C31 H20 F3 O9 Zn2"
_cell_length_a       16.32274767691083
_cell_length_b       9.272718291674593
_cell_length_c       10.297855452804892
_cell_angle_alpha    85.97219489806729
_cell_angle_beta     89.4600573046752
_cell_angle_gamma    89.10298441660798

_space_group_name_H-M_alt    "P 1"
_space_group_IT_number       1

loop_
  _space_group_symop_operation_xyz
  'x, y, z'

loop_
  _atom_site_type_symbol
  _atom_site_label
  _atom_site_symmetry_multiplicity
  _atom_site_fract_x
  _atom_site_fract_y
  _atom_site_fract_z
  _atom_site_occupancy
  N   N1        1.0  0.7649921193283292  0.568171898554152  0.5673340971177088  1.0000
  C   C1        1.0  0.7128917983048244  0.5155228935096249  0.5126700973572241  1.0000
  C   C2        1.0  0.6481303131120183  0.4501324193541426  0.44477697262088806  1.0000
  C   C3        1.0  0.6600826769409948  0.36068992145284695  0.3519069669658021  1.0000
  C   C4        1.0  0.5809120757758963  0.3170415068080346  0.30658946779776364  1.0000
  C   C5        1.0  0.5216936589754483  0.3809199526729232  0.372918080264502  1.0000
  C   C6        1.0  0.43183159885591493  0.36403745232121354  0.35539155324765237  1.0000
  C   C7        1.0  0.37590303813546194  0.4384919090895559  0.4326944399291457  1.0000
  C   C8        1.0  0.29125898571807585  0.4240633130591398  0.41771516103699136  1.0000
  C   C9        1.0  0.2349082736931261  0.5008066370372259  0.4973937129068233  1.0000
  N   N2        1.0  0.1896212991112418  0.5624956412442543  0.5614417760369442  1.0000
  C   C10       1.0  0.2614909936348159  0.3350598442999345  0.3253086002715199  1.0000
  C   C11       1.0  0.3160971953346727  0.260704007776954  0.24810844826308462  1.0000
  C   C12       1.0  0.4005841880365346  0.274743964177077  0.2626840979813012  1.0000
  C   C13       1.0  0.5590315534256115  0.47406178104056146  0.4696265576290936  1.0000
  H   H1        1.0  0.71914560775986  0.32590995254830585  0.3157919428847884  1.0000
  H   H2        1.0  0.5729434599073854  0.2439402648147131  0.2306867431577266  1.0000
  H   H3        1.0  0.3977049618116009  0.5079741208398305  0.5048334454366814  1.0000
  H   H4        1.0  0.19615235519674762  0.3231736701645985  0.31296900609174  1.0000
  H   H5        1.0  0.2928964107501866  0.19185152698772923  0.17662351010254973  1.0000
  H   H6        1.0  0.440631257704949  0.21526408108559156  0.2009293401602712  1.0000
  H   H7        1.0  0.5424101310862661  0.43545134192618073  0.5708834341152824  1.0000
  H   H8        1.0  0.5417666109855939  0.5896039653246254  0.4482495651550648  1.0000
  C   C14       1.0  0.9790952305412007  0.141928094822815  0.5614938427721656  1.0000
  C   C15       1.0  0.9291581960988614  0.22393758263891722  0.4724222840781484  1.0000
  C   C16       1.0  0.8734228223800696  0.15717692091659566  0.3936799136539211  1.0000
  C   C17       1.0  0.8697961735948089  0.0059342473475692045  0.4013240616457212  1.0000
  C   C18       1.0  0.9197946895747642  0.922965790299952  0.4875840863201786  1.0000
  C   C19       1.0  0.9755260710312245  0.9887281909959577  0.5672931255669609  1.0000
  C   C20       1.0  0.8219961328022835  0.24680634970176785  0.29636561225640734  1.0000
  F   F1        1.0  0.8009385995622244  0.37849165343133917  0.3438639000772228  1.0000
  F   F2        1.0  0.7504762441160334  0.17637083641978313  0.27022068788877646  1.0000
  F   F3        1.0  0.866205481905381  0.27103469292689963  0.18197422627256518  1.0000
  H   H9        1.0  0.07635822498005518  0.21922951290239157  0.8404631205612961  1.0000
  H   H10       1.0  0.9324291925685287  0.3408646617553708  0.46633145158032446  1.0000
  H   H11       1.0  0.828847111979331  0.9514094358912297  0.33943115226181253  1.0000
  H   H12       1.0  0.9164504425067662  0.806240834791461  0.4893780880334072  1.0000
  H   H13       1.0  0.1514055280550639  0.8704123007458734  0.7211862352667262  1.0000
  C   C21       1.0  0.9773421953612116  0.5654710455786145  0.18295198791633283  1.0000
  C   C22       1.0  0.8933860430330356  0.601351190513137  0.1809638912695335  1.0000
  C   C23       1.0  0.850628041163875  0.6183102985367922  0.06295173548726907  1.0000
  C   C24       1.0  0.8932877846526434  0.6010281759974625  0.9457301398877632  1.0000
  C   C25       1.0  0.9772791112844954  0.5651852033418694  0.9458349219123341  1.0000
  C   C26       1.0  0.018708383828911268  0.5473092905364441  0.06491387252719227  1.0000
  C   C27       1.0  0.76201369331794  0.6565484550163619  0.06342902442217602  1.0000
  O   O1        1.0  0.7314346121632578  0.7184769089394232  0.15808061297629128  1.0000
  N   N3        1.0  0.7097523959588313  0.6231547931788359  0.9592986885423538  1.0000
  H   H14       1.0  0.1360815881863937  0.4981734939947509  0.393944023275689  1.0000
  H   H15       1.0  0.860934654739065  0.6149296628887441  0.27166115988642153  1.0000
  H   H16       1.0  0.8617440249623152  0.6180744745932979  0.8538895240570968  1.0000
  H   H17       1.0  0.08341372041898043  0.519652483915821  0.06569269870924321  1.0000
  H   H18       1.0  0.13632204333221254  0.4997079984279684  0.738609777058056  1.0000
  H   H19       1.0  0.6484365947828246  0.6569991261996133  0.9592873775531103  1.0000
  H   H20       1.0  0.7295032796857452  0.5571162918780217  0.8868903330120926  1.0000
  Zn  Zn1       1.0  0.8875309500160756  0.5665299807201469  0.5656411754488899  1.0000
  Zn  Zn2       1.0  0.06708252358489863  0.5641257234479078  0.5631452578819706  1.0000
  C   C28       1.0  0.9773134237929032  0.5594953421449341  0.801594413667311  1.0000
  C   C29       1.0  0.9773020028272957  0.5711621549586152  0.32719213235781  1.0000
  C   C30       1.0  0.9761969402295364  0.8286669484014652  0.561020805843675  1.0000
  C   C31       1.0  0.9784184324178895  0.3019888172084295  0.567765798421499  1.0000
  O   O2        1.0  0.04542742678677025  0.5721534498984802  0.3746532116950256  1.0000
  O   O3        1.0  0.045463494247032  0.5566781839930877  0.7522386092821272  1.0000
  O   O4        1.0  0.04456100099329974  0.7740376719784519  0.5579737419022264  1.0000
  O   O5        1.0  0.046329858736292806  0.35479397308425675  0.5689179826040549  1.0000
  O   O6        1.0  0.9082835535925359  0.7758617319058256  0.5598684515717179  1.0000
  O   O7        1.0  0.9091860395468953  0.5585039762361436  0.754133261556478  1.0000
  O   O8        1.0  0.9091499724820219  0.5739791924815263  0.376546301926761  1.0000
  O   O9        1.0  0.910052404463608  0.3566197053181892  0.5708111701515748  1.0000
