data_image0
_chemical_formula_structural       NC5N2C2NH4C6NH7C7NH4Zn2C4O8
_chemical_formula_sum              "N6 C24 H15 Zn2 O8"
_cell_length_a       13.87973921873968
_cell_length_b       9.274771166103582
_cell_length_c       9.275157849593903
_cell_angle_alpha    86.00874675488272
_cell_angle_beta     89.74088206282475
_cell_angle_gamma    90.59705032410349

_space_group_name_H-M_alt    "P 1"
_space_group_IT_number       1

loop_
  _space_group_symop_operation_xyz
  'x, y, z'

loop_
  _atom_site_type_symbol
  _atom_site_label
  _atom_site_symmetry_multiplicity
  _atom_site_fract_x
  _atom_site_fract_y
  _atom_site_fract_z
  _atom_site_occupancy
  N   N1        1.0  0.9229319161666883  0.5633170667881782  0.40751307278279403  1.0000
  C   C1        1.0  0.8501611113305234  0.5873129244621784  0.3508452056672893  1.0000
  C   C2        1.0  0.7597824795966687  0.6171181201568786  0.28045759145710747  1.0000
  C   C3        1.0  0.6729125706411974  0.5871198638116926  0.3536920242587296  1.0000
  C   C4        1.0  0.5869030778754616  0.6171180558982843  0.28045763146741853  1.0000
  C   C5        1.0  0.49568398889015897  0.5873127787348935  0.3508451027334305  1.0000
  N   N2        1.0  0.42223648488033394  0.5633170420535614  0.40751306183745417  1.0000
  N   N3        1.0  0.5893600060472186  0.6744358363350823  0.14163199045171226  1.0000
  C   C6        1.0  0.6745791656268477  0.7043988134172516  0.07243987672709395  1.0000
  C   C7        1.0  0.675455299406925  0.7634481035932196  0.9186217847418265  1.0000
  N   N4        1.0  0.7589629043516967  0.6744357897645259  0.14163200128508535  1.0000
  H   H1        1.0  0.6722584399103263  0.5412551809951063  0.46447763065809106  1.0000
  H   H2        1.0  0.7409964576159833  0.8311194722763864  0.896107759078836  1.0000
  H   H3        1.0  0.6750426065644465  0.6727896088162728  0.8465853906828337  1.0000
  H   H4        1.0  0.610991625170685  0.8311174007109271  0.8961069970469476  1.0000
  C   C8        1.0  0.16962859117814763  0.1397280610909608  0.40829857208590314  1.0000
  C   C9        1.0  0.14783908555504843  0.22179516921113016  0.2794263269405364  1.0000
  C   C10       1.0  0.13504736099559422  0.15549626171897413  0.14973644330000013  1.0000
  C   C11       1.0  0.14409842591305133  0.005743722687927108  0.1479794488620505  1.0000
  C   C12       1.0  0.16411157818422503  0.922340130056751  0.275081366144166  1.0000
  C   C13       1.0  0.17554892015564968  0.9868950838502347  0.4067400896953141  1.0000
  N   N5        1.0  0.11385397668132269  0.24064922136675304  0.019447817509509188  1.0000
  H   H5        1.0  0.2771251586662302  0.22242705527064263  0.7236886039219403  1.0000
  H   H6        1.0  0.14298288734429976  0.33838254423395075  0.27887275758817753  1.0000
  H   H7        1.0  0.13471248094259347  0.9532951190080178  0.04819616784784552  1.0000
  H   H8        1.0  0.16836969648213485  0.8061363494821587  0.270954108335057  1.0000
  H   H9        1.0  0.2440408887704888  0.691896149129766  0.6213169807310172  1.0000
  H   H10       1.0  0.10721606423941421  0.35272267219193937  0.019401010650408772  1.0000
  H   H11       1.0  0.10455173222640508  0.19224065937131704  0.9220345081428971  1.0000
  C   C14       1.0  0.17383866352723154  0.5592342491199024  0.9843290464151204  1.0000
  C   C15       1.0  0.2572087164829142  0.6062582301392971  0.0539385703272508  1.0000
  C   C16       1.0  0.33571580884103525  0.6646247708331432  0.9739530302116813  1.0000
  C   C17       1.0  0.33176979532911055  0.6768952378949903  0.8232715093864206  1.0000
  C   C18       1.0  0.2503723805912872  0.6287031981580298  0.7523225924822281  1.0000
  C   C19       1.0  0.1713388597820069  0.5673888204843172  0.830709615186301  1.0000
  C   C20       1.0  0.42004419103190926  0.7136575659382581  0.04686645070321794  1.0000
  N   N6        1.0  0.4878226131499621  0.7530667119100702  0.10547654963081565  1.0000
  H   H12       1.0  0.9390809947746027  0.5105989262100079  0.09225612676041584  1.0000
  H   H13       1.0  0.392082614856736  0.722522385812741  0.7603647741902693  1.0000
  H   H14       1.0  0.2502122404439735  0.63628685419803  0.6352442012517963  1.0000
  H   H15       1.0  0.014245170103400984  0.5285869320513321  0.5533744948414743  1.0000
  Zn  Zn1       1.0  0.06702037858232043  0.5633132744591958  0.40752140146773597  1.0000
  Zn  Zn2       1.0  0.2781478906277315  0.5633091322177453  0.4075165684625637  1.0000
  C   C21       1.0  0.17176904579948649  0.5601010221395359  0.6707361111298042  1.0000
  C   C22       1.0  0.17340154121767792  0.5665232058808134  0.14430199684402956  1.0000
  C   C23       1.0  0.17444184250203976  0.8267071234700123  0.40129196425704444  1.0000
  C   C24       1.0  0.17072866013402432  0.2999153722533552  0.41374622373808617  1.0000
  O   O1        1.0  0.2533765855207464  0.5689615814188145  0.1979885578556857  1.0000
  O   O2        1.0  0.2520348916014208  0.5576584105548259  0.6170454691385359  1.0000
  O   O3        1.0  0.25419212423500354  0.7729462235319484  0.3994674114422285  1.0000
  O   O4        1.0  0.2512192812348961  0.35367377772076186  0.41556650748177315  1.0000
  O   O5        1.0  0.09394891592773091  0.7729486289590903  0.3994714624425926  1.0000
  O   O6        1.0  0.09179169562782352  0.5576625482818593  0.6170494401116692  1.0000
  O   O7        1.0  0.09313339437735135  0.568965652186439  0.19799079629560754  1.0000
  O   O8        1.0  0.09097608969634385  0.35367783921222706  0.41556885398598165  1.0000
