data_image0
_chemical_formula_structural       NC5N2C2NH4C6ClH5C9H8Zn2C4O8
_chemical_formula_sum              "N4 C26 H17 Cl1 Zn2 O8"
_cell_length_a       13.87973921873968
_cell_length_b       9.276545438789551
_cell_length_c       9.273585224739815
_cell_angle_alpha    86.17382153224601
_cell_angle_beta     90.10207289864502
_cell_angle_gamma    89.40960813042831

_space_group_name_H-M_alt    "P 1"
_space_group_IT_number       1

loop_
  _space_group_symop_operation_xyz
  'x, y, z'

loop_
  _atom_site_type_symbol
  _atom_site_label
  _atom_site_symmetry_multiplicity
  _atom_site_fract_x
  _atom_site_fract_y
  _atom_site_fract_z
  _atom_site_occupancy
  N   N1        1.0  0.8945855644264796  0.5619603882619568  0.41108658849409285  1.0000
  C   C1        1.0  0.8212440264741002  0.585919248933298  0.35446947014391617  1.0000
  C   C2        1.0  0.7301564860337935  0.6156784904429828  0.2841448907742279  1.0000
  C   C3        1.0  0.644010141218743  0.5857276859004457  0.3573161848022282  1.0000
  C   C4        1.0  0.5572770853706245  0.6156784262273818  0.28414493063441326  1.0000
  C   C5        1.0  0.46676690561800005  0.585919103206314  0.35446936684494434  1.0000
  N   N2        1.0  0.39389013343649437  0.561960363530666  0.411086577487612  1.0000
  N   N3        1.0  0.5583561422878895  0.6729060942406229  0.14544006961005018  1.0000
  C   C6        1.0  0.6428692407574984  0.7028236608824754  0.07631152404426955  1.0000
  C   C7        1.0  0.6422804263280342  0.7617746967313619  0.9226164859718685  1.0000
  N   N4        1.0  0.7279590412827139  0.6729060476921089  0.14544008033231015  1.0000
  H   H1        1.0  0.6444572951699236  0.5399349587802367  0.468005106949039  1.0000
  H   H2        1.0  0.7067899423008461  0.8294106363685343  0.9002630566823219  1.0000
  H   H3        1.0  0.6428196475248222  0.6711123739989693  0.8503519327034437  1.0000
  H   H4        1.0  0.5767851353279053  0.8294085651592796  0.9002622895494873  1.0000
  C   C8        1.0  0.14714993457138467  0.13852281589500604  0.41084899410160025  1.0000
  C   C9        1.0  0.14735630920561604  0.22082645762225628  0.27781563385135954  1.0000
  C   C10       1.0  0.13880078484844827  0.15442857580123115  0.14767776824511225  1.0000
  C   C11       1.0  0.1298375773140299  0.004846485053406454  0.14857112375885584  1.0000
  C   C12       1.0  0.1311147277635227  0.9209796885014723  0.27916265502575555  1.0000
  C   C13       1.0  0.1413350872828858  0.9853869848149278  0.411336656637064  1.0000
  Cl  Cl1       1.0  0.13785848491402006  0.2593828743824257  0.9831304862365213  1.0000
  H   H5        1.0  0.19669434726605273  0.40377766373158447  0.6374524654265687  1.0000
  H   H6        1.0  0.151867369256369  0.33751811144047217  0.2749620171200271  1.0000
  H   H7        1.0  0.12279716355067305  0.9531048232116067  0.047888700189233635  1.0000
  H   H8        1.0  0.1264013743744168  0.8046923713775683  0.2765123049219804  1.0000
  H   H9        1.0  0.10931531132073456  0.6890127139892613  0.6444013791938727  1.0000
  C   C14       1.0  0.1437676041472693  0.5576666363223589  0.9878388269122191  1.0000
  C   C15       1.0  0.22996900558434596  0.5255514316131167  0.06377711059522162  1.0000
  C   C16       1.0  0.31738518390461334  0.5064143004776387  0.9915057204663991  1.0000
  C   C17       1.0  0.31781090486122143  0.5202030817838619  0.8394544346890376  1.0000
  C   C18       1.0  0.23265775407386835  0.5496071909925564  0.762510870511603  1.0000
  C   C19       1.0  0.14471739885821022  0.5662431172334284  0.8343468061834858  1.0000
  C   C20       1.0  0.4069118769826403  0.4733468033051551  0.08300188856347912  1.0000
  C   C21       1.0  0.48292794333295475  0.37441065608432544  0.022706978843691997  1.0000
  C   C22       1.0  0.5017958682903825  0.53563664758537  0.02670370059524353  1.0000
  H   H10       1.0  0.2295578728359775  0.5185925870595329  0.18094261217374696  1.0000
  H   H11       1.0  0.38324590823769644  0.5071743946287359  0.7785126078913436  1.0000
  H   H12       1.0  0.0006968975022210144  0.6686980752630909  0.5457356791076107  1.0000
  H   H13       1.0  0.4006434128155121  0.4640471963181382  0.20275838236182908  1.0000
  H   H14       1.0  0.47022410893182054  0.33730545024674213  0.9131077761051092  1.0000
  H   H15       1.0  0.5233768810464241  0.3068985083978446  0.10618939959872442  1.0000
  H   H16       1.0  0.5005102921396691  0.5962899075566277  0.9195194771037541  1.0000
  H   H17       1.0  0.5532631196458981  0.562380123406562  0.1125265928931718  1.0000
  Zn  Zn1       1.0  0.03867411440154145  0.561956601465254  0.4110949090788094  1.0000
  Zn  Zn2       1.0  0.2498016634516227  0.5619524582751853  0.4110900654526506  1.0000
  C   C23       1.0  0.14457515600531745  0.5588775982805068  0.6743353677271651  1.0000
  C   C24       1.0  0.1439029150203659  0.565033282223186  0.14784974926492  1.0000
  C   C25       1.0  0.1424227949629957  0.8252534056850477  0.405500915662937  1.0000
  C   C26       1.0  0.14605521600123628  0.29865574317951094  0.4166842771762096  1.0000
  O   O1        1.0  0.224070174343868  0.5674977328359432  0.2015490347710418  1.0000
  O   O2        1.0  0.22464882825554233  0.5564089110833017  0.6206319904895905  1.0000
  O   O3        1.0  0.22290969109484315  0.7715107595496817  0.40354626928750403  1.0000
  O   O4        1.0  0.22580923926895502  0.3523958935910858  0.41863464791156435  1.0000
  O   O5        1.0  0.06266646653671915  0.7715131661522605  0.4035503266139684  1.0000
  O   O6        1.0  0.06440559171137905  0.5564130493279213  0.6206359719630656  1.0000
  O   O7        1.0  0.06382693626448832  0.5675018032754959  0.20155128332900407  1.0000
  O   O8        1.0  0.0655660013776973  0.35239995481202224  0.4186370045251633  1.0000
