data_image0
_chemical_formula_structural       NC10NC5H10C13OH12C13NH9Zn2C4O8
_chemical_formula_sum              "N3 C45 H31 O9 Zn2"
_cell_length_a       19.4436361288709
_cell_length_b       10.299150109392551
_cell_length_c       10.298528502251457
_cell_angle_alpha    85.52101086159662
_cell_angle_beta     89.70161212865115
_cell_angle_gamma    89.39953782186458

_space_group_name_H-M_alt    "P 1"
_space_group_IT_number       1

loop_
  _space_group_symop_operation_xyz
  'x, y, z'

loop_
  _atom_site_type_symbol
  _atom_site_label
  _atom_site_symmetry_multiplicity
  _atom_site_fract_x
  _atom_site_fract_y
  _atom_site_fract_z
  _atom_site_occupancy
  N   N1        1.0  0.6474404268456483  0.40991404514742147  0.5614397898807673  1.0000
  C   C1        1.0  0.5886032667576998  0.4198092729007519  0.5758223077873714  1.0000
  C   C2        1.0  0.5152724572689443  0.4321499206155373  0.5938128148602546  1.0000
  C   C3        1.0  0.4730910276325396  0.4001995538891707  0.4991376060143376  1.0000
  C   C4        1.0  0.3971847157340423  0.41063590610781286  0.5044628884913207  1.0000
  C   C5        1.0  0.35745317402122234  0.3858305424309743  0.6115572947870376  1.0000
  C   C6        1.0  0.2813315311272767  0.3897541895277674  0.598594949083997  1.0000
  C   C7        1.0  0.2407615419646306  0.4473714538546736  0.6923584388092181  1.0000
  C   C8        1.0  0.16909717470699623  0.45101496113695805  0.6818119740820281  1.0000
  C   C9        1.0  0.1370081190534242  0.3966450128217227  0.5777887149357344  1.0000
  C   C10       1.0  0.0632144915206014  0.4003498487132378  0.5670869278941597  1.0000
  N   N2        1.0  0.0038894201089796966  0.40332834228714387  0.5584834006115968  1.0000
  C   C11       1.0  0.17685335263178684  0.33832040341189695  0.4844087448303345  1.0000
  C   C12       1.0  0.24853415046522434  0.3346227984238366  0.49470341790604033  1.0000
  C   C13       1.0  0.38559714280263024  0.3452985962254135  0.7426822125651047  1.0000
  C   C14       1.0  0.44425468390153533  0.3883993679106155  0.7899164058542242  1.0000
  C   C15       1.0  0.4884427046893107  0.4863038415053109  0.7155068491193104  1.0000
  H   H1        1.0  0.4951923149727787  0.37112700497539436  0.4088289054519034  1.0000
  H   H2        1.0  0.3724794667777377  0.43318066061274285  0.41128510089510995  1.0000
  H   H3        1.0  0.2646269521296597  0.49062381269145505  0.7732027149206189  1.0000
  H   H4        1.0  0.138746718952095  0.49629531775919067  0.7547270942702655  1.0000
  H   H5        1.0  0.1525160361902917  0.29526354395816257  0.4038989294171962  1.0000
  H   H6        1.0  0.2782194029208433  0.2870985148287384  0.4224854670727616  1.0000
  H   H7        1.0  0.35464487206592044  0.2810431497001209  0.8069587443361009  1.0000
  H   H8        1.0  0.4594136012084771  0.35427865859956936  0.8878747454079522  1.0000
  H   H9        1.0  0.4583170945796263  0.5770383361103009  0.6902214942899234  1.0000
  H   H10       1.0  0.5317252929077346  0.5118591201674281  0.7785913979400708  1.0000
  C   C16       1.0  0.8257330335278781  0.025220245314437225  0.560105198179567  1.0000
  C   C17       1.0  0.8244626161075538  0.013392536424282167  0.6969431757160262  1.0000
  C   C18       1.0  0.8237586488166029  0.8902622331429603  0.7660597045038613  1.0000
  C   C19       1.0  0.8243300178581259  0.778139766377759  0.6965808360932984  1.0000
  C   C20       1.0  0.8256033925214459  0.7880119847615958  0.5598292435548271  1.0000
  C   C21       1.0  0.8262993505148213  0.9120124673583  0.49239057462574826  1.0000
  C   C22       1.0  0.8224086966899512  0.8787317503272837  0.9107286857768369  1.0000
  C   C23       1.0  0.7801144671914831  0.7866095624587292  0.9791091886698189  1.0000
  C   C24       1.0  0.778821376802901  0.7758412199593934  0.11524274445521622  1.0000
  C   C25       1.0  0.8202502558567257  0.8560276791018168  0.18545304805427287  1.0000
  C   C26       1.0  0.861886443669919  0.9491154386801196  0.11772065297078785  1.0000
  C   C27       1.0  0.8631954995946749  0.9600592833335273  0.9815866760206537  1.0000
  C   C28       1.0  0.8174145631893447  0.8468374298428033  0.33158068278388997  1.0000
  O   O1        1.0  0.7660068638800659  0.9309488147774106  0.3722526240655947  1.0000
  H   H11       1.0  0.8276841621306836  0.2548466918815804  0.301820809253383  1.0000
  H   H12       1.0  0.8230641867966199  0.10017221197284785  0.7499698266943557  1.0000
  H   H13       1.0  0.8247210814673894  0.6829904651945742  0.7494175611977667  1.0000
  H   H14       1.0  0.8272795962889578  0.9203434493236237  0.38690999551057303  1.0000
  H   H15       1.0  0.8260468838905877  0.4643345734972344  0.5072301688716825  1.0000
  H   H16       1.0  0.7472232680319137  0.7242279955095624  0.9272669252929199  1.0000
  H   H17       1.0  0.745362443378739  0.7051110454583256  0.1659019638188136  1.0000
  H   H18       1.0  0.8935107184435043  0.013073105790631034  0.17031972096561399  1.0000
  H   H19       1.0  0.8966774569624516  0.0312341654702819  0.9317340074960941  1.0000
  H   H20       1.0  0.8680054069613998  0.8737169645649798  0.3713360013827808  1.0000
  H   H21       1.0  0.8062362742535756  0.7450085966510981  0.36949059502004133  1.0000
  H   H22       1.0  0.7662591324352408  0.921230969960427  0.4688890157690213  1.0000
  C   C29       1.0  0.8256779681667532  0.406742442732046  0.17855020774029118  1.0000
  C   C30       1.0  0.7541710239382503  0.42792712681003703  0.17664596757579165  1.0000
  C   C31       1.0  0.7179449979272121  0.43852120242953246  0.05853457498734849  1.0000
  C   C32       1.0  0.7541505374684774  0.42766262477756545  0.941386530077426  1.0000
  C   C33       1.0  0.8256584585583884  0.40648980324408557  0.9413841808824058  1.0000
  C   C34       1.0  0.860964286750551  0.3961625298143945  0.060436605546098095  1.0000
  C   C35       1.0  0.6423477763630954  0.46091195098074556  0.05752908393433054  1.0000
  C   C36       1.0  0.6119655668326144  0.5494113539115122  0.1386651791964788  1.0000
  C   C37       1.0  0.5408059877169492  0.5704407183376521  0.13759924836380466  1.0000
  C   C38       1.0  0.4990817463936307  0.5033476452804204  0.05562089930659875  1.0000
  C   C39       1.0  0.5287850829494338  0.41509713831929085  0.9745943559517265  1.0000
  C   C40       1.0  0.5999373363239927  0.39397353708564914  0.9754237715865668  1.0000
  C   C41       1.0  0.4258228767314598  0.5250480968029403  0.054644168341113186  1.0000
  N   N3        1.0  0.3669276854559202  0.5424939195288512  0.05385897748938295  1.0000
  H   H23       1.0  0.9607412122008535  0.3659043358615444  0.3895365736517109  1.0000
  H   H24       1.0  0.7263930098445203  0.4344486534305305  0.26738979581944133  1.0000
  H   H25       1.0  0.726630671159532  0.4375190381235037  0.8499074167653139  1.0000
  H   H26       1.0  0.9160760700874198  0.3798397974829364  0.06116935947554448  1.0000
  H   H27       1.0  0.9608485123347333  0.3672922670756008  0.7339909579374302  1.0000
  H   H28       1.0  0.6433291638124643  0.6036045355453021  0.20168818219896711  1.0000
  H   H29       1.0  0.5183721998760208  0.6392509681482574  0.20046751323053671  1.0000
  H   H30       1.0  0.4969458613039321  0.36236302139212606  0.9110030422665369  1.0000
  H   H31       1.0  0.621696012648098  0.32404548253043575  0.9131082965947895  1.0000
  Zn  Zn1       1.0  0.7503039082442133  0.4080100794125754  0.5605941541417028  1.0000
  Zn  Zn2       1.0  0.9010259317553495  0.4052216959122026  0.5593397227154564  1.0000
  C   C42       1.0  0.8256614891638062  0.40136349957312834  0.7971941349293046  1.0000
  C   C43       1.0  0.8256699964337881  0.4118698840173245  0.3227398551191254  1.0000
  C   C44       1.0  0.825624489025398  0.6438299271751118  0.5547055916695476  1.0000
  C   C45       1.0  0.8257069454047393  0.1694018969105091  0.5652284686188555  1.0000
  O   O2        1.0  0.8828655444384435  0.41252685692942515  0.370655169829452  1.0000
  O   O3        1.0  0.8828604697099621  0.3985892284222258  0.7483263622533436  1.0000
  O   O4        1.0  0.882829820536327  0.5943839489348282  0.5525151538532946  1.0000
  O   O5        1.0  0.8828961421817737  0.21673214669155952  0.566466281267246  1.0000
  O   O6        1.0  0.7684336463837593  0.5964996295861731  0.5534675960111566  1.0000
  O   O7        1.0  0.7684642952908222  0.4007064695313582  0.7492787345924758  1.0000
  O   O8        1.0  0.7684693701126806  0.41464405329506404  0.37160598058701444  1.0000
  O   O9        1.0  0.7684999678522865  0.2188493337354169  0.5674171894083069  1.0000
