data_image0
_chemical_formula_structural       NC12NC2H8C7N4H5C7F2H5Zn2C4O8
_chemical_formula_sum              "N6 C32 H18 F2 Zn2 O8"
_cell_length_a       17.80743265337812
_cell_length_b       9.274187458527196
_cell_length_c       10.299327507215196
_cell_angle_alpha    85.90896105233658
_cell_angle_beta     91.5153373633688
_cell_angle_gamma    89.89930755814213

_space_group_name_H-M_alt    "P 1"
_space_group_IT_number       1

loop_
  _space_group_symop_operation_xyz
  'x, y, z'

loop_
  _atom_site_type_symbol
  _atom_site_label
  _atom_site_symmetry_multiplicity
  _atom_site_fract_x
  _atom_site_fract_y
  _atom_site_fract_z
  _atom_site_occupancy
  N   N1        1.0  0.7144046711752734  0.5615698519020649  0.6104345754767917  1.0000
  C   C1        1.0  0.6637387342463409  0.5943879453143439  0.5419268104996515  1.0000
  C   C2        1.0  0.6007052820872757  0.6352112708968962  0.45671178503574406  1.0000
  C   C3        1.0  0.6127133753156612  0.6951886582897855  0.33044104014930653  1.0000
  C   C4        1.0  0.551579649589915  0.7343427309348998  0.24761227388311946  1.0000
  C   C5        1.0  0.4782849077424799  0.7138119371480605  0.29039605216977415  1.0000
  C   C6        1.0  0.46529938785752134  0.6537026243275291  0.4171341735832735  1.0000
  C   C7        1.0  0.5272904482434884  0.614552165431151  0.49994644911106656  1.0000
  C   C8        1.0  0.38743059055327245  0.6319348228393585  0.4627710493138788  1.0000
  C   C9        1.0  0.3687518465996288  0.6620964970181213  0.5899926457457958  1.0000
  C   C10       1.0  0.295427350247688  0.6416118444207988  0.6328172567031469  1.0000
  C   C11       1.0  0.2398372626630038  0.5906831805700664  0.5492565988175278  1.0000
  C   C12       1.0  0.1643732673845382  0.5695847334377695  0.5934785661624093  1.0000
  N   N2        1.0  0.10370555889271342  0.5526230009222066  0.6290299855422701  1.0000
  C   C13       1.0  0.2578236088405367  0.5603339518300043  0.42257688177679853  1.0000
  C   C14       1.0  0.3310953665084249  0.5808350460125619  0.3794964774866951  1.0000
  H   H1        1.0  0.6692560620316431  0.7116469011959952  0.29609982454840034  1.0000
  H   H2        1.0  0.5609964197451895  0.7810814350854038  0.15010520241121617  1.0000
  H   H3        1.0  0.4317989336523013  0.7467147030435557  0.22499675548870468  1.0000
  H   H4        1.0  0.5185654650007033  0.5662757975893624  0.5973200971103168  1.0000
  H   H5        1.0  0.4105941815968404  0.7033574635931933  0.6558072266084767  1.0000
  H   H6        1.0  0.2820708652038473  0.6658487662256886  0.7309685224654068  1.0000
  H   H7        1.0  0.21527037563242143  0.5204796071142885  0.3571834708922266  1.0000
  H   H8        1.0  0.3439160669580636  0.5548936472949435  0.2816385993668211  1.0000
  C   C15       1.0  0.9072345379388996  0.13378109684298822  0.6172761002374976  1.0000
  C   C16       1.0  0.9461441372533343  0.21457569899881745  0.5202927931378794  1.0000
  C   C17       1.0  0.9899896880975589  0.14651521582047522  0.43243203352524673  1.0000
  C   C18       1.0  0.9962908528460759  0.9954935372923682  0.4391186772779754  1.0000
  C   C19       1.0  0.9563818829676334  0.913524100452823  0.5341843679935112  1.0000
  C   C20       1.0  0.910882803698712  0.9804004793527866  0.6221998935159876  1.0000
  C   C21       1.0  0.04386015771511942  0.9253883440865458  0.3454874160202983  1.0000
  N   N3        1.0  0.0799920351008536  0.997306539778916  0.24753931957052092  1.0000
  N   N4        1.0  0.11582517755511867  0.896417057335469  0.18818714390800184  1.0000
  N   N5        1.0  0.10264196703883344  0.7675219554920342  0.24668944727114717  1.0000
  N   N6        1.0  0.0579140538392764  0.7827769551660366  0.3450745616898112  1.0000
  H   H9        1.0  0.8088225333160335  0.4055109609370422  0.7428909724570354  1.0000
  H   H10       1.0  0.9441721581946634  0.33163139083930426  0.514233090466798  1.0000
  H   H11       1.0  0.01977037484793454  0.21273686682489748  0.35992144032814966  1.0000
  H   H12       1.0  0.9587534788404878  0.7967956160148919  0.5382080031288878  1.0000
  H   H13       1.0  0.8628872770390251  0.6849259556064553  0.8193104105253319  1.0000
  C   C22       1.0  0.9091308731446618  0.5571477086595008  0.23836021043636468  1.0000
  C   C23       1.0  0.9823787316082822  0.6132700824700805  0.23691276018624663  1.0000
  C   C24       1.0  0.01879140855879258  0.6440409572977625  0.11887435950100134  1.0000
  C   C25       1.0  0.9821891822315094  0.6131215608601324  0.001665390936792298  1.0000
  C   C26       1.0  0.9089865212190471  0.5570339354524436  0.0011158347927220393  1.0000
  C   C27       1.0  0.8727726334512245  0.5299092520840403  0.11995677641975112  1.0000
  C   C28       1.0  0.09843316445074834  0.6993795913499636  0.11873688566221818  1.0000
  F   F1        1.0  0.1475566252931666  0.5833063703650969  0.12830749983345613  1.0000
  F   F2        1.0  0.11171092490637478  0.7832431549525221  0.005091014038999923  1.0000
  H   H14       1.0  0.7714027783566519  0.44881641460417865  0.4485081367521349  1.0000
  H   H15       1.0  0.0112736839715577  0.6328829439704438  0.32780323157434244  1.0000
  H   H16       1.0  0.01095410335737901  0.6326286694281102  0.9107724783524813  1.0000
  H   H17       1.0  0.8163164236244165  0.48665617559522345  0.12026744809805258  1.0000
  H   H18       1.0  0.881323720236582  0.5330935978916109  0.6736251035096728  1.0000
  Zn  Zn1       1.0  0.8267484833452454  0.5589841342125434  0.6158082738624227  1.0000
  Zn  Zn2       1.0  0.9913616915528631  0.5551969584094314  0.6236668120679765  1.0000
  C   C29       1.0  0.9089873634848784  0.5513127346831037  0.8569051980324929  1.0000
  C   C30       1.0  0.909124616798094  0.5628701354135246  0.3825701117605169  1.0000
  C   C31       1.0  0.9101903400553635  0.8203722914636217  0.6160937446366903  1.0000
  C   C32       1.0  0.9079215765802517  0.29380884799646534  0.623381621642378  1.0000
  O   O1        1.0  0.9715923446363977  0.563347131716982  0.43395050973701665  1.0000
  O   O2        1.0  0.9714572471703302  0.5479602721490624  0.811488868540412  1.0000
  O   O3        1.0  0.9724278235855822  0.7652292861447003  0.6170318846565421  1.0000
  O   O4        1.0  0.9706217121126774  0.34607812934022136  0.6284073936223356  1.0000
  O   O5        1.0  0.8474884066110304  0.7681029645757009  0.611067689619508  1.0000
  O   O6        1.0  0.8465178376687347  0.5508356825105514  0.8055246143287644  1.0000
  O   O7        1.0  0.8466529352638457  0.5662224920766572  0.4279846937985179  1.0000
  O   O8        1.0  0.8456823026741925  0.34895347937496674  0.6224416749938326  1.0000
