data_image0
_chemical_formula_structural       NC8NH4C6NCH9C6SCH8Zn2C4O8
_chemical_formula_sum              "N3 C26 H21 S1 Zn2 O8"
_cell_length_a       13.859017124695912
_cell_length_b       9.273386996610926
_cell_length_c       10.302812801239593
_cell_angle_alpha    85.46621381537472
_cell_angle_beta     89.99985351461923
_cell_angle_gamma    89.39861590222965

_space_group_name_H-M_alt    "P 1"
_space_group_IT_number       1

loop_
  _space_group_symop_operation_xyz
  'x, y, z'

loop_
  _atom_site_type_symbol
  _atom_site_label
  _atom_site_symmetry_multiplicity
  _atom_site_fract_x
  _atom_site_fract_y
  _atom_site_fract_z
  _atom_site_occupancy
  N   N1        1.0  0.8975035781038542  0.5788749775167142  0.565601613799463  1.0000
  C   C1        1.0  0.8253097666967681  0.5560073252960389  0.5150478850083634  1.0000
  C   C2        1.0  0.7355049377085475  0.5275633123020901  0.4521655429887692  1.0000
  C   C3        1.0  0.647694879600218  0.5552933477087743  0.5134679138698472  1.0000
  C   C4        1.0  0.5602746092372628  0.5275645385841032  0.45216501938082554  1.0000
  C   C5        1.0  0.560846858650849  0.47209819145908444  0.32954093530094086  1.0000
  C   C6        1.0  0.6484736075475209  0.44447473497350026  0.26847453389282716  1.0000
  C   C7        1.0  0.7357122340305818  0.4720958411225955  0.3295420001559335  1.0000
  C   C8        1.0  0.4700699214695592  0.5560082521959961  0.515047435057618  1.0000
  N   N2        1.0  0.3975547014258848  0.5788753002473865  0.5656014187558004  1.0000
  H   H1        1.0  0.64739314200534  0.5982264673747014  0.6083818915265113  1.0000
  H   H2        1.0  0.49370480391410526  0.45027363270598864  0.28128925570839525  1.0000
  H   H3        1.0  0.6487747948264888  0.40162931331177987  0.17375277195759908  1.0000
  H   H4        1.0  0.8031610517973161  0.45026918085587364  0.281291223709639  1.0000
  C   C9        1.0  0.15050088946889528  0.1552211665126619  0.5662394983017403  1.0000
  C   C10       1.0  0.16744302944266032  0.23869678527307367  0.4488521431532173  1.0000
  C   C11       1.0  0.17530018777060663  0.1741939090937612  0.331457534821082  1.0000
  C   C12       1.0  0.16633406331904332  0.023893238452620036  0.3284487742430253  1.0000
  C   C13       1.0  0.15109231469541085  0.9394547065247489  0.44542835144302195  1.0000
  C   C14       1.0  0.14456667864819805  0.002518018926655818  0.5649748217614696  1.0000
  N   N3        1.0  0.1733755455149566  0.954353937203645  0.20863043844633047  1.0000
  C   C15       1.0  0.18944945307476613  0.03225045357053835  0.08193805016908584  1.0000
  H   H5        1.0  0.17021379582986818  0.41736588635672667  0.7793868224648715  1.0000
  H   H6        1.0  0.17236444156656286  0.3553426821662715  0.4472593375397982  1.0000
  H   H7        1.0  0.18746839178865882  0.24279604175614408  0.2432703337447493  1.0000
  H   H8        1.0  0.14653797720066386  0.8230536339012321  0.44338025499341965  1.0000
  H   H9        1.0  0.18009324704332386  0.8711560725768839  0.8811870459759958  1.0000
  H   H10       1.0  0.16655391267422792  0.8419868096740105  0.2113226268374102  1.0000
  H   H11       1.0  0.1296332744217723  0.11082397490267026  0.059380810256794314  1.0000
  H   H12       1.0  0.2592882651926718  0.08980225072988235  0.0821475242435894  1.0000
  H   H13       1.0  0.1918818467803225  0.9548138662120303  0.005078646073004785  1.0000
  C   C16       1.0  0.14753382287212946  0.5788696099762269  0.18435868689172843  1.0000
  C   C17       1.0  0.11398587649641145  0.7227396522475378  0.1729466731958802  1.0000
  C   C18       1.0  0.09704621210195974  0.7941120568897974  0.05029314794288853  1.0000
  C   C19       1.0  0.11398579057027192  0.7227395008047053  0.9377955037327133  1.0000
  C   C20       1.0  0.14753376035431276  0.5788696002538588  0.9468555905358015  1.0000
  C   C21       1.0  0.16411415826976294  0.5076250369931681  0.0706760769273318  1.0000
  S   S1        1.0  0.05438116814475147  0.9780341285582286  0.037207307988951  1.0000
  C   C22       1.0  0.9278146499333383  0.927628838480457  0.04079472635935733  1.0000
  H   H14       1.0  0.1601406969880255  0.5246334698647306  0.5159737147804104  1.0000
  H   H15       1.0  0.10065931177492748  0.7798852435425871  0.25898043146348493  1.0000
  H   H16       1.0  0.10065912005115663  0.7798850357231282  0.8436301187916562  1.0000
  H   H17       1.0  0.18997374634345765  0.3966421324097766  0.0785722642982083  1.0000
  H   H18       1.0  0.16013890563731703  0.5246327208660531  0.6229581303849834  1.0000
  H   H19       1.0  0.911154366271182  0.8634491765503349  0.9572442070472729  1.0000
  H   H20       1.0  0.9111547693145152  0.8634506345534021  0.13347889690435166  1.0000
  H   H21       1.0  0.8824601884045373  0.027206827418658087  0.033709604205431905  1.0000
  Zn  Zn1       1.0  0.04180756058072888  0.5788712188703296  0.5656090645497025  1.0000
  Zn  Zn2       1.0  0.25325079373571646  0.5788672903404959  0.5656046338849057  1.0000
  C   C23       1.0  0.14757187446229805  0.5731222753407839  0.802735940750098  1.0000
  C   C24       1.0  0.14748877605884683  0.5846180541320487  0.3284778823452732  1.0000
  C   C25       1.0  0.14568342087069808  0.8423608922849881  0.5600403145091228  1.0000
  C   C26       1.0  0.14937716963914285  0.3153777038848373  0.5711735803917068  1.0000
  O   O1        1.0  0.22771530705416665  0.5865394997046471  0.37684392886493057  1.0000
  O   O2        1.0  0.2278258725907194  0.5711967597536943  0.7543661593549296  1.0000
  O   O3        1.0  0.22629984073742837  0.7886103479432465  0.5583877218371223  1.0000
  O   O4        1.0  0.22924126668393274  0.36912592183673243  0.5728222690249332  1.0000
  O   O5        1.0  0.06581701547730345  0.7886125873770048  0.5583914294043556  1.0000
  O   O6        1.0  0.06734303518668905  0.5712007324933706  0.754369795111385  1.0000
  O   O7        1.0  0.067232470066529  0.5865434221705428  0.37684600378890365  1.0000
  O   O8        1.0  0.06875842976461088  0.369129833983902  0.5728244413013925  1.0000
