data_image0
_chemical_formula_structural       NC8NC6H8C6NCOCH7C8NH6Zn2C4O8
_chemical_formula_sum              "N4 C34 H21 O9 Zn2"
_cell_length_a       17.457602349358154
_cell_length_b       10.300268703208214
_cell_length_c       9.274266800404106
_cell_angle_alpha    85.98590923950522
_cell_angle_beta     92.41618932719734
_cell_angle_gamma    91.66828978603887

_space_group_name_H-M_alt    "P 1"
_space_group_IT_number       1

loop_
  _space_group_symop_operation_xyz
  'x, y, z'

loop_
  _atom_site_type_symbol
  _atom_site_label
  _atom_site_symmetry_multiplicity
  _atom_site_fract_x
  _atom_site_fract_y
  _atom_site_fract_z
  _atom_site_occupancy
  N   N1        1.0  0.7284827974014239  0.4427878487005657  0.47599199538479414  1.0000
  C   C1        1.0  0.6674633610740098  0.39678904805533355  0.4642143520615145  1.0000
  C   C2        1.0  0.5915525539353766  0.33957232309445406  0.449573550991998  1.0000
  C   C3        1.0  0.5326691990124909  0.380273455775598  0.5326759379821511  1.0000
  C   C4        1.0  0.458193199129623  0.3251792908462878  0.518716840075856  1.0000
  C   C5        1.0  0.3956980317115628  0.3681554192615241  0.6067254228211121  1.0000
  C   C6        1.0  0.3214055906202092  0.3862188855562015  0.5448520821257707  1.0000
  C   C7        1.0  0.2625217709695532  0.42673688718852065  0.6280742545733301  1.0000
  C   C8        1.0  0.1868013008422396  0.44539012768318226  0.5637427150145089  1.0000
  N   N2        1.0  0.12593495997163381  0.4603809548892239  0.5120203249620232  1.0000
  C   C9        1.0  0.2774358273285218  0.4494382275195  0.7737339918860366  1.0000
  C   C10       1.0  0.35094169168274214  0.4317665258500891  0.8360373859097867  1.0000
  C   C11       1.0  0.4098117519373622  0.39143187884708286  0.7533230777146112  1.0000
  C   C12       1.0  0.4438959679394061  0.22869625007000607  0.4200654632624454  1.0000
  C   C13       1.0  0.5027656971293452  0.18827667293015904  0.337406896604618  1.0000
  C   C14       1.0  0.5764543639985326  0.24348718613628262  0.3519761933444179  1.0000
  H   H1        1.0  0.5446896041711211  0.45594474755840975  0.6066047805451329  1.0000
  H   H2        1.0  0.3095356743157477  0.3705111998991309  0.4316502987448394  1.0000
  H   H3        1.0  0.23229633658911134  0.4807446733641967  0.8390150490296657  1.0000
  H   H4        1.0  0.36229930567992524  0.44902905987541486  0.9488249766328364  1.0000
  H   H5        1.0  0.4660871127536366  0.3767748566575245  0.8044812611413763  1.0000
  H   H6        1.0  0.3874698562735612  0.18328681437962868  0.4082477316738251  1.0000
  H   H7        1.0  0.4912644178413502  0.1137130899847483  0.26214841891889207  1.0000
  H   H8        1.0  0.6215917115440892  0.21131480355031584  0.28726228066812376  1.0000
  C   C15       1.0  0.9272904215386609  0.0702404085168946  0.49402206998869663  1.0000
  C   C16       1.0  0.9408442144592453  0.07922153236003718  0.3454070089227699  1.0000
  C   C17       1.0  0.9487188609095256  0.9664950599132687  0.27092242426599333  1.0000
  C   C18       1.0  0.940670570984298  0.8440545684103776  0.3454272297913197  1.0000
  C   C19       1.0  0.9271346017160723  0.8329188008212581  0.49400335965558834  1.0000
  C   C20       1.0  0.9208043325728595  0.946625666346165  0.5676301042228086  1.0000
  N   N3        1.0  0.9614029749182317  0.9740446771978541  0.11829643303319104  1.0000
  C   C21       1.0  0.006748356439838734  0.07464009202662393  0.04495130372411138  1.0000
  O   O1        1.0  0.04977440299227265  0.14998646667936866  0.11541693487908722  1.0000
  C   C22       1.0  0.007453155227406649  0.08447432482736718  0.8835365155511222  1.0000
  H   H9        1.0  0.9437595225226683  0.17380653916947766  0.28702904494543696  1.0000
  H   H10       1.0  0.9456772170161599  0.7575182329325195  0.28687514892040133  1.0000
  H   H11       1.0  0.9103715721492069  0.9388904453479847  0.6822606187806561  1.0000
  H   H12       1.0  0.9405202255741038  0.8973078492794612  0.058484369758909034  1.0000
  H   H13       1.0  0.9489274321165676  0.06457456724209631  0.8373632217561355  1.0000
  H   H14       1.0  0.02664166871078578  0.18370174662128988  0.8432435026449232  1.0000
  H   H15       1.0  0.04720301371580105  0.012242209842850082  0.8474589096889118  1.0000
  C   C23       1.0  0.9289769671167029  0.4488183557873038  0.07086195833157638  1.0000
  C   C24       1.0  0.8844294638585213  0.35388330085220826  0.14797384529572177  1.0000
  C   C25       1.0  0.8352391771115144  0.26884235221539443  0.07561830824259697  1.0000
  C   C26       1.0  0.828956478342411  0.27739069891355794  0.9243508772438376  1.0000
  C   C27       1.0  0.8745574452939077  0.3692677358390734  0.8460282523495248  1.0000
  C   C28       1.0  0.9254480468713212  0.4543408277978891  0.917163448852517  1.0000
  C   C29       1.0  0.7767390989986479  0.1843779809970474  0.8465362100740434  1.0000
  C   C30       1.0  0.8182925633131108  0.06749478714307555  0.8190885811789697  1.0000
  N   N4        1.0  0.8510934697700624  0.9752472133529595  0.7974237632024881  1.0000
  H   H16       1.0  0.013400761531353172  0.7383628784191251  0.15794839512541547  1.0000
  H   H17       1.0  0.886388839632258  0.3472444470759309  0.2651655225787233  1.0000
  H   H18       1.0  0.8014091220024948  0.19694390996122849  0.137796070604572  1.0000
  H   H19       1.0  0.8715702114713099  0.372098537288554  0.7288664512949423  1.0000
  H   H20       1.0  0.754854384662562  0.23095915932623284  0.7417830778216126  1.0000
  H   H21       1.0  0.726445959002446  0.15546967887238908  0.9121389532867702  1.0000
  Zn  Zn1       1.0  0.8431788721310833  0.44786141092943943  0.4863973131138695  1.0000
  Zn  Zn2       1.0  0.011238823974479405  0.45529682251418896  0.5016268048952033  1.0000
  C   C31       1.0  0.9261144512486991  0.44812354657053516  0.7571943485241417  1.0000
  C   C32       1.0  0.928305079141843  0.4550364075037452  0.23083007718171175  1.0000
  C   C33       1.0  0.9271840615935449  0.6887186874362916  0.48826440092025214  1.0000
  C   C34       1.0  0.9272354114482735  0.21443970440074733  0.49976009645132824  1.0000
  O   O2        1.0  0.9918574644298499  0.4599392770349335  0.29029635209534455  1.0000
  O   O3        1.0  0.9901156826970252  0.4488630000227396  0.7092864907064047  1.0000
  O   O4        1.0  0.9909785405735859  0.6431465907520226  0.4921235773474452  1.0000
  O   O5        1.0  0.9909945496544299  0.26565569235304265  0.5074591522144827  1.0000
  O   O6        1.0  0.8634230891005509  0.6375025385546089  0.4805649605899323  1.0000
  O   O7        1.0  0.8625602312221325  0.44322050752659037  0.6977277970785072  1.0000
  O   O8        1.0  0.8643020202392153  0.4542967279829502  0.2787359260092348  1.0000
  O   O9        1.0  0.863439105012073  0.2600131347176906  0.49589883416353686  1.0000
