data_image0
_chemical_formula_structural       NC12NC2H8C12NCOCH13C12NH11Zn2C4O8
_chemical_formula_sum              "N4 C44 H32 O9 Zn2"
_cell_length_a       19.240039667572717
_cell_length_b       10.299155265289647
_cell_length_c       10.299774167527174
_cell_angle_alpha    85.56091470143106
_cell_angle_beta     89.99323073403258
_cell_angle_gamma    89.9765233896273

_space_group_name_H-M_alt    "P 1"
_space_group_IT_number       1

loop_
  _space_group_symop_operation_xyz
  'x, y, z'

loop_
  _atom_site_type_symbol
  _atom_site_label
  _atom_site_symmetry_multiplicity
  _atom_site_fract_x
  _atom_site_fract_y
  _atom_site_fract_z
  _atom_site_occupancy
  N   N1        1.0  0.6542560764910569  0.4209623341613544  0.5671479314306079  1.0000
  C   C1        1.0  0.5941077076605428  0.4209624181249829  0.567147849475665  1.0000
  C   C2        1.0  0.5192896705023469  0.42096253537941286  0.5671477121468669  1.0000
  C   C3        1.0  0.4828235498562157  0.3565225328911749  0.670571686964349  1.0000
  C   C4        1.0  0.41015282059754465  0.35641166857322126  0.6706582538577335  1.0000
  C   C5        1.0  0.3729574355591257  0.4209626278852381  0.5671474844515374  1.0000
  C   C6        1.0  0.4101377288545934  0.4855137742540041  0.4636369095292204  1.0000
  C   C7        1.0  0.4828084362035434  0.4854026744547499  0.4637235989782143  1.0000
  C   C8        1.0  0.2957523451427917  0.42096254919051157  0.567147389060443  1.0000
  C   C9        1.0  0.25858672757692686  0.3077055407181588  0.609045171338972  1.0000
  C   C10       1.0  0.18591602152706035  0.3078124223307104  0.6089538226908204  1.0000
  C   C11       1.0  0.14942005824407084  0.42096242002575956  0.5671474500009894  1.0000
  C   C12       1.0  0.0746020210983252  0.42096230634667936  0.5671476986796877  1.0000
  N   N2        1.0  0.014453704241986396  0.42096226558061883  0.5671479071001148  1.0000
  C   C13       1.0  0.1858716058044107  0.534112493538683  0.5253410244034088  1.0000
  C   C14       1.0  0.2585422843273449  0.5342195552383124  0.5252495131219752  1.0000
  H   H1        1.0  0.5105442517796314  0.30663187792777147  0.7513220805699603  1.0000
  H   H2        1.0  0.383065104132625  0.3073194814169998  0.7525239004859114  1.0000
  H   H3        1.0  0.3830389145286699  0.5346059884499006  0.3817712120479859  1.0000
  H   H4        1.0  0.5105175057477421  0.5352932292282582  0.3829734811812586  1.0000
  H   H5        1.0  0.2856975841553349  0.2185525962145103  0.6402341472675208  1.0000
  H   H6        1.0  0.15821849833625978  0.21955902413954462  0.6411754894819419  1.0000
  H   H7        1.0  0.15813930555188196  0.622365867195397  0.4931193721683327  1.0000
  H   H8        1.0  0.285617906551615  0.6233725789114495  0.494060492403688  1.0000
  C   C15       1.0  0.8344358478257691  0.03956485883627535  0.5672666021530302  1.0000
  C   C16       1.0  0.8225717384289223  0.049237135802173926  0.43234805670331067  1.0000
  C   C17       1.0  0.8164890796197156  0.9370034765161286  0.36382379390635133  1.0000
  C   C18       1.0  0.8224055741359969  0.813977302799116  0.43204028706093855  1.0000
  C   C19       1.0  0.8342806314870365  0.8023498088398435  0.5670404190599267  1.0000
  C   C20       1.0  0.8402257531569279  0.9156606528477947  0.6338224593633115  1.0000
  C   C21       1.0  0.8039391424280978  0.9482092469538713  0.22109626414780426  1.0000
  C   C22       1.0  0.839191970664318  0.04230336303691006  0.13968266774337934  1.0000
  C   C23       1.0  0.8273873717924833  0.052717853999841406  0.005366551589793155  1.0000
  C   C24       1.0  0.7805260822020259  0.9683640395758198  0.9496187415336981  1.0000
  C   C25       1.0  0.7444242895166111  0.876086195115827  0.030964181978982767  1.0000
  C   C26       1.0  0.7562542045967883  0.8654156770300597  0.16524296449995757  1.0000
  N   N3        1.0  0.7664850277133693  0.9785766696601249  0.8120644569417609  1.0000
  C   C27       1.0  0.8172397042926999  0.015492919651720834  0.7138515536428582  1.0000
  O   O1        1.0  0.8809987121670206  0.018032971071863187  0.7417085882040042  1.0000
  C   C28       1.0  0.795075652887133  0.04191109157937878  0.5753184858786211  1.0000
  H   H9        1.0  0.8390208656119589  0.3633206730973608  0.6191563517847853  1.0000
  H   H10       1.0  0.8170760604725466  0.144271542528438  0.3805409694155655  1.0000
  H   H11       1.0  0.8186700938084805  0.7271673618201254  0.3794144286944614  1.0000
  H   H12       1.0  0.8493791284446346  0.9074853583013038  0.7378875075090516  1.0000
  H   H13       1.0  0.8571103668998312  0.5731201780470349  0.8217152944752597  1.0000
  H   H14       1.0  0.8763026245245029  0.10735999634742296  0.17977300813277863  1.0000
  H   H15       1.0  0.8540543959998257  0.12816119108467738  0.945789045110343  1.0000
  H   H16       1.0  0.7072469894761962  0.8117334332007571  0.9900068483370927  1.0000
  H   H17       1.0  0.7273538241726307  0.793588860276745  0.22565337778224248  1.0000
  H   H18       1.0  0.7175342266956471  0.9497016858635848  0.7809925510526448  1.0000
  H   H19       1.0  0.7449054394491735  0.09535584805472162  0.5708650735175711  1.0000
  H   H20       1.0  0.7886470422571441  0.9482921269589828  0.530096644120372  1.0000
  H   H21       1.0  0.8346453420682107  0.10199092675681021  0.5199259164846453  1.0000
  C   C29       1.0  0.834381898431395  0.4208427873031453  0.1858014614999055  1.0000
  C   C30       1.0  0.7663228010002351  0.3715372096377818  0.18863685678071507  1.0000
  C   C31       1.0  0.7318123591302901  0.3466695095486996  0.0729257203836362  1.0000
  C   C32       1.0  0.766275005121225  0.371768528132339  0.9533320771643777  1.0000
  C   C33       1.0  0.8343345451128947  0.42107187913254335  0.9485055381818643  1.0000
  C   C34       1.0  0.8680067650397678  0.44533341815544425  0.06525950771809752  1.0000
  C   C35       1.0  0.6598097784223166  0.2945076327820553  0.07697875274034094  1.0000
  C   C36       1.0  0.6402967765484152  0.19604634691809197  0.17230669008565536  1.0000
  C   C37       1.0  0.5725247081970419  0.147007116759583  0.1759876832375813  1.0000
  C   C38       1.0  0.5231936052563794  0.19553645966563035  0.08466870175822172  1.0000
  C   C39       1.0  0.5422480463459519  0.29360755548967776  0.9895002448712562  1.0000
  C   C40       1.0  0.6099992241903543  0.3427480551356019  0.9855529415934847  1.0000
  N   N4        1.0  0.45387851998346884  0.14532108953056477  0.08857024407637937  1.0000
  H   H22       1.0  0.8603273617369801  0.4395767996483775  0.512178662646606  1.0000
  H   H23       1.0  0.7396426672921854  0.35403275264128453  0.28092773512680025  1.0000
  H   H24       1.0  0.7402500373103504  0.35109142518477454  0.8640077972614675  1.0000
  H   H25       1.0  0.9205113762874607  0.4833695144027798  0.06230414394458306  1.0000
  H   H26       1.0  0.8602578715330677  0.4399137750092572  0.6192087851635613  1.0000
  H   H27       1.0  0.6776917555313313  0.15577512250053127  0.2429684436413162  1.0000
  H   H28       1.0  0.5585197321893515  0.07095474038032609  0.2498285836559646  1.0000
  H   H29       1.0  0.5045632604704032  0.33221334415467024  0.918568932056147  1.0000
  H   H30       1.0  0.6231915182180187  0.41966699171157384  0.9120438022144977  1.0000
  H   H31       1.0  0.4167425060388756  0.18088019637126296  0.020895166196434722  1.0000
  H   H32       1.0  0.4391847717249329  0.07221420596230764  0.15916313631109905  1.0000
  Zn  Zn1       1.0  0.758201340575366  0.42095884915770626  0.5671554135322943  1.0000
  Zn  Zn2       1.0  0.9105084604270248  0.4209551594944185  0.5671510265709694  1.0000
  C   C41       1.0  0.8343430071312584  0.41585448338514164  0.8043397003099543  1.0000
  C   C42       1.0  0.8343684567187212  0.4260611640071607  0.32996686672033043  1.0000
  C   C43       1.0  0.8343066951804486  0.6581656344052853  0.5619082423155703  1.0000
  C   C44       1.0  0.8344047170110316  0.18374845258974415  0.5723983944144482  1.0000
  O   O2        1.0  0.892163704938798  0.42780543252615866  0.3783484305306146  1.0000
  O   O3        1.0  0.8921453389543387  0.41410643458900376  0.7559544333585326  1.0000
  O   O4        1.0  0.8921152373426298  0.609775753904934  0.560189315407311  1.0000
  O   O5        1.0  0.8921937545825568  0.23213612247316173  0.5741134511102153  1.0000
  O   O6        1.0  0.7765159944448892  0.6097778861816343  0.5601929889877144  1.0000
  O   O7        1.0  0.7765460957401523  0.41411012726564733  0.7559580372338682  1.0000
  O   O8        1.0  0.7765644618769607  0.42780907947454316  0.37835047308770164  1.0000
  O   O9        1.0  0.7765945115137244  0.23213976016128357  0.5741155910335891  1.0000
