data_image0
_chemical_formula_structural       NC4NH4C6H6C6H6Zn2C4O8
_chemical_formula_sum              "N2 C20 H16 Zn2 O8"
_cell_length_a       11.318664859524475
_cell_length_b       10.302277161923591
_cell_length_c       10.681121600428288
_cell_angle_alpha    85.56070482122752
_cell_angle_beta     89.15265362148361
_cell_angle_gamma    92.1102268638812

_space_group_name_H-M_alt    "P 1"
_space_group_IT_number       1

loop_
  _space_group_symop_operation_xyz
  'x, y, z'

loop_
  _atom_site_type_symbol
  _atom_site_label
  _atom_site_symmetry_multiplicity
  _atom_site_fract_x
  _atom_site_fract_y
  _atom_site_fract_z
  _atom_site_occupancy
  N   N1        1.0  0.11340770315484884  0.46768802992156955  0.5977427648867815  1.0000
  C   C1        1.0  0.04942864231544286  0.48430533866139897  0.6799991009898081  1.0000
  C   C2        1.0  0.9681759494845895  0.5053827133163533  0.7844680614157763  1.0000
  C   C3        1.0  0.8714285180336099  0.598524029703039  0.7427636291308355  1.0000
  C   C4        1.0  0.7901785124132584  0.5397140748977183  0.65518958548346  1.0000
  N   N2        1.0  0.7262014170118491  0.4934230469836336  0.5862198000716581  1.0000
  H   H1        1.0  0.9282142753833251  0.410178732423268  0.8229801964369259  1.0000
  H   H2        1.0  0.01996233098307721  0.5479277732512067  0.8598225038909443  1.0000
  H   H3        1.0  0.9113902167150109  0.6908414789433577  0.6973120833882283  1.0000
  H   H4        1.0  0.8196400921651357  0.6221887805501776  0.8265717793945412  1.0000
  C   C5        1.0  0.41981024878436496  0.099282655019191  0.5919865699411078  1.0000
  C   C6        1.0  0.36420678733284884  0.975986126208971  0.6208367532508756  1.0000
  C   C7        1.0  0.4198101918580526  0.8618188867914572  0.5919866022122939  1.0000
  C   C8        1.0  0.5322512088835993  0.8722798823923619  0.5336458688558766  1.0000
  C   C9        1.0  0.5878653768901418  0.9943467894389736  0.5047900558998327  1.0000
  C   C10       1.0  0.5322511914605829  0.10728282506145903  0.5336457841695883  1.0000
  H   H5        1.0  0.20777252171021135  0.2913917379797279  0.7020037330814487  1.0000
  H   H6        1.0  0.2775747614620796  0.968874346621113  0.6657862087134361  1.0000
  H   H7        1.0  0.20777291549983112  0.6348962448908165  0.702004705010602  1.0000
  H   H8        1.0  0.5772832388870124  0.7861843023355135  0.5102807552762276  1.0000
  H   H9        1.0  0.6744616787660463  0.0014557992595953745  0.4598590237116132  1.0000
  H   H10       1.0  0.5772832556578813  0.2007719529248928  0.5102806206782216  1.0000
  C   C11       1.0  0.41981026279182765  0.48055075693834826  0.22424134612946994  1.0000
  C   C12       1.0  0.3351766246517834  0.4047866362512847  0.16441030732352746  1.0000
  C   C13       1.0  0.33517655082664666  0.40478671640267905  0.033528168758844464  1.0000
  C   C14       1.0  0.4198101698370538  0.4805508166799003  0.9597317835537393  1.0000
  C   C15       1.0  0.5043739538183696  0.5562521634341626  0.019563555549193982  1.0000
  C   C16       1.0  0.5043739386900896  0.5562521426660001  0.15045585449671184  1.0000
  H   H11       1.0  0.5053973058682473  0.5571690661648443  0.515889711904763  1.0000
  H   H12       1.0  0.2688367836414088  0.3453991378743131  0.21869459513422387  1.0000
  H   H13       1.0  0.2688367589463938  0.34539919795307084  0.9901905663730579  1.0000
  H   H14       1.0  0.5707224579735863  0.6156474842477482  0.9653234402046104  1.0000
  H   H15       1.0  0.5707223983980154  0.6156474362311255  0.1937478088092748  1.0000
  H   H16       1.0  0.5053976749095974  0.5571686293103344  0.6539606792518606  1.0000
  Zn  Zn1       1.0  0.2902467474347852  0.47511112243504705  0.5944247071959835  1.0000
  Zn  Zn2       1.0  0.5493624044263832  0.4859893240052764  0.5895480789003988  1.0000
  C   C17       1.0  0.41980758101857063  0.4753782934819433  0.820708407067518  1.0000
  C   C18       1.0  0.41980440037745465  0.48572390995594206  0.36326444868920676  1.0000
  C   C19       1.0  0.4198041432893803  0.7176830551517279  0.5869963933077955  1.0000
  C   C20       1.0  0.4198077496886268  0.24341758466358623  0.5969765308781735  1.0000
  O   O1        1.0  0.5181354743335324  0.4915826238515773  0.4080712168764997  1.0000
  O   O2        1.0  0.5181392951909913  0.4777749033972669  0.7722000303502728  1.0000
  O   O3        1.0  0.5181351936046691  0.6734390071572345  0.5834759506361173  1.0000
  O   O4        1.0  0.51813948750124  0.29591852566750054  0.5967952043585771  1.0000
  O   O5        1.0  0.3214695759364721  0.6651819170620406  0.5871775833953716  1.0000
  O   O6        1.0  0.3214736775173559  0.46951937321386117  0.7759015963378502  1.0000
  O   O7        1.0  0.32146985673864714  0.48332704842680996  0.41177127724001017  1.0000
  O   O8        1.0  0.3214738699015128  0.2876629409560596  0.600495358611733  1.0000
