data_image0
_chemical_formula_structural       NC12NC2H8C6NO2H5C7NC2OH7Zn2C4O8
_chemical_formula_sum              "N4 C33 H20 O11 Zn2"
_cell_length_a       17.80743265337812
_cell_length_b       9.273423624067512
_cell_length_c       10.300337369960102
_cell_angle_alpha    85.49660982553178
_cell_angle_beta     91.53453705670806
_cell_angle_gamma    90.04087344610896

_space_group_name_H-M_alt    "P 1"
_space_group_IT_number       1

loop_
  _space_group_symop_operation_xyz
  'x, y, z'

loop_
  _atom_site_type_symbol
  _atom_site_label
  _atom_site_symmetry_multiplicity
  _atom_site_fract_x
  _atom_site_fract_y
  _atom_site_fract_z
  _atom_site_occupancy
  N   N1        1.0  0.7159863358104285  0.5623436538008859  0.6003202454750356  1.0000
  C   C1        1.0  0.6653460231055542  0.5951721961669774  0.5316038311981748  1.0000
  C   C2        1.0  0.602344446330174  0.6360085200308676  0.44612926078898973  1.0000
  C   C3        1.0  0.6143991626986762  0.6960048456697352  0.3194773009055685  1.0000
  C   C4        1.0  0.5532957961884231  0.7351712226777303  0.23639971177167826  1.0000
  C   C5        1.0  0.47998500959902196  0.7146338811087642  0.2793140271487138  1.0000
  C   C6        1.0  0.4669528007682463  0.6545056164336436  0.40643418318866065  1.0000
  C   C7        1.0  0.5289135030266188  0.6153428530016545  0.48949525949988226  1.0000
  C   C8        1.0  0.3890670453542632  0.6327309133716152  0.4522094336242439  1.0000
  C   C9        1.0  0.3704487041710821  0.662930319904754  0.5792203289983959  1.0000
  C   C10       1.0  0.29710822568053674  0.642439154501725  0.6221751700327496  1.0000
  C   C11       1.0  0.2414415805914401  0.5914661921225914  0.5389572137171226  1.0000
  C   C12       1.0  0.1659611464157235  0.5703610539244388  0.583313301933889  1.0000
  N   N2        1.0  0.10528022214289151  0.5533939422318479  0.6189725454812212  1.0000
  C   C13       1.0  0.259367406692395  0.5610791935515398  0.4124893751851282  1.0000
  C   C14       1.0  0.3326551164210571  0.5815867730178939  0.36927865834305806  1.0000
  H   H1        1.0  0.6709547029159939  0.712468330988836  0.28503144634745214  1.0000
  H   H2        1.0  0.5627490713397334  0.7819248168350605  0.13859548123689924  1.0000
  H   H3        1.0  0.43352536243432244  0.7475476088177313  0.21370521566290132  1.0000
  H   H4        1.0  0.5201501663439544  0.5670506110860132  0.5871761756084747  1.0000
  H   H5        1.0  0.4123526988469278  0.7042268972585046  0.644757450337925  1.0000
  H   H6        1.0  0.28379948774485164  0.6667057933543383  0.7201575297181086  1.0000
  H   H7        1.0  0.2167542626835457  0.5211901825015213  0.34736414649485026  1.0000
  H   H8        1.0  0.3454261063000508  0.5556146316974973  0.27160084807693985  1.0000
  C   C15       1.0  0.9083104710724611  0.13428762646883396  0.6099697993096411  1.0000
  C   C16       1.0  0.8974145688397693  0.21841491680934078  0.4912520294638596  1.0000
  C   C17       1.0  0.8934699300124813  0.15446488776213063  0.3721440396735935  1.0000
  C   C18       1.0  0.9006700975364672  0.0038473606667903675  0.37253987491963825  1.0000
  C   C19       1.0  0.910239736081515  0.9186554370919193  0.48951375523025864  1.0000
  C   C20       1.0  0.9129632151426694  0.981438780347151  0.6093345204895906  1.0000
  N   N3        1.0  0.8829362620465016  0.24249945168240641  0.2515302005176323  1.0000
  O   O1        1.0  0.8757284018576124  0.3902729514745429  0.25125742647486504  1.0000
  O   O2        1.0  0.8799475508671202  0.1862522617544331  0.14527847280080408  1.0000
  H   H9        1.0  0.8882624766636174  0.3959391367373076  0.8221354533099766  1.0000
  H   H10       1.0  0.893756845778139  0.3349686604363211  0.49142351759127934  1.0000
  H   H11       1.0  0.8981402745940511  0.9514580836502246  0.28224085848224023  1.0000
  H   H12       1.0  0.9137280864870715  0.8023449861345487  0.4864104706124366  1.0000
  H   H13       1.0  0.8794879558205934  0.8512514988670055  0.9223870509863316  1.0000
  C   C21       1.0  0.9106351980094435  0.557863705587681  0.22831196990838798  1.0000
  C   C22       1.0  0.9879682733799825  0.5276252443395573  0.2330149502765022  1.0000
  C   C23       1.0  0.026985604560766152  0.5123686017163396  0.11829927734207968  1.0000
  C   C24       1.0  0.9879750881770871  0.5276233021250156  0.9977229872148197  1.0000
  C   C25       1.0  0.9106384777864104  0.5578626052484461  0.9909923205783406  1.0000
  C   C26       1.0  0.8723998999325486  0.5728138474800144  0.10682442818692084  1.0000
  C   C27       1.0  0.10838387493051549  0.4805378261073907  0.1249926129031993  1.0000
  N   N4        1.0  0.15012047832752387  0.464215598342546  0.019500260549512705  1.0000
  C   C28       1.0  0.2194808236892858  0.43709126275882865  0.07075489521975986  1.0000
  C   C29       1.0  0.21750916442373458  0.43786299875959495  0.2040770369507938  1.0000
  O   O3        1.0  0.14829429222908153  0.46493069078708177  0.23447771321810174  1.0000
  H   H14       1.0  0.8811760685391904  0.5693959610423815  0.5539469454372157  1.0000
  H   H15       1.0  0.01798888455232839  0.5158858727150835  0.3261104263083474  1.0000
  H   H16       1.0  0.01793203342421367  0.515909795513114  0.9090181162705501  1.0000
  H   H17       1.0  0.8127497876633417  0.5961379018502233  0.10241335640177995  1.0000
  H   H18       1.0  0.8811626587255043  0.5693960734563475  0.6609982635605682  1.0000
  H   H19       1.0  0.2683519850561278  0.4179792035801735  0.014334389126911432  1.0000
  H   H20       1.0  0.2641022938706046  0.41964244502445003  0.2729477415581394  1.0000
  Zn  Zn1       1.0  0.8283281244152887  0.5597571092968445  0.6057103856014103  1.0000
  Zn  Zn2       1.0  0.9929383664682577  0.5559687207149662  0.6135930064313473  1.0000
  C   C30       1.0  0.9106046298933644  0.5521165581542005  0.8468336664108796  1.0000
  C   C31       1.0  0.910663668525262  0.5636110504801017  0.3724699377919216  1.0000
  C   C32       1.0  0.9120798593345865  0.8213092361847723  0.6042796452867711  1.0000
  C   C33       1.0  0.9091883733963078  0.2944166407359896  0.6150240267592131  1.0000
  O   O4        1.0  0.9731419179142646  0.5640959453457668  0.4238420869561903  1.0000
  O   O5        1.0  0.9730617394227791  0.54875527584873  0.8014438710632167  1.0000
  O   O6        1.0  0.9742521637508686  0.7661317871431446  0.6055797414445967  1.0000
  O   O7        1.0  0.9719514374721016  0.3467194456627263  0.6197061165099329  1.0000
  O   O8        1.0  0.8493149972380566  0.7690063856434461  0.5995972728260419  1.0000
  O   O9        1.0  0.8481245824243109  0.5516316073569336  0.7954613319046955  1.0000
  O   O10       1.0  0.8482047606829515  0.566972226589811  0.41785798655464573  1.0000
  O   O11       1.0  0.8470142801814738  0.3495957165897572  0.6137221134764836  1.0000
