data_image0
_chemical_formula_structural       NC9NC5H8C8H6C12H10Zn2C4O8
_chemical_formula_sum              "N2 C38 H24 Zn2 O8"
_cell_length_a       17.807436237873137
_cell_length_b       9.275140704573507
_cell_length_c       10.299141136925906
_cell_angle_alpha    85.68100498211918
_cell_angle_beta     89.41385425082623
_cell_angle_gamma    88.98377242316299

_space_group_name_H-M_alt    "P 1"
_space_group_IT_number       1

loop_
  _space_group_symop_operation_xyz
  'x, y, z'

loop_
  _atom_site_type_symbol
  _atom_site_label
  _atom_site_symmetry_multiplicity
  _atom_site_fract_x
  _atom_site_fract_y
  _atom_site_fract_z
  _atom_site_occupancy
  N   N1        1.0  0.7153943084328939  0.5409020941785108  0.5602456788915964  1.0000
  C   C1        1.0  0.6545938062980643  0.5018452387744643  0.5491398642435537  1.0000
  C   C2        1.0  0.578964664224918  0.45326281182356754  0.5353254368035709  1.0000
  C   C3        1.0  0.5604227394321741  0.37402790211385817  0.43015138745486986  1.0000
  C   C4        1.0  0.4869900662646024  0.3267343766518965  0.4166555792584318  1.0000
  C   C5        1.0  0.43104833353848576  0.3582567138135877  0.5083004953307593  1.0000
  C   C6        1.0  0.3530090372157658  0.3081234060036395  0.4940402907045389  1.0000
  C   C7        1.0  0.291327554889401  0.39886394863782937  0.5201694939806221  1.0000
  C   C8        1.0  0.2177513651662055  0.35134504608914896  0.5066868990512141  1.0000
  C   C9        1.0  0.1550359753679531  0.44507286699954896  0.5331862398103213  1.0000
  N   N2        1.0  0.10462575514848879  0.5204235501733747  0.5544909697629097  1.0000
  C   C10       1.0  0.2052715638752993  0.21279925164281588  0.46704915405372577  1.0000
  C   C11       1.0  0.2660955916468872  0.12204333581465998  0.4409115285960123  1.0000
  C   C12       1.0  0.3395499440882039  0.16912436670908693  0.45419066214104653  1.0000
  C   C13       1.0  0.450284669026525  0.43804029567387737  0.6136949287573796  1.0000
  C   C14       1.0  0.5237690399850142  0.48512253638298564  0.6270346372689135  1.0000
  H   H1        1.0  0.6026672570548155  0.34909377394148566  0.3583823845763663  1.0000
  H   H2        1.0  0.4737379854867682  0.2671753326342299  0.33360618458751734  1.0000
  H   H3        1.0  0.3004145208317171  0.507040156798861  0.5492732491177679  1.0000
  H   H4        1.0  0.14860056436858432  0.17502283945200484  0.4563750678749151  1.0000
  H   H5        1.0  0.2563149216518754  0.014777848247274919  0.41060918241969435  1.0000
  H   H6        1.0  0.3857932247090822  0.09615385449684187  0.4349893563014946  1.0000
  H   H7        1.0  0.4087540933934803  0.4623756369488586  0.6867572641954838  1.0000
  H   H8        1.0  0.5375565420751458  0.5460367866152407  0.7090451594329107  1.0000
  C   C15       1.0  0.907731910457293  0.1073422035206586  0.5564937582331473  1.0000
  C   C16       1.0  0.91843023404184  0.1902535754659056  0.43786372828589964  1.0000
  C   C17       1.0  0.935679323367242  0.12406253814246138  0.32379168457115814  1.0000
  C   C18       1.0  0.9426428458791083  0.9737655781907436  0.32615773849750607  1.0000
  C   C19       1.0  0.930982157578666  0.8893245812571239  0.4426734656694926  1.0000
  C   C20       1.0  0.9122952504812877  0.9539720036949426  0.5582540684458603  1.0000
  C   C21       1.0  0.960915801923559  0.9057707677092368  0.2084403331201763  1.0000
  C   C22       1.0  0.97621546293993  0.8488267818397586  0.1098856006450637  1.0000
  H   H9        1.0  0.9200869141619518  0.1831103217440677  0.8754304897903868  1.0000
  H   H10       1.0  0.9151998404124904  0.3072494953056917  0.4339334726759427  1.0000
  H   H11       1.0  0.9443210228935542  0.19037332555341813  0.23387981534352464  1.0000
  H   H12       1.0  0.934768176091112  0.7725182009201023  0.4424570540583357  1.0000
  H   H13       1.0  0.917731210381458  0.655101015196106  0.7731834394676063  1.0000
  H   H14       1.0  0.9896452815176714  0.79884023006988  0.023375243359392558  1.0000
  C   C23       1.0  0.9099288852235958  0.5307846208546589  0.17598241566386363  1.0000
  C   C24       1.0  0.988462309928901  0.5421822738641999  0.173039588714313  1.0000
  C   C25       1.0  0.028369100003514666  0.547830311410386  0.05441217843010104  1.0000
  C   C26       1.0  0.9886809346118746  0.5419269338863879  0.9377701255602355  1.0000
  C   C27       1.0  0.9100983167494234  0.5305295777331613  0.938765407796338  1.0000
  C   C28       1.0  0.871206146379435  0.5250262234115204  0.05831047795783539  1.0000
  C   C29       1.0  0.11144957143104017  0.5598896974461689  0.05234373100928268  1.0000
  C   C30       1.0  0.15572208294719259  0.47871009860749886  0.9692956141508469  1.0000
  C   C31       1.0  0.2339166247403317  0.49024063473137436  0.967587079769902  1.0000
  C   C32       1.0  0.26873995053207866  0.5827165755690762  0.04843386307671315  1.0000
  C   C33       1.0  0.225439199882103  0.6638546123265621  0.13122295256966265  1.0000
  C   C34       1.0  0.14722692529646708  0.6526865328638018  0.13340234578452012  1.0000
  H   H15       1.0  0.8797162498198668  0.5264739293400569  0.5045852573644959  1.0000
  H   H16       1.0  0.01887537557724772  0.5446984528770673  0.26335121354394997  1.0000
  H   H17       1.0  0.019056190517778623  0.548224758904623  0.845912244483356  1.0000
  H   H18       1.0  0.8106313438079873  0.5162389688183511  0.05986444462119267  1.0000
  H   H19       1.0  0.7617338575960216  0.5099347080192584  0.733291276886304  1.0000
  H   H20       1.0  0.12996452193325658  0.40501055355935184  0.9070030786523867  1.0000
  H   H21       1.0  0.26754864109420917  0.4271149380183144  0.9037288044518025  1.0000
  H   H22       1.0  0.3292745249219515  0.5915015194019371  0.046929274465612236  1.0000
  H   H23       1.0  0.25247748217400934  0.7357847995883646  0.19357309068504613  1.0000
  H   H24       1.0  0.11468965360782855  0.717925470495614  0.19714499573490674  1.0000
  Zn  Zn1       1.0  0.8277180758356367  0.5349885797520029  0.5585924973849636  1.0000
  Zn  Zn2       1.0  0.9923019085834114  0.5263253103505574  0.5561548040817297  1.0000
  C   C35       1.0  0.9100336418444023  0.5248350835368485  0.7945711493281034  1.0000
  C   C36       1.0  0.9099881496570636  0.5364805307922514  0.3201762567747703  1.0000
  C   C37       1.0  0.9114276818181113  0.7939428816241727  0.552745884829142  1.0000
  C   C38       1.0  0.9085940442025701  0.26737100369821887  0.5620015877472964  1.0000
  O   O1        1.0  0.9724667122364323  0.5350981756242503  0.3676439220983656  1.0000
  O   O2        1.0  0.9724703941652745  0.5196411303141617  0.745252955062508  1.0000
  O   O3        1.0  0.9735952574007717  0.7369491244700641  0.5499773586130379  1.0000
  O   O4        1.0  0.9713417928735769  0.3177901947692645  0.5629194220206666  1.0000
  O   O5        1.0  0.8486781353810936  0.7435236982912161  0.5518278802710637  1.0000
  O   O6        1.0  0.8475532814620027  0.5262174360999429  0.7471034110720063  1.0000
  O   O7        1.0  0.847549598965551  0.5416744316952545  0.36949281650960136  1.0000
  O   O8        1.0  0.8464246795656762  0.3243664404972728  0.5647684137841089  1.0000
