data_image0
_chemical_formula_structural       NC12NC2H8C7OC6H10C7OC3FC3H9Zn2C4O8
_chemical_formula_sum              "N2 C44 H27 O10 F1 Zn2"
_cell_length_a       17.80743265337812
_cell_length_b       10.299379429549807
_cell_length_c       10.29938172300155
_cell_angle_alpha    85.55361563187328
_cell_angle_beta     91.51787109396743
_cell_angle_gamma    89.43379168207073

_space_group_name_H-M_alt    "P 1"
_space_group_IT_number       1

loop_
  _space_group_symop_operation_xyz
  'x, y, z'

loop_
  _atom_site_type_symbol
  _atom_site_label
  _atom_site_symmetry_multiplicity
  _atom_site_fract_x
  _atom_site_fract_y
  _atom_site_fract_z
  _atom_site_occupancy
  N   N1        1.0  0.7076134362013262  0.406355316526489  0.6008533436805008  1.0000
  C   C1        1.0  0.6568038779152378  0.43589556518271033  0.5321456159073306  1.0000
  C   C2        1.0  0.5935917712983656  0.47264149133849953  0.446681851112511  1.0000
  C   C3        1.0  0.6053373619866391  0.5266279551024751  0.3200456980350632  1.0000
  C   C4        1.0  0.5440322618895544  0.5618709092791212  0.23697840234935774  1.0000
  C   C5        1.0  0.47082736697111727  0.5433906847239672  0.2798872787489157  1.0000
  C   C6        1.0  0.45810493134686764  0.4892855495179438  0.4069916053589242  1.0000
  C   C7        1.0  0.520267350085382  0.4540458445455388  0.49004238860548566  1.0000
  C   C8        1.0  0.3803314006461676  0.4696919777610469  0.45276110674325376  1.0000
  C   C9        1.0  0.36152499680486155  0.4969177835099453  0.5797921652510745  1.0000
  C   C10       1.0  0.28829014858197577  0.47847914687987436  0.6227415883043961  1.0000
  C   C11       1.0  0.23291861023221425  0.43256066656092007  0.5394979919583573  1.0000
  C   C12       1.0  0.1575469518693199  0.4135695874791354  0.5838485071637387  1.0000
  N   N2        1.0  0.096953476045928  0.3983020371173793  0.6195032703803629  1.0000
  C   C13       1.0  0.2510334405179877  0.40516609965293193  0.41300995027883974  1.0000
  C   C14       1.0  0.3242154730541674  0.423619446429958  0.3698046415862122  1.0000
  H   H1        1.0  0.6618080230777097  0.5414423681463587  0.28560420073429427  1.0000
  H   H2        1.0  0.553244491483398  0.6039414134470948  0.1391865467552591  1.0000
  H   H3        1.0  0.42419747587624623  0.5730084729805933  0.21428738657027835  1.0000
  H   H4        1.0  0.5117535604323028  0.4105899097542404  0.5877103086636963  1.0000
  H   H5        1.0  0.40319022642468805  0.5341188814179153  0.6453499387709107  1.0000
  H   H6        1.0  0.274830987263327  0.5003552577147083  0.7207398891381132  1.0000
  H   H7        1.0  0.2086512334591812  0.3692324846111611  0.34786465674214706  1.0000
  H   H8        1.0  0.337146234621054  0.40020778459643064  0.27211022994179856  1.0000
  C   C15       1.0  0.9022952241095643  0.020936580702289206  0.610332915804416  1.0000
  C   C16       1.0  0.9478167569872038  0.010136315067548416  0.7242580450949001  1.0000
  C   C17       1.0  0.9700721683084987  0.887464510846267  0.7825360110512448  1.0000
  C   C18       1.0  0.9477253602623148  0.774916059076159  0.7239773872314677  1.0000
  C   C19       1.0  0.9022788821913054  0.7837106667684225  0.6100352282025527  1.0000
  C   C20       1.0  0.879664225441729  0.9071930991671039  0.5540632263060628  1.0000
  C   C21       1.0  0.018792093813929434  0.87596335213785  0.902066160067859  1.0000
  O   O1        1.0  0.06645049099417077  0.7841944438529777  0.9167051412923837  1.0000
  C   C22       1.0  0.013442432868945087  0.9684673409068996  0.004993707736898664  1.0000
  C   C23       1.0  0.07769051351021261  0.9966223354541913  0.07963325849945424  1.0000
  C   C24       1.0  0.07302105099627076  0.08250489349409329  0.1779009403434677  1.0000
  C   C25       1.0  0.004198764761806695  0.1402297586405632  0.20336222559716918  1.0000
  C   C26       1.0  0.9398351351906603  0.11176888717245093  0.13096121791835402  1.0000
  C   C27       1.0  0.9442029260925012  0.025972198390806542  0.032591419502943975  1.0000
  H   H9        1.0  0.8173415394543931  0.24870775416698399  0.3942340934851365  1.0000
  H   H10       1.0  0.9667072803375997  0.0973447557404554  0.7669995326118126  1.0000
  H   H11       1.0  0.965304792346326  0.6802626654579279  0.7682562566981535  1.0000
  H   H12       1.0  0.8445709079020942  0.9147151897309276  0.4662349492734439  1.0000
  H   H13       1.0  0.8853433670321237  0.45967065668560664  0.5656568176823316  1.0000
  H   H14       1.0  0.13158804136522972  0.9530567129938928  0.06116788571853726  1.0000
  H   H15       1.0  0.12281138698980286  0.10425967073519793  0.23438151099805385  1.0000
  H   H16       1.0  0.0006867620911186222  0.2065932684508014  0.27953427453274926  1.0000
  H   H17       1.0  0.8864206865140322  0.1557637979634794  0.15144953742588108  1.0000
  H   H18       1.0  0.8933745614415803  0.0035548468269819247  0.9792208416876593  1.0000
  C   C28       1.0  0.9023502969210612  0.4022211649363014  0.2288194781025987  1.0000
  C   C29       1.0  0.9261271590000049  0.2712673189802042  0.23887044261323132  1.0000
  C   C30       1.0  0.9389357037388514  0.2056571964453353  0.12677001710113922  1.0000
  C   C31       1.0  0.9260552994030542  0.27156195647466314  0.0036008363239938817  1.0000
  C   C32       1.0  0.9022237783191199  0.4024260393162058  0.9915486945321543  1.0000
  C   C33       1.0  0.8906985380028265  0.46709843333501355  0.10476363596695949  1.0000
  C   C34       1.0  0.9632820680222602  0.06697714353889617  0.13723531653030818  1.0000
  O   O2        1.0  0.9401448665311938  0.9942073671211878  0.05197426812676942  1.0000
  C   C35       1.0  0.01388155565249893  0.010854223009423515  0.24432574953214978  1.0000
  C   C36       1.0  0.007832394389676532  0.879010838393859  0.28936050184777895  1.0000
  C   C37       1.0  0.05587260578808628  0.8248069401321552  0.3892388704061607  1.0000
  F   F1        1.0  0.04922273722596371  0.6978699392837087  0.43263859405822647  1.0000
  C   C38       1.0  0.11073894054236133  0.9013001507134678  0.4443047471294759  1.0000
  C   C39       1.0  0.11787000435954974  0.031915638930866574  0.3992572301405821  1.0000
  C   C40       1.0  0.06997875814555377  0.08652825017054955  0.2994568127831705  1.0000
  H   H19       1.0  0.8563768882836165  0.648756526184274  0.4171670897409676  1.0000
  H   H20       1.0  0.9339114818564134  0.21971285268095198  0.334068915617183  1.0000
  H   H21       1.0  0.935367921939192  0.2208169132296227  0.9170407931710844  1.0000
  H   H22       1.0  0.8723679965088724  0.5680537965297361  0.09621101914803609  1.0000
  H   H23       1.0  0.8924633305968452  0.45237201992897413  0.6594596321998796  1.0000
  H   H24       1.0  0.965512625947559  0.8183663611452796  0.24798432972969306  1.0000
  H   H25       1.0  0.14795148799732827  0.8593196125570869  0.5215200001636986  1.0000
  H   H26       1.0  0.16077930001417617  0.09080008319098631  0.44130124566441165  1.0000
  H   H27       1.0  0.07736279036175775  0.1873402857903234  0.2645104950245245  1.0000
  Zn  Zn1       1.0  0.8199685636640783  0.404027848570535  0.6062427978663485  1.0000
  Zn  Zn2       1.0  0.9845983445595438  0.40061891381787873  0.6141244132600945  1.0000
  C   C41       1.0  0.9022461479569935  0.39721338381743476  0.8473784628931669  1.0000
  C   C42       1.0  0.9023225579624586  0.4074349800986644  0.3729889611257553  1.0000
  C   C43       1.0  0.9022789584272458  0.6395288100721958  0.604916206041272  1.0000
  C   C44       1.0  0.9022896913375275  0.165117994628583  0.6154512851350105  1.0000
  O   O3        1.0  0.9647893925104976  0.4078854450382958  0.42436459081059913  1.0000
  O   O4        1.0  0.9647295079177803  0.39417463639559974  0.8019844234645751  1.0000
  O   O5        1.0  0.9647551603552037  0.5898474253952499  0.6061943947478308  1.0000
  O   O6        1.0  0.9647636839120314  0.2122126664665098  0.6201545194606901  1.0000
  O   O7        1.0  0.8398031681315274  0.5924340970866184  0.6002126889693127  1.0000
  O   O8        1.0  0.83977751566872  0.3967628684670023  0.7960026478322566  1.0000
  O   O9        1.0  0.8398374005713156  0.4104736314304868  0.41838125381532265  1.0000
  O   O10       1.0  0.8398116919538287  0.21480084359555127  0.6141712798356269  1.0000
