data_image0
_chemical_formula_structural       NC10NC5H10C7OC3OC4H12C7OC3OC4H12Zn2C4O8
_chemical_formula_sum              "N2 C47 H34 O12 Zn2"
_cell_length_a       19.4436361288709
_cell_length_b       10.299371110280154
_cell_length_c       10.299374482448638
_cell_angle_alpha    85.56563777426874
_cell_angle_beta     89.68637327173955
_cell_angle_gamma    89.43124194409341

_space_group_name_H-M_alt    "P 1"
_space_group_IT_number       1

loop_
  _space_group_symop_operation_xyz
  'x, y, z'

loop_
  _atom_site_type_symbol
  _atom_site_label
  _atom_site_symmetry_multiplicity
  _atom_site_fract_x
  _atom_site_fract_y
  _atom_site_fract_z
  _atom_site_occupancy
  N   N1        1.0  0.6480547340609988  0.4096510205214801  0.5625213618412097  1.0000
  C   C1        1.0  0.589218424010918  0.4195469681531273  0.5769092962864975  1.0000
  C   C2        1.0  0.5158886670489924  0.4318885192710656  0.5949065537313651  1.0000
  C   C3        1.0  0.4737113134505233  0.39993077205403504  0.5002181400701164  1.0000
  C   C4        1.0  0.3978072900069201  0.41036685169518483  0.5055500096424481  1.0000
  C   C5        1.0  0.3580533758374266  0.3855746882663642  0.612618122878479  1.0000
  C   C6        1.0  0.28193470932140113  0.3894966643114459  0.5996595828431734  1.0000
  C   C7        1.0  0.24136825313914673  0.44711917037806265  0.6934537218014669  1.0000
  C   C8        1.0  0.16970643900633278  0.4507612821417036  0.6829106586440923  1.0000
  C   C9        1.0  0.13761624749576654  0.3963847581579008  0.5788598583494138  1.0000
  C   C10       1.0  0.0638252129237376  0.4000881773678791  0.5681615281621228  1.0000
  N   N2        1.0  0.004502226095591199  0.40306553201968104  0.5595607799958184  1.0000
  C   C11       1.0  0.1774576877216053  0.33805500351633283  0.4854487264327041  1.0000
  C   C12       1.0  0.24913595226854962  0.3343587719604797  0.49573998370684436  1.0000
  C   C13       1.0  0.386166990988994  0.34505971308601446  0.7437039742370926  1.0000
  C   C14       1.0  0.4448304138962988  0.3881620048750767  0.7909631293470631  1.0000
  C   C15       1.0  0.48905748867482013  0.4860508852782107  0.716626413427274  1.0000
  H   H1        1.0  0.4958168980746548  0.3708510712619265  0.40989779366516377  1.0000
  H   H2        1.0  0.3731217868514323  0.4329000446465262  0.41239574970771664  1.0000
  H   H3        1.0  0.2652348367342875  0.49037656026358434  0.7743200769335528  1.0000
  H   H4        1.0  0.1393588689043137  0.4960456772413829  0.7558499340673517  1.0000
  H   H5        1.0  0.1531192075307103  0.29499313250955006  0.4049169345447421  1.0000
  H   H6        1.0  0.2788175665424942  0.2868307015905667  0.4234962977165315  1.0000
  H   H7        1.0  0.3551869054274803  0.28081611901482334  0.8079313285166705  1.0000
  H   H8        1.0  0.4599655358414497  0.35405427970633596  0.8888896855822971  1.0000
  H   H9        1.0  0.45896189671725063  0.5767755066528566  0.6914046856259086  1.0000
  H   H10       1.0  0.5323386041396129  0.5116107421690443  0.7797226468175601  1.0000
  C   C16       1.0  0.8262354182212186  0.024987703913148078  0.5609266466255414  1.0000
  C   C17       1.0  0.818333608043859  0.03445500137024671  0.42500428433867476  1.0000
  C   C18       1.0  0.8135712168508712  0.9220574375940407  0.3566234515617108  1.0000
  C   C19       1.0  0.8183676951953707  0.7991864132549499  0.42531509379904375  1.0000
  C   C20       1.0  0.8263281229469458  0.7877187521150576  0.5611667340180744  1.0000
  C   C21       1.0  0.8300358418671218  0.9012208943562615  0.6282255953092559  1.0000
  C   C22       1.0  0.8059447588061434  0.9319129984378105  0.21293672215528295  1.0000
  O   O1        1.0  0.8341494554842325  0.8463691436495612  0.1486781623616764  1.0000
  C   C23       1.0  0.7663138403378538  0.03873207519884893  0.14215353750961723  1.0000
  C   C24       1.0  0.7855599668381834  0.08356831735006921  0.014848432247383855  1.0000
  C   C25       1.0  0.7483696944053692  0.18328604633705894  0.945775051874695  1.0000
  O   O2        1.0  0.7703498522102719  0.22471887230868998  0.8194919713769231  1.0000
  C   C26       1.0  0.7375786747395576  0.32482979369327114  0.7383274422588157  1.0000
  C   C27       1.0  0.6906641270880827  0.23819634949235846  0.004743665560066333  1.0000
  C   C28       1.0  0.6707121292827869  0.19308368966866696  0.13053754242184112  1.0000
  C   C29       1.0  0.7080245836451402  0.09364519216289047  0.19885771442939215  1.0000
  H   H11       1.0  0.8421965652365787  0.21444203950469914  0.8171924813054029  1.0000
  H   H12       1.0  0.8166394667762703  0.12943401218751086  0.37198751366459026  1.0000
  H   H13       1.0  0.8152142599773572  0.7123975250360631  0.37261771836627555  1.0000
  H   H14       1.0  0.8361280012138383  0.8931184923010429  0.7330117736130948  1.0000
  H   H15       1.0  0.829958278619618  0.45585555612891937  0.6132245537646244  1.0000
  H   H16       1.0  0.8300374651085272  0.041861909097203026  0.9691052120715299  1.0000
  H   H17       1.0  0.7656513200776268  0.3374258141547919  0.6442214031046913  1.0000
  H   H18       1.0  0.7385840764191602  0.4182561404711771  0.7853391486067426  1.0000
  H   H19       1.0  0.6836811050965947  0.29759718856389805  0.7190104594087274  1.0000
  H   H20       1.0  0.6607975998916877  0.31526011711749974  0.9541021788749657  1.0000
  H   H21       1.0  0.6259748920046314  0.2349566073228948  0.17506116179723463  1.0000
  H   H22       1.0  0.690850902190596  0.05879009268464631  0.2953810749036112  1.0000
  C   C30       1.0  0.8263454926901842  0.4064395360586504  0.17966364353099684  1.0000
  C   C31       1.0  0.8981890528311787  0.41977660421236856  0.17670019129185777  1.0000
  C   C32       1.0  0.9343382538188859  0.427976449383851  0.05791890501114083  1.0000
  C   C33       1.0  0.8980246442073563  0.41971577059491527  0.941462685897918  1.0000
  C   C34       1.0  0.8262180321367578  0.40626689693894513  0.942429674331736  1.0000
  C   C35       1.0  0.7907745249642122  0.400047988409269  0.062033203739515486  1.0000
  C   C36       1.0  0.010280646625916883  0.44069946087026773  0.054753600074207494  1.0000
  O   O3        1.0  0.044017653541170265  0.38653385561121817  0.968609353999923  1.0000
  C   C37       1.0  0.04794719667181992  0.5148853176662254  0.1492322215619606  1.0000
  C   C38       1.0  0.11504604997527235  0.47692762071312417  0.18682760869278026  1.0000
  C   C39       1.0  0.15179221434652293  0.5465131302149459  0.2747479324288995  1.0000
  O   O4        1.0  0.2183318309702811  0.5033913834363526  0.3094752859374985  1.0000
  C   C40       1.0  0.2614323335694688  0.5644660871175706  0.3975291701548309  1.0000
  C   C41       1.0  0.12105937821861157  0.6564680793760973  0.3249523845647666  1.0000
  C   C42       1.0  0.05476371599238951  0.6957441565991174  0.286840193096916  1.0000
  C   C43       1.0  0.018414494368015573  0.6259183030952095  0.19915753146052254  1.0000
  H   H23       1.0  0.6908851880733627  0.37928114237863264  0.39273036655533283  1.0000
  H   H24       1.0  0.9262019349963411  0.4223510574991156  0.26705978219869264  1.0000
  H   H25       1.0  0.9258792018395352  0.42505675684075045  0.8498395718420868  1.0000
  H   H26       1.0  0.7353883889691482  0.3897652318545848  0.06351409319467116  1.0000
  H   H27       1.0  0.798697862489468  0.40001574411615937  0.6154273339001453  1.0000
  H   H28       1.0  0.13888823179271337  0.3921746309723513  0.14872445163294956  1.0000
  H   H29       1.0  0.31093425895764876  0.51019406522901  0.4070598614372675  1.0000
  H   H30       1.0  0.23659601655157192  0.5631240000307939  0.4949695886236529  1.0000
  H   H31       1.0  0.27201881044693854  0.6662767318015332  0.35981191095325493  1.0000
  H   H32       1.0  0.1480185409316535  0.7124079979723528  0.39293724248576595  1.0000
  H   H33       1.0  0.03156754357075586  0.7809742631783998  0.3249670700591012  1.0000
  H   H34       1.0  0.9675582091161665  0.6595848231856383  0.16936609121880997  1.0000
  Zn  Zn1       1.0  0.7509177801623594  0.4077471177100698  0.561674513197534  1.0000
  Zn  Zn2       1.0  0.9016391684353999  0.4049588246862147  0.5604183068760926  1.0000
  C   C44       1.0  0.8262399682025664  0.40112586739468387  0.798248982116493  1.0000
  C   C45       1.0  0.8263186264459158  0.4115816831511161  0.32384395222632834  1.0000
  C   C46       1.0  0.8263079185328525  0.6435475760595893  0.5559460038699005  1.0000
  C   C47       1.0  0.8262506244837544  0.16915841511288354  0.5661469996516639  1.0000
  O   O5        1.0  0.8835075905588329  0.412243626253082  0.3717554553923561  1.0000
  O   O6        1.0  0.8834450502767551  0.39834669476233114  0.7493836732508792  1.0000
  O   O7        1.0  0.8834991497460178  0.5941053043088322  0.5537223108345675  1.0000
  O   O8        1.0  0.88345343967597  0.21648502697033556  0.567416720861976  1.0000
  O   O9        1.0  0.769103457487978  0.5962209163788716  0.5546760996335016  1.0000
  O   O10       1.0  0.7690493582167786  0.4004638671586205  0.7503373932929212  1.0000
  O   O11       1.0  0.7691118988000063  0.41436075374575526  0.3727076139612644  1.0000
  O   O12       1.0  0.7690577478969319  0.21860214515217694  0.5683689767994267  1.0000
