data_image0
_chemical_formula_structural       NC6NCNCH5C6NCH9C7NH4Zn2C4O8
_chemical_formula_sum              "N5 C26 H18 Zn2 O8"
_cell_length_a       14.933214217465613
_cell_length_b       9.273386996610927
_cell_length_c       9.275157849593905
_cell_angle_alpha    86.01375275156522
_cell_angle_beta     89.70661770832213
_cell_angle_gamma    89.43266693644959

_space_group_name_H-M_alt    "P 1"
_space_group_IT_number       1

loop_
  _space_group_symop_operation_xyz
  'x, y, z'

loop_
  _atom_site_type_symbol
  _atom_site_label
  _atom_site_symmetry_multiplicity
  _atom_site_fract_x
  _atom_site_fract_y
  _atom_site_fract_z
  _atom_site_occupancy
  N   N1        1.0  0.8375103027833961  0.5643942412634682  0.4069322022365187  1.0000
  C   C1        1.0  0.7600163895954385  0.5653817946982571  0.40594030577320717  1.0000
  C   C2        1.0  0.6636133946623158  0.5666130203079087  0.4047035336868756  1.0000
  C   C3        1.0  0.6161399509588956  0.47172731097768295  0.5000259933251037  1.0000
  C   C4        1.0  0.5226025575985335  0.47280026415133986  0.49894813124947657  1.0000
  C   C5        1.0  0.47563645503606033  0.5687045619582385  0.4026024316519854  1.0000
  C   C6        1.0  0.37906865556281577  0.5666151579265113  0.40470145982240924  1.0000
  N   N2        1.0  0.3015894618023866  0.5648721297610759  0.40645213994891805  1.0000
  C   C7        1.0  0.5232042327667762  0.6647884202916712  0.3060764372707634  1.0000
  N   N3        1.0  0.4775238674063615  0.7644698302609798  0.20593647680956706  1.0000
  C   C8        1.0  0.6172255243939756  0.6627581866595167  0.30811613326576826  1.0000
  H   H1        1.0  0.6514142377222566  0.3969163100444115  0.5751812991762093  1.0000
  H   H2        1.0  0.4867935112505949  0.39861858378152926  0.5734710908817353  1.0000
  H   H3        1.0  0.5136190421543895  0.8348744187627684  0.1352077812559227  1.0000
  H   H4        1.0  0.4077627740482225  0.7697737319586315  0.200608233805315  1.0000
  H   H5        1.0  0.6541617682632574  0.7361934757065116  0.23434283472741993  1.0000
  C   C9        1.0  0.0723058182229328  0.14098883935923687  0.40739749778103196  1.0000
  C   C10       1.0  0.08840320088475107  0.22322543415528617  0.2770792815489713  1.0000
  C   C11       1.0  0.09606916759998518  0.1574747811631998  0.1467617317805021  1.0000
  C   C12       1.0  0.08775762163103473  0.007133376586654579  0.14343055997577303  1.0000
  C   C13       1.0  0.07323960916829991  0.9239311320377721  0.2732945041207451  1.0000
  C   C14       1.0  0.06680252361443119  0.9882665022064738  0.40599937958330123  1.0000
  N   N4        1.0  0.0946743112993298  0.9363196031456166  0.010423414224761448  1.0000
  C   C15       1.0  0.10999556556306339  0.012876769406065403  0.8697772862090343  1.0000
  H   H6        1.0  0.089921546467012  0.40543152954545997  0.643975734161218  1.0000
  H   H7        1.0  0.09297565817230763  0.3398589989410137  0.2753065178394427  1.0000
  H   H8        1.0  0.1076430017082022  0.2251455632571708  0.048860763710167454  1.0000
  H   H9        1.0  0.06901942052360835  0.8075038105253459  0.27102545243308307  1.0000
  H   H10       1.0  0.09876596265481301  0.8603196813686922  0.7569662323473727  1.0000
  H   H11       1.0  0.08833482599870607  0.823974748698159  0.013418334884314877  1.0000
  H   H12       1.0  0.0545542273493398  0.09115197143873743  0.8447957640024657  1.0000
  H   H13       1.0  0.17480974436575147  0.07049749584231234  0.8699427911868503  1.0000
  H   H14       1.0  0.1124978593708803  0.9346206608250969  0.7844597074305031  1.0000
  C   C16       1.0  0.07076888514584545  0.5605510660176805  0.9835061542953677  1.0000
  C   C17       1.0  0.14764635949824512  0.6076606723121687  0.05304474382652246  1.0000
  C   C18       1.0  0.21985659382206357  0.6661095900453626  0.9729951678893983  1.0000
  C   C19       1.0  0.21602955637562538  0.6783778015416058  0.8223198459566339  1.0000
  C   C20       1.0  0.14100072745729136  0.6301018797745062  0.7514397379850393  1.0000
  C   C21       1.0  0.06833950030066127  0.5687042557410491  0.829890724796075  1.0000
  C   C22       1.0  0.2975986909051434  0.7152291767109659  0.045837126422844085  1.0000
  N   N5        1.0  0.36008343521727815  0.7547080807871362  0.10438978810803023  1.0000
  H   H15       1.0  0.8532049654431763  0.5116850215073485  0.09164939694426621  1.0000
  H   H16       1.0  0.2714946076984718  0.7240683329529445  0.7593640697595792  1.0000
  H   H17       1.0  0.14075336242009184  0.637686322738797  0.6343629872276391  1.0000
  H   H18       1.0  0.9228326973043144  0.5297471988003297  0.5526990282567876  1.0000
  Zn  Zn1       1.0  0.9714335252516654  0.5645283588335477  0.4068020037998048  1.0000
  Zn  Zn2       1.0  0.16766626757498204  0.5647262910584052  0.40659419238744676  1.0000
  C   C23       1.0  0.06883401613905527  0.5614159656185848  0.6699153786376648  1.0000
  C   C24       1.0  0.07026790731398247  0.5678405080610072  0.1434809537217967  1.0000
  C   C25       1.0  0.06785465281706449  0.8280576781394926  0.4005209210876801  1.0000
  C   C26       1.0  0.0712472147129018  0.30119706294758974  0.41287549103464527  1.0000
  O   O1        1.0  0.14456911849305673  0.5703557318487882  0.19709110483497394  1.0000
  O   O2        1.0  0.14346892412648993  0.5590498754868269  0.6161470904224708  1.0000
  O   O3        1.0  0.1426770676752961  0.7743664439143754  0.3986091585281872  1.0000
  O   O4        1.0  0.1453609082264269  0.355039172632881  0.41462892872974244  1.0000
  O   O5        1.0  0.9937388176356283  0.774215477193025  0.3987672675208416  1.0000
  O   O6        1.0  0.9945306630453006  0.5589006412919391  0.6163051197155944  1.0000
  O   O7        1.0  0.995630862771203  0.5702064306908137  0.19724740157711707  1.0000
  O   O8        1.0  0.9964226522578047  0.3548898621972183  0.414785333534734  1.0000
