data_image0
_chemical_formula_structural       NC5NC4H6C6NH7C9H10Zn2C4O8
_chemical_formula_sum              "N3 C28 H23 Zn2 O8"
_cell_length_a       13.854160002989762
_cell_length_b       9.274771166103582
_cell_length_c       10.297187173949778
_cell_angle_alpha    85.46307945309522
_cell_angle_beta     89.97408711938004
_cell_angle_gamma    90.59704847255895

_space_group_name_H-M_alt    "P 1"
_space_group_IT_number       1

loop_
  _space_group_symop_operation_xyz
  'x, y, z'

loop_
  _atom_site_type_symbol
  _atom_site_label
  _atom_site_symmetry_multiplicity
  _atom_site_fract_x
  _atom_site_fract_y
  _atom_site_fract_z
  _atom_site_occupancy
  N   N1        1.0  0.9204025778228693  0.5784639127778772  0.5645723840439325  1.0000
  C   C1        1.0  0.8482636550322016  0.6036735069045124  0.5113248946330491  1.0000
  C   C2        1.0  0.7585218223036506  0.6350349256808162  0.4450829794399907  1.0000
  C   C3        1.0  0.6707232158762586  0.6055547099230449  0.509760442322229  1.0000
  C   C4        1.0  0.583379410039388  0.6350349400101921  0.44508295853587115  1.0000
  C   C5        1.0  0.4931555126121763  0.6036733595680246  0.5113249774347643  1.0000
  N   N2        1.0  0.42062900678199966  0.5784638492687788  0.5645723840702566  1.0000
  C   C6        1.0  0.5838710705317949  0.6946018938783736  0.3157441307063498  1.0000
  C   C7        1.0  0.6716519786384925  0.7262326332169209  0.2509699241475718  1.0000
  C   C8        1.0  0.6721161445052877  0.7860393847623077  0.1112780935147071  1.0000
  C   C9        1.0  0.7589481595854853  0.6946018925419069  0.3157440493598425  1.0000
  H   H1        1.0  0.6703672082239172  0.5593397295079474  0.6098665030641437  1.0000
  H   H2        1.0  0.5161669337593722  0.7163858203222025  0.2655631015350317  1.0000
  H   H3        1.0  0.7374532102919551  0.8542101898133437  0.0897321442797512  1.0000
  H   H4        1.0  0.607744732626718  0.8542101916984091  0.08973220292387141  1.0000
  H   H5        1.0  0.6715061379271029  0.6954890687554889  0.04695030163531546  1.0000
  H   H6        1.0  0.8269898936520637  0.7163859328170044  0.2655630243733549  1.0000
  C   C10       1.0  0.1675568219179535  0.15486742261294095  0.5652804279562372  1.0000
  C   C11       1.0  0.14538450012855342  0.23816029670014902  0.44911822559291703  1.0000
  C   C12       1.0  0.1322243986262652  0.17309493163908352  0.3322190249831396  1.0000
  C   C13       1.0  0.14128750402220325  0.02335910372733707  0.3306353149146277  1.0000
  C   C14       1.0  0.16167548661640538  0.9387465836488331  0.4452017881546737  1.0000
  C   C15       1.0  0.17348393874588353  0.002049268517338775  0.5638756514701158  1.0000
  N   N3        1.0  0.11064553356017082  0.25948712908735705  0.21478013275873464  1.0000
  H   H7        1.0  0.27609027522685103  0.2345665874590579  0.8495650780230457  1.0000
  H   H8        1.0  0.1405178642492497  0.35475293724266654  0.4486192518118273  1.0000
  H   H9        1.0  0.1316189720752945  0.9718595864713016  0.24069317406412052  1.0000
  H   H10       1.0  0.165930495123213  0.8225820591448298  0.44148158200395665  1.0000
  H   H11       1.0  0.2426727829834658  0.7050093879564301  0.7572898692206133  1.0000
  H   H12       1.0  0.10399524098053825  0.37156102547020986  0.21473794184031528  1.0000
  H   H13       1.0  0.10106715684843426  0.2120051115914496  0.12697422475957354  1.0000
  C   C16       1.0  0.17064761381796023  0.5784061848490154  0.18312495916051508  1.0000
  C   C17       1.0  0.07310731831037429  0.6180268346799952  0.17957734398888436  1.0000
  C   C18       1.0  0.023134548311782847  0.6383254194670663  0.06114339280264815  1.0000
  C   C19       1.0  0.07272920032148833  0.6181798704493392  0.9443543651178541  1.0000
  C   C20       1.0  0.17039314195681024  0.5785104968345363  0.9460310958646715  1.0000
  C   C21       1.0  0.2187145571224522  0.558881288502837  0.06580494032724095  1.0000
  C   C22       1.0  0.9176376863034192  0.681177688875632  0.06673856392219579  1.0000
  C   C23       1.0  0.8496566850849845  0.6231583550007784  0.966562923177238  1.0000
  C   C24       1.0  0.8794723103079494  0.7822973791964618  0.9551995390171701  1.0000
  H   H14       1.0  0.20823570784941325  0.5631521684238769  0.5120293577836632  1.0000
  H   H15       1.0  0.035451489439132455  0.6333229407144116  0.2696301275026678  1.0000
  H   H16       1.0  0.036118247867644726  0.6330478274873084  0.8517226085371687  1.0000
  H   H17       1.0  0.293968749478825  0.5283124073104906  0.06781465390154051  1.0000
  H   H18       1.0  0.3548490372941975  0.503567762034792  0.7419828501398822  1.0000
  H   H19       1.0  0.8837294256994809  0.6949523525625305  0.16279300289162182  1.0000
  H   H20       1.0  0.881889443538764  0.5580511071689698  0.8921459043669269  1.0000
  H   H21       1.0  0.7745015407408631  0.6036403197140414  0.001713862341873314  1.0000
  H   H22       1.0  0.9298169028837291  0.8138582063536501  0.8738808143799753  1.0000
  H   H23       1.0  0.8217422282139056  0.8557895312353383  0.9837066626567643  1.0000
  Zn  Zn1       1.0  0.06475709576392828  0.5784600335136234  0.5645798998345266  1.0000
  Zn  Zn2       1.0  0.2762744038730742  0.5784559259334181  0.5645755559742602  1.0000
  C   C25       1.0  0.17039887574515755  0.5727442161432545  0.8018350263634716  1.0000
  C   C26       1.0  0.17063494634533735  0.5841735633340732  0.3273205538744228  1.0000
  C   C27       1.0  0.17236033412311744  0.8419131278910295  0.5589648481364388  1.0000
  C   C28       1.0  0.16867340364320604  0.3150029185282013  0.570190804230636  1.0000
  O   O1        1.0  0.2509003670934494  0.586101296346558  0.3757122746663528  1.0000
  O   O2        1.0  0.25067019018590825  0.570812277317865  0.7534396365580507  1.0000
  O   O3        1.0  0.25225301010742607  0.7881695778653317  0.557320246828033  1.0000
  O   O4        1.0  0.2493174751000837  0.3687440061060728  0.5718315669845877  1.0000
  O   O5        1.0  0.09171395235645562  0.7881719533439397  0.5573238888188463  1.0000
  O   O6        1.0  0.09013114457864589  0.570816385857541  0.7534432064143314  1.0000
  O   O7        1.0  0.09036132171965126  0.5861053544057672  0.37571428286076425  1.0000
  O   O8        1.0  0.08877842961767031  0.3687480538612715  0.5718336725854295  1.0000
