data_image0
_chemical_formula_structural       NC12NC2H8C16H10C12NCOCH13Zn2C4O8
_chemical_formula_sum              "N3 C48 H31 O9 Zn2"
_cell_length_a       17.80743265337812
_cell_length_b       10.29914801576943
_cell_length_c       10.299158637457994
_cell_angle_alpha    85.55741753884429
_cell_angle_beta     91.51607039334635
_cell_angle_gamma    89.44985071264973

_space_group_name_H-M_alt    "P 1"
_space_group_IT_number       1

loop_
  _space_group_symop_operation_xyz
  'x, y, z'

loop_
  _atom_site_type_symbol
  _atom_site_label
  _atom_site_symmetry_multiplicity
  _atom_site_fract_x
  _atom_site_fract_y
  _atom_site_fract_z
  _atom_site_occupancy
  N   N1        1.0  0.7078672909597525  0.4062498493186699  0.6008033113417259  1.0000
  C   C1        1.0  0.6570638055217296  0.435784070036553  0.5320940103892231  1.0000
  C   C2        1.0  0.5938592530182439  0.47252249822964415  0.44662828872211247  1.0000
  C   C3        1.0  0.6056159623133756  0.5264978419481041  0.31998924637296877  1.0000
  C   C4        1.0  0.5443181280586368  0.5617334982612221  0.23692005925486487  1.0000
  C   C5        1.0  0.4711094353982789  0.5432570375463437  0.27982991884002484  1.0000
  C   C6        1.0  0.4583758531510986  0.4891630652343944  0.4069371435939615  1.0000
  C   C7        1.0  0.5205310068839273  0.45393065659414433  0.4899898179809363  1.0000
  C   C8        1.0  0.3805982907212768  0.4695735107922172  0.45270769105647246  1.0000
  C   C9        1.0  0.3617938980875329  0.496812219013644  0.5797398280669517  1.0000
  C   C10       1.0  0.2885552580863707  0.47837735104866996  0.6226902339144811  1.0000
  C   C11       1.0  0.23317785986984477  0.43244981272827127  0.5394465586719901  1.0000
  C   C12       1.0  0.1578022939699638  0.4134626263062793  0.5837980876351316  1.0000
  N   N2        1.0  0.0972056767509168  0.39819820537458034  0.6194536658439085  1.0000
  C   C13       1.0  0.2512906414193842  0.4050423923778724  0.4129574494762352  1.0000
  C   C14       1.0  0.32447647293368564  0.42349194599337087  0.3697511542616243  1.0000
  H   H1        1.0  0.6620896686436181  0.5413092334764635  0.2855469603281755  1.0000
  H   H2        1.0  0.5535390053244571  0.6037954234058924  0.13912596397422441  1.0000
  H   H3        1.0  0.42448557115050223  0.5728691008860121  0.21422849302842975  1.0000
  H   H4        1.0  0.5120083477801735  0.4104832590547025  0.5876600070595701  1.0000
  H   H5        1.0  0.40346391057024245  0.5340204727730722  0.6452976405010821  1.0000
  H   H6        1.0  0.27509778949217784  0.5002634342581014  0.7206893472454663  1.0000
  H   H7        1.0  0.20890384876116433  0.3691016887021774  0.3478120941614682  1.0000
  H   H8        1.0  0.3374052876541027  0.40007030827446877  0.27205596849335767  1.0000
  C   C15       1.0  0.9024865532678793  0.020823755349722587  0.6102916278552404  1.0000
  C   C16       1.0  0.8853580989007585  0.03072976409145611  0.475995934666603  1.0000
  C   C17       1.0  0.8767288457648068  0.9186213599631553  0.40774320819499993  1.0000
  C   C18       1.0  0.885458458739347  0.7954757309984812  0.47559614817220464  1.0000
  C   C19       1.0  0.90259359387155  0.783614171804572  0.6099769150533849  1.0000
  C   C20       1.0  0.9110034795250309  0.896806226567259  0.6764972918107564  1.0000
  C   C21       1.0  0.8586091921790008  0.9301463243670255  0.2656745697864089  1.0000
  C   C22       1.0  0.8941683525501559  0.8483958321705914  0.18215947710615232  1.0000
  C   C23       1.0  0.8770885134331339  0.8593684510420181  0.048448690205945555  1.0000
  C   C24       1.0  0.824274216685062  0.9519948608331446  0.9964403271131266  1.0000
  C   C25       1.0  0.7885783090417953  0.033728044122832035  0.07866491666602715  1.0000
  C   C26       1.0  0.8056045810347806  0.022997806115397926  0.21239408433171314  1.0000
  C   C27       1.0  0.8067182323189899  0.9631669001498501  0.8587739503774414  1.0000
  C   C28       1.0  0.7920152845765283  0.9725233760061602  0.7434803483278536  1.0000
  C   C29       1.0  0.774798306433078  0.9834796834143708  0.6084727171339313  1.0000
  C   C30       1.0  0.7600978264072815  0.9928347375795025  0.49319774122648585  1.0000
  H   H9        1.0  0.9090362524640822  0.3444888838822164  0.6619597473355375  1.0000
  H   H10       1.0  0.8797003555033446  0.12588380335601834  0.42381435995683187  1.0000
  H   H11       1.0  0.8778615325131843  0.7087214640143096  0.4238162676473205  1.0000
  H   H12       1.0  0.9242128985442443  0.8884496227788796  0.7800837575404117  1.0000
  H   H13       1.0  0.9344699981639392  0.5539292217701474  0.8637695199543762  1.0000
  H   H14       1.0  0.9358943785564752  0.7771408824550048  0.2200082817765774  1.0000
  H   H15       1.0  0.9052068707588079  0.7958414252328828  0.9856201941869532  1.0000
  H   H16       1.0  0.7474500730366247  0.10553450060469527  0.03947484253417066  1.0000
  H   H17       1.0  0.7766106131517713  0.08615284973236668  0.2743778416904999  1.0000
  H   H18       1.0  0.7471896215223296  0.001049264180921887  0.3919765950394649  1.0000
  C   C31       1.0  0.9026104911405822  0.402079534098978  0.22876459661679177  1.0000
  C   C32       1.0  0.9043751747287996  0.5387579121564465  0.21747825564458115  1.0000
  C   C33       1.0  0.9052109507568565  0.6081968290009601  0.09459541013934337  1.0000
  C   C34       1.0  0.9042314114877615  0.5391207855423867  0.9821597395103003  1.0000
  C   C35       1.0  0.9024696651766755  0.40235843072502225  0.9915039502232262  1.0000
  C   C36       1.0  0.9016733371373247  0.3346786564823372  0.11519459332960372  1.0000
  C   C37       1.0  0.9070786697447358  0.7527857626447505  0.083629428008138  1.0000
  C   C38       1.0  0.9531981381581308  0.8196716645099544  0.16837760411463454  1.0000
  C   C39       1.0  0.9549618827572751  0.9557373500832057  0.15792747260418905  1.0000
  C   C40       1.0  0.9111175582668001  0.027635460296568052  0.06164789076439847  1.0000
  C   C41       1.0  0.8641034824916812  0.9611284777949632  0.9786397888951281  1.0000
  C   C42       1.0  0.8623705847770222  0.8250900661189053  0.9888303994891975  1.0000
  N   N3        1.0  0.9108503206229747  0.167698856707295  0.050340979340757666  1.0000
  C   C43       1.0  0.9752265409095239  0.24536213786897412  0.07662320691044622  1.0000
  O   O1        1.0  0.03999176221187328  0.19460591019991869  0.08826248399727565  1.0000
  C   C44       1.0  0.966434414572018  0.3893713269759563  0.08074428861786176  1.0000
  H   H19       1.0  0.901955254552484  0.3495048348459162  0.5605827076936354  1.0000
  H   H20       1.0  0.9040541829817602  0.591586284085127  0.30439158406481615  1.0000
  H   H21       1.0  0.9058675451276426  0.5921050554688523  0.8872442734545589  1.0000
  H   H22       1.0  0.9003147671757232  0.22925537702812093  0.12318523786119308  1.0000
  H   H23       1.0  0.8996005341185609  0.14420182998171094  0.801870296336153  1.0000
  H   H24       1.0  0.9883517414681109  0.7667131994171226  0.24227599519467002  1.0000
  H   H25       1.0  0.989635154254169  0.0043640676474097015  0.2265992365596341  1.0000
  H   H26       1.0  0.8289713924060405  0.014961579636181284  0.9053113519686353  1.0000
  H   H27       1.0  0.8252361134926359  0.7764674628771653  0.9237249992166771  1.0000
  H   H28       1.0  0.8621584354975962  0.21616484672286781  0.01304187734676709  1.0000
  H   H29       1.0  0.9136124363682496  0.4121802252126501  0.12962267507395442  1.0000
  H   H30       1.0  0.9644211465871653  0.4360842670725451  0.9799094814608296  1.0000
  H   H31       1.0  0.014368684496178783  0.42915113666166427  0.13567812753767794  1.0000
  Zn  Zn1       1.0  0.8202219403967614  0.4039228539742723  0.6061928891590382  1.0000
  Zn  Zn2       1.0  0.9848510213773647  0.40051461026362434  0.6140746854697677  1.0000
  C   C45       1.0  0.902493879938302  0.3971316249675605  0.8473319094847551  1.0000
  C   C46       1.0  0.902580879786714  0.40730744085305925  0.37293587800354544  1.0000
  C   C47       1.0  0.902570455819811  0.6394287445166442  0.6048610135984149  1.0000
  C   C48       1.0  0.902504247497035  0.16500876206168114  0.6154068410830036  1.0000
  O   O2        1.0  0.965046819411142  0.4077628971849687  0.42431218001942317  1.0000
  O   O3        1.0  0.964977603452039  0.3940884105810852  0.8019373350538841  1.0000
  O   O4        1.0  0.9650385969907432  0.5897464168117938  0.6061403302245727  1.0000
  O   O5        1.0  0.964985769714967  0.21210490137264482  0.6201090847805188  1.0000
  O   O6        1.0  0.8400871358793349  0.5923325640297294  0.6001584871517849  1.0000
  O   O7        1.0  0.8400261425689766  0.39667611820579274  0.7959554220914759  1.0000
  O   O8        1.0  0.8400953588599808  0.4103505589780836  0.418328705674339  1.0000
  O   O9        1.0  0.8400343091414524  0.21469255391185293  0.6141257078071489  1.0000
