data_image0
_chemical_formula_structural       NC5NC4H6C7NH5C6ClH4Zn2C4O8
_chemical_formula_sum              "N3 C26 H15 Cl1 Zn2 O8"
_cell_length_a       13.854160002989762
_cell_length_b       9.275154477615127
_cell_length_c       9.276548810779735
_cell_angle_alpha    86.30571482512589
_cell_angle_beta     89.72476968690219
_cell_angle_gamma    89.43370676253429

_space_group_name_H-M_alt    "P 1"
_space_group_IT_number       1

loop_
  _space_group_symop_operation_xyz
  'x, y, z'

loop_
  _atom_site_type_symbol
  _atom_site_label
  _atom_site_symmetry_multiplicity
  _atom_site_fract_x
  _atom_site_fract_y
  _atom_site_fract_z
  _atom_site_occupancy
  N   N1        1.0  0.9036562146375028  0.5634353552075091  0.4167513336353554  1.0000
  C   C1        1.0  0.8313498431346188  0.5881020135803605  0.35782730390509604  1.0000
  C   C2        1.0  0.7413997016269378  0.6187879996176378  0.2845235536218962  1.0000
  C   C3        1.0  0.6537889633186761  0.5899667669854152  0.35610267500876297  1.0000
  C   C4        1.0  0.5662572892366174  0.6187880137319317  0.28452353051492474  1.0000
  C   C5        1.0  0.4762417024465366  0.5881018671353488  0.357827394907845  1.0000
  N   N2        1.0  0.40388264446081246  0.5634352917263903  0.4167513332967909  1.0000
  C   C6        1.0  0.5663649065150363  0.6770368974695116  0.14138665820345842  1.0000
  C   C7        1.0  0.6539290000930206  0.7080067487084098  0.06971266761668282  1.0000
  C   C8        1.0  0.6540400049744759  0.7663919006274491  0.9150920975916788  1.0000
  C   C9        1.0  0.741441995855205  0.6770368953209891  0.14138656795410753  1.0000
  H   H1        1.0  0.6537317114344646  0.5447719990283217  0.4668875445855591  1.0000
  H   H2        1.0  0.49852982578313626  0.6983100166195213  0.0858445636770453  1.0000
  H   H3        1.0  0.7185204270380833  0.8343177143415599  0.8915848978532694  1.0000
  H   H4        1.0  0.5888119491537774  0.8343177168116477  0.891584962920942  1.0000
  H   H5        1.0  0.6548744171096368  0.675238477747738  0.8432058112479806  1.0000
  H   H6        1.0  0.8093527843994267  0.6983101282943966  0.08584447872930201  1.0000
  C   C10       1.0  0.15657265258549533  0.14003080204690255  0.41508384160209344  1.0000
  C   C11       1.0  0.1304945237695072  0.22205010619383828  0.2880304552398356  1.0000
  C   C12       1.0  0.09654327666264567  0.15491333720302936  0.167707275470667  1.0000
  C   C13       1.0  0.08810928799112316  0.00484131359481843  0.17302041570669568  1.0000
  C   C14       1.0  0.11509150232365783  0.9215878979374784  0.2971777214207916  1.0000
  C   C15       1.0  0.15097548703494934  0.9868288777702974  0.41843132247099635  1.0000
  C   C16       1.0  0.06918601607802422  0.24050047541337038  0.03912256441492844  1.0000
  N   N3        1.0  0.04719837594011888  0.3092969291497767  0.9357733934037021  1.0000
  H   H7        1.0  0.17412950192722554  0.21993067863142787  0.7687985146519303  1.0000
  H   H8        1.0  0.13445044070858514  0.3389704765103485  0.283754810474504  1.0000
  H   H9        1.0  0.06150130970719746  0.9518705915646597  0.08054449511896244  1.0000
  H   H10       1.0  0.11002343204907801  0.8051191449485247  0.29705090464190675  1.0000
  H   H11       1.0  0.16689682082252322  0.690222032435129  0.6554302150284189  1.0000
  C   C17       1.0  0.15516009851414259  0.5595670536193098  0.9935929369771235  1.0000
  C   C18       1.0  0.23576521926547836  0.6143757828772098  0.06291607612031469  1.0000
  C   C19       1.0  0.3108856860390692  0.6799307933895704  0.9829427515403366  1.0000
  C   C20       1.0  0.3065269378113755  0.6917804978277724  0.8325500677294192  1.0000
  C   C21       1.0  0.22803165075129844  0.6359603937560911  0.7615738243882944  1.0000
  C   C22       1.0  0.15238801186057227  0.5672925443295389  0.839922213324662  1.0000
  Cl  Cl1       1.0  0.41007509626579985  0.7493558263124362  0.07172166519038536  1.0000
  H   H12       1.0  0.03911448991245381  0.39818431491690087  0.2859571158599743  1.0000
  H   H13       1.0  0.36446516854963934  0.7430721549489443  0.7702635748483218  1.0000
  H   H14       1.0  0.22762803241612659  0.6434836870420481  0.6445552731891347  1.0000
  H   H15       1.0  0.9976884606710209  0.5144315756220095  0.5631171426783497  1.0000
  Zn  Zn1       1.0  0.04801076058164154  0.5634315527177716  0.41675964880105787  1.0000
  Zn  Zn2       1.0  0.2595281389155557  0.5634274035357041  0.4167548061607971  1.0000
  C   C23       1.0  0.1529478267960749  0.5600883706358546  0.6799251272110833  1.0000
  C   C24       1.0  0.15459336997627915  0.5667724060966461  0.1535894763254122  1.0000
  C   C25       1.0  0.15204730656542814  0.8267135788077125  0.41205620279077343  1.0000
  C   C26       1.0  0.15549382922925092  0.3001454663435825  0.42145847072632714  1.0000
  O   O1        1.0  0.23467295502472507  0.5691827233799476  0.20728391389475706  1.0000
  O   O2        1.0  0.23340504627233244  0.5576738127222689  0.6262265950727728  1.0000
  O   O3        1.0  0.2326767778151585  0.7729770539558567  0.4099205493374656  1.0000
  O   O4        1.0  0.23540115159106523  0.35387949147571485  0.42358985162615204  1.0000
  O   O5        1.0  0.072137675725646  0.7729794647806774  0.4099246033297823  1.0000
  O   O6        1.0  0.07286593298000921  0.5576779551312112  0.6262305790785636  1.0000
  O   O7        1.0  0.07413384780339148  0.5691867997297013  0.20728616518124543  1.0000
  O   O8        1.0  0.07486204408007957  0.35388355849902964  0.423592210910632  1.0000
