data_image0
_chemical_formula_structural       NC5NC3H4C10H6C6SCH7Zn2C4O8
_chemical_formula_sum              "N2 C29 H17 S1 Zn2 O8"
_cell_length_a       13.859018345313864
_cell_length_b       9.275150299802176
_cell_length_c       9.275274088470228
_cell_angle_alpha    85.77620997522486
_cell_angle_beta     89.72578063474123
_cell_angle_gamma    89.48388887768701

_space_group_name_H-M_alt    "P 1"
_space_group_IT_number       1

loop_
  _space_group_symop_operation_xyz
  'x, y, z'

loop_
  _atom_site_type_symbol
  _atom_site_label
  _atom_site_symmetry_multiplicity
  _atom_site_fract_x
  _atom_site_fract_y
  _atom_site_fract_z
  _atom_site_occupancy
  N   N1        1.0  0.9042824771300148  0.5638800514612006  0.40151024138275493  1.0000
  C   C1        1.0  0.8319986618251249  0.5248067519012747  0.45297344061340894  1.0000
  C   C2        1.0  0.7420818344926882  0.47620480125085646  0.5169868147971552  1.0000
  C   C3        1.0  0.6543809262344475  0.5235860141126509  0.45458161286278886  1.0000
  C   C4        1.0  0.566851532178046  0.4762045094803713  0.5169866909304074  1.0000
  C   C5        1.0  0.4767587831949161  0.5248066382383818  0.452973343968714  1.0000
  N   N2        1.0  0.40433357500133127  0.5638800168916636  0.4015101725689456  1.0000
  C   C6        1.0  0.5672055506209485  0.38142778068896016  0.6418156413682101  1.0000
  C   C7        1.0  0.6547235872927057  0.3342289602894817  0.703980692779516  1.0000
  C   C8        1.0  0.7420708917354888  0.3814280779202628  0.6418158432914183  1.0000
  H   H1        1.0  0.654248112775445  0.5969457876209765  0.3579606474117194  1.0000
  H   H2        1.0  0.49997757252168756  0.34413391496580337  0.6909343820607626  1.0000
  H   H3        1.0  0.6548560677052477  0.2610181222107921  0.8004056917030622  1.0000
  H   H4        1.0  0.8094338296156851  0.34413444920551367  0.6909348042357621  1.0000
  C   C9        1.0  0.15685066562653827  0.14019738317835453  0.4039227414942621  1.0000
  C   C10       1.0  0.2079482916050739  0.2212144116866881  0.2948984254566971  1.0000
  C   C11       1.0  0.25078901157047184  0.15397722052810403  0.18033363663625443  1.0000
  C   C12       1.0  0.24296784296188245  0.004743100720421947  0.1733175172193513  1.0000
  C   C13       1.0  0.19397887311531153  0.9222760826308815  0.28169417327601964  1.0000
  C   C14       1.0  0.1517745976398479  0.9875516298846455  0.39911023937637546  1.0000
  C   C15       1.0  0.3019064806895837  0.23871272138228708  0.06881659065300694  1.0000
  C   C16       1.0  0.3447047047567895  0.30968134034969125  0.9754535798979321  1.0000
  C   C17       1.0  0.3948194399487144  0.3927905735389264  0.866129566065528  1.0000
  C   C18       1.0  0.43760941230603495  0.4637538802642651  0.7727844523433718  1.0000
  H   H5        1.0  0.11035113280443574  0.40469365870142626  0.6327605983309039  1.0000
  H   H6        1.0  0.21257705638424215  0.33768391022453814  0.29712466229711687  1.0000
  H   H7        1.0  0.2756014360294805  0.951756353116514  0.08466844148351083  1.0000
  H   H8        1.0  0.1910482899613435  0.8062169578714943  0.27547256585991686  1.0000
  H   H9        1.0  0.08796098370479609  0.8603313044308795  0.74150105010242  1.0000
  H   H10       1.0  0.47518257725353913  0.5260656897984033  0.6908197326802394  1.0000
  C   C19       1.0  0.15569169805133254  0.5598541999714624  0.9783424071128385  1.0000
  C   C20       1.0  0.2375566011309904  0.6106388161745735  0.04740231691368968  1.0000
  C   C21       1.0  0.3139935060161029  0.6729180256628449  0.9669845350376276  1.0000
  C   C22       1.0  0.3098461193342257  0.684550989982065  0.8163583404969676  1.0000
  C   C23       1.0  0.23004963040922233  0.6326742561452503  0.7458017211602548  1.0000
  C   C24       1.0  0.15293359924922068  0.567894867324495  0.8246905646620748  1.0000
  S   S1        1.0  0.41723154526590833  0.7383330177297225  0.057301359751475996  1.0000
  C   C25       1.0  0.36655444402526616  0.9189220914735157  0.06800788151860049  1.0000
  H   H11       1.0  0.9223933481853542  0.5004894187275637  0.0873842926577868  1.0000
  H   H12       1.0  0.36884618517036577  0.732892127511867  0.7535859126968525  1.0000
  H   H13       1.0  0.2297213303756809  0.6401493001467151  0.6286998035891571  1.0000
  H   H14       1.0  0.9970487981205868  0.5220399250909091  0.5480362046667179  1.0000
  H   H15       1.0  0.35245948192189114  0.9693421930467644  0.9577594327082727  1.0000
  H   H16       1.0  0.2983718484446872  0.9135024148204414  0.13140423394277478  1.0000
  H   H17       1.0  0.41886317244765303  0.9862403359018435  0.12262486783507431  1.0000
  Zn  Zn1       1.0  0.04858641674952068  0.5638762479396096  0.4015185745060514  1.0000
  Zn  Zn2       1.0  0.2600296442132837  0.5638720919407155  0.401513742592261  1.0000
  C   C26       1.0  0.1534872131088374  0.560627276624496  0.6647452870921076  1.0000
  C   C27       1.0  0.15513114544131623  0.5671228849824068  0.13828716105356564  1.0000
  C   C28       1.0  0.15274785406286348  0.8273291062999178  0.3942774331996972  1.0000
  C   C29       1.0  0.15587044247011073  0.30041932261652793  0.4087551016209874  1.0000
  O   O1        1.0  0.23518465944767497  0.5695544505238237  0.19196428365190196  1.0000
  O   O2        1.0  0.23391422415623617  0.558191464410076  0.6110640885381107  1.0000
  O   O3        1.0  0.23331609579790036  0.7735565790346888  0.39265937441956633  1.0000
  O   O4        1.0  0.23578271594504518  0.3541893451951177  0.41036888966472485  1.0000
  O   O5        1.0  0.07283327286257867  0.7735589946881243  0.3926634274276472  1.0000
  O   O6        1.0  0.073431391082913  0.5581956127568863  0.6110680548652401  1.0000
  O   O7        1.0  0.07470183238582148  0.5695585321334173  0.19196651770517215  1.0000
  O   O8        1.0  0.07529988858897618  0.35419341751172173  0.4103712318177768  1.0000
