data_image0
_chemical_formula_structural       NC9NC4H8C7NC2NH7C7OCH10Zn2C4O8
_chemical_formula_sum              "N4 C34 H25 O9 Zn2"
_cell_length_a       16.32274767691083
_cell_length_b       9.273995741505848
_cell_length_c       10.300835455316063
_cell_angle_alpha    85.71363745915025
_cell_angle_beta     89.48565492192432
_cell_angle_gamma    90.10890436374608

_space_group_name_H-M_alt    "P 1"
_space_group_IT_number       1

loop_
  _space_group_symop_operation_xyz
  'x, y, z'

loop_
  _atom_site_type_symbol
  _atom_site_label
  _atom_site_symmetry_multiplicity
  _atom_site_fract_x
  _atom_site_fract_y
  _atom_site_fract_z
  _atom_site_occupancy
  N   N1        1.0  0.7802688938878272  0.5675446163710285  0.5604818461800971  1.0000
  C   C1        1.0  0.7276266273907535  0.5148586157546253  0.5060819729470694  1.0000
  C   C2        1.0  0.6621920416973093  0.4494221928043789  0.4385168954179457  1.0000
  C   C3        1.0  0.6732237229512338  0.35991684270736557  0.3460956012283496  1.0000
  C   C4        1.0  0.5936038247988652  0.31623775786656566  0.300997074462257  1.0000
  C   C5        1.0  0.5350429458736428  0.3801610930913837  0.3670052233937557  1.0000
  C   C6        1.0  0.4450071053888073  0.36326673087890526  0.34956339084466487  1.0000
  C   C7        1.0  0.3898449454637186  0.43777350491797096  0.4264927590188059  1.0000
  C   C8        1.0  0.3050523719203312  0.4233347710206754  0.41158586417693227  1.0000
  C   C9        1.0  0.249491621046448  0.50013202016492  0.4908794151467979  1.0000
  N   N2        1.0  0.20483964513250072  0.561864371116628  0.55461800103246  1.0000
  C   C10       1.0  0.2743682185852083  0.3342687628651442  0.31962580985635  1.0000
  C   C11       1.0  0.32820903473882346  0.2598606785623183  0.24279868149010664  1.0000
  C   C12       1.0  0.4128405480503148  0.27391049967356107  0.25730389690146227  1.0000
  C   C13       1.0  0.5733396014737158  0.4733683717334732  0.46324643151177697  1.0000
  H   H1        1.0  0.7319286431017573  0.3251124322720693  0.31015506062194187  1.0000
  H   H2        1.0  0.5848827361576722  0.24308514674764448  0.225461081204672  1.0000
  H   H3        1.0  0.41236208747541914  0.5073045392704005  0.49828319093775764  1.0000
  H   H4        1.0  0.2089072295712107  0.3223742373567573  0.3073458450633133  1.0000
  H   H5        1.0  0.3042995140560742  0.19095981780517501  0.17165915764178852  1.0000
  H   H6        1.0  0.4522753586595191  0.21438882194419095  0.19584753385262088  1.0000
  H   H7        1.0  0.5563606980459835  0.43481065366285354  0.5646501419553733  1.0000
  H   H8        1.0  0.5572240424084762  0.5889118957603227  0.44133665702988956  1.0000
  C   C14       1.0  0.9901078986561572  0.14124801861765152  0.5566351485734438  1.0000
  C   C15       1.0  0.004470377825888775  0.2242676015754488  0.4390075597146989  1.0000
  C   C16       1.0  0.02616437775598412  0.15883945540634706  0.3261491096624045  1.0000
  C   C17       1.0  0.034401115793071264  0.008283528424678058  0.3276905740872751  1.0000
  C   C18       1.0  0.018318142466263728  0.9240091427222629  0.4442662528911432  1.0000
  C   C19       1.0  0.9950084296499467  0.9881496739636828  0.5584757750962364  1.0000
  C   C20       1.0  0.05839133454140754  0.9409400397482887  0.20669404719673617  1.0000
  N   N3        1.0  0.061353904189447965  0.015160337787563538  0.08866240433402761  1.0000
  C   C21       1.0  0.08591218978088544  0.9169272524510301  0.006657138231991099  1.0000
  C   C22       1.0  0.09761448681518403  0.7858706231249073  0.07542868951750425  1.0000
  N   N4        1.0  0.08034184953762402  0.8011267462246258  0.20121571105076927  1.0000
  H   H9        1.0  0.9237052218274093  0.40677710927139044  0.7444329208137861  1.0000
  H   H10       1.0  0.000904932492989952  0.34115830789154433  0.4348687933290498  1.0000
  H   H11       1.0  0.03771056266293038  0.2268665168800461  0.2377808199796274  1.0000
  H   H12       1.0  0.021092568758965355  0.807410297072798  0.44602740927092444  1.0000
  H   H13       1.0  0.996120157343261  0.6901490891311626  0.7743950705131619  1.0000
  H   H14       1.0  0.09495701810959045  0.9398062737025032  0.9030056671611653  1.0000
  H   H15       1.0  0.08480826930146601  0.7205420856994692  0.27705559523974777  1.0000
  C   C23       1.0  0.992483298131568  0.5646262956062826  0.176239803338043  1.0000
  C   C24       1.0  0.06810453515954729  0.6373950158391399  0.16942524341877374  1.0000
  C   C25       1.0  0.10572564135436147  0.6755792486580716  0.048779622824332895  1.0000
  C   C26       1.0  0.068301308671745  0.6375840188036663  0.9341241725631123  1.0000
  C   C27       1.0  0.9926330446704176  0.5647714314801777  0.9388711705454262  1.0000
  C   C28       1.0  0.955078833509973  0.5290308503403673  0.06035726836338839  1.0000
  C   C29       1.0  0.18775735240590663  0.7496485053033478  0.04285076510263219  1.0000
  O   O1        1.0  0.24975747493865771  0.6435576871713704  0.04926536848968909  1.0000
  C   C30       1.0  0.3271109372130407  0.7117394722960828  0.04381308389592053  1.0000
  H   H16       1.0  0.963968744352454  0.5352555441770226  0.5063429770642471  1.0000
  H   H17       1.0  0.09806158840763984  0.6646463434846406  0.2578123095008127  1.0000
  H   H18       1.0  0.09839333187790665  0.6649664126473238  0.8413348441660728  1.0000
  H   H19       1.0  0.8967603310967733  0.4728974896744405  0.0648505384866207  1.0000
  H   H20       1.0  0.8503370274168391  0.42597312198580956  0.7406666461755029  1.0000
  H   H21       1.0  0.19249998799968449  0.8199763847473525  0.12562649889332955  1.0000
  H   H22       1.0  0.19268993639122778  0.8199958398591751  0.9505098771190337  1.0000
  H   H23       1.0  0.3751578989987425  0.6271230257983154  0.04893784306119442  1.0000
  H   H24       1.0  0.3357855474889382  0.7785854400000334  0.12798703724248872  1.0000
  H   H25       1.0  0.33598593059468107  0.778642912938464  0.9504733891888364  1.0000
  Zn  Zn1       1.0  0.902790826748649  0.5659015514756107  0.5587971576666982  1.0000
  Zn  Zn2       1.0  0.08231765206161179  0.5634956049732663  0.5563133015225851  1.0000
  C   C31       1.0  0.9925696568060931  0.5589993962982889  0.7947050319524825  1.0000
  C   C32       1.0  0.9925407929846783  0.5703995533579409  0.3204055315162213  1.0000
  C   C33       1.0  0.9940768911769629  0.8280663477482634  0.5529534873839793  1.0000
  C   C34       1.0  0.9910334873424922  0.3013308702461559  0.5621571423958562  1.0000
  O   O2        1.0  0.06068954697454676  0.5714177762329984  0.3678462427281979  1.0000
  O   O3        1.0  0.06067760289268053  0.5561540277829491  0.7453787552414869  1.0000
  O   O4        1.0  0.061893795555652664  0.7734290064600944  0.5501626885359023  1.0000
  O   O5        1.0  0.05947329309180471  0.3541428086737896  0.5630622129427005  1.0000
  O   O6        1.0  0.9256351244547687  0.775254348597687  0.5520482470873747  1.0000
  O   O7        1.0  0.924418941799426  0.5579811024049518  0.7472642483226193  1.0000
  O   O8        1.0  0.924430885338496  0.5732448003067594  0.36973017451666546  1.0000
  O   O9        1.0  0.9232146314118372  0.35596982245221365  0.5649462420630418  1.0000
