data_image0
_chemical_formula_structural       NC9NC4H8C7F3H5C6OCH7Zn2C4O8
_chemical_formula_sum              "N2 C31 H20 F3 O9 Zn2"
_cell_length_a       16.32274767691083
_cell_length_b       9.272718291674593
_cell_length_c       9.27389158865715
_cell_angle_alpha    86.50478335773057
_cell_angle_beta     89.15205086511824
_cell_angle_gamma    89.10298441660798

_space_group_name_H-M_alt    "P 1"
_space_group_IT_number       1

loop_
  _space_group_symop_operation_xyz
  'x, y, z'

loop_
  _atom_site_type_symbol
  _atom_site_label
  _atom_site_symmetry_multiplicity
  _atom_site_fract_x
  _atom_site_fract_y
  _atom_site_fract_z
  _atom_site_occupancy
  N   N1        1.0  0.7699762220892074  0.5532236420652921  0.41002258571035166  1.0000
  C   C1        1.0  0.7180660717060304  0.5000042796977606  0.34935629581048966  1.0000
  C   C2        1.0  0.6535407799689092  0.433905417187152  0.2740082787332705  1.0000
  C   C3        1.0  0.6658162293481569  0.3434939252853287  0.1709408356123947  1.0000
  C   C4        1.0  0.5868032832736594  0.29937267353338953  0.12064732335366779  1.0000
  C   C5        1.0  0.5273541158007373  0.36394318382844887  0.19425903947751325  1.0000
  C   C6        1.0  0.43755302873257457  0.34687781389027134  0.17480804113123827  1.0000
  C   C7        1.0  0.38135553892673035  0.4221388392906442  0.2605990435105736  1.0000
  C   C8        1.0  0.2967635979368113  0.40755395134147165  0.24397498965896958  1.0000
  C   C9        1.0  0.240135692122606  0.4851286313444445  0.33240251321590275  1.0000
  N   N2        1.0  0.19462590067348592  0.547485905015664  0.4034832680527527  1.0000
  C   C10       1.0  0.2673170791249595  0.3175863241076373  0.1414218792277826  1.0000
  C   C11       1.0  0.3221918525064563  0.24242499087333075  0.05574489213247059  1.0000
  C   C12       1.0  0.40662813796676534  0.2566170277759919  0.07192099697585275  1.0000
  C   C13       1.0  0.564355571037778  0.458094056329395  0.3015864313493335  1.0000
  H   H1        1.0  0.7250048007583626  0.3083371367454637  0.13086026100681836  1.0000
  H   H2        1.0  0.5790987254654928  0.22547947202330976  0.03641022549441785  1.0000
  H   H3        1.0  0.4029064981485652  0.49237374038391774  0.3406591532790413  1.0000
  H   H4        1.0  0.20202136891272218  0.30557140019302853  0.12772735630525167  1.0000
  H   H5        1.0  0.299239756940764  0.17282664519783753  0.9764106684949306  1.0000
  H   H6        1.0  0.4468900463204126  0.19649280328051338  0.0033853600469457793  1.0000
  H   H7        1.0  0.5473818860553157  0.4205401187747504  0.41396165179023253  1.0000
  H   H8        1.0  0.5471649970370417  0.5734131957529509  0.27786217355080134  1.0000
  C   C14       1.0  0.9840996509684303  0.12691890185201493  0.40354105188977374  1.0000
  C   C15       1.0  0.9344724876556469  0.20799902818715915  0.30468913792006025  1.0000
  C   C16       1.0  0.8790110508435964  0.1404167784398318  0.21730059166494842  1.0000
  C   C17       1.0  0.8753578088246773  0.9892538629529866  0.22578409269194832  1.0000
  C   C18       1.0  0.9250562347234288  0.9071854321927089  0.321515756796279  1.0000
  C   C19       1.0  0.9805103163280693  0.9737795070150719  0.4099771153461962  1.0000
  C   C20       1.0  0.8279229080807325  0.22903084199965898  0.10930085425364022  1.0000
  F   F1        1.0  0.8067001330023719  0.36121173691186304  0.1620146130585294  1.0000
  F   F2        1.0  0.7564939749965267  0.15832253585330652  0.08028512968086132  1.0000
  F   F3        1.0  0.8725302134844277  0.25206563983897357  0.9823489112097766  1.0000
  H   H9        1.0  0.0803921389236506  0.2071310504155892  0.7131420901172156  1.0000
  H   H10       1.0  0.9377646735282361  0.32486255632063377  0.29792951162737175  1.0000
  H   H11       1.0  0.8346240665100347  0.93408326863656  0.15709513469615266  1.0000
  H   H12       1.0  0.9217057465011781  0.7904791950732694  0.3235067459023169  1.0000
  H   H13       1.0  0.1558543944674169  0.8570693181856972  0.580768203586069  1.0000
  C   C21       1.0  0.9836635254043533  0.5465121943331465  0.9834340343546919  1.0000
  C   C22       1.0  0.05050862284748692  0.6065096763672511  0.05143725551155943  1.0000
  C   C23       1.0  0.11266023979700468  0.6773372198182865  0.971210433807912  1.0000
  C   C24       1.0  0.10818856136097299  0.6885255780780339  0.8199225308580247  1.0000
  C   C25       1.0  0.04306863928942284  0.6276317429679825  0.7505439669500789  1.0000
  C   C26       1.0  0.9809464381461462  0.5541861682405675  0.8300840631346769  1.0000
  O   O1        1.0  0.17727512139402202  0.7355895819840021  0.04586752986476529  1.0000
  C   C27       1.0  0.24442884929397016  0.8105642751703942  0.9783288119435296  1.0000
  H   H14       1.0  0.7891385455842505  0.46058266847657264  0.09677953378676007  1.0000
  H   H15       1.0  0.15515680660074757  0.7429494614497582  0.7546919843973066  1.0000
  H   H16       1.0  0.042375984559818176  0.6350722264865045  0.633529450830626  1.0000
  H   H17       1.0  0.8512507174642545  0.49060046411292957  0.5561463124938464  1.0000
  H   H18       1.0  0.22202016231021626  0.9084386750243414  0.9150135152631799  1.0000
  H   H19       1.0  0.2788976446252165  0.7385394446095082  0.9068461504715645  1.0000
  H   H20       1.0  0.28622700997220196  0.8444635953299953  0.06278838262181785  1.0000
  Zn  Zn1       1.0  0.8925209422837449  0.5515640604987515  0.4081437755759246  1.0000
  Zn  Zn2       1.0  0.07208119890254518  0.5491337611354082  0.40537379790608075  1.0000
  C   C28       1.0  0.9814825581175745  0.5469913284414294  0.6700054691089619  1.0000
  C   C29       1.0  0.9831215356958876  0.5537082873040617  0.14351222944151165  1.0000
  C   C30       1.0  0.9812030063053825  0.8136528198226338  0.4030160739232347  1.0000
  C   C31       1.0  0.9834010333326947  0.2870450650368723  0.4105016892622444  1.0000
  O   O2        1.0  0.051081847261689184  0.555194785197905  0.19618469414676068  1.0000
  O   O3        1.0  0.04980433252613304  0.5436591980119019  0.6152302322036498  1.0000
  O   O4        1.0  0.049577667502766154  0.758991750716314  0.3996344321621983  1.0000
  O   O5        1.0  0.05130845131645834  0.3398622426580684  0.41178038712451626  1.0000
  O   O6        1.0  0.9132936285947462  0.7608355798069341  0.40173718729517605  1.0000
  O   O7        1.0  0.9135202865184121  0.5455047588193501  0.6173329236393084  1.0000
  O   O8        1.0  0.9147978070835476  0.5570402800471865  0.19828565202229623  1.0000
  O   O9        1.0  0.9150244108318292  0.3417077281736176  0.41388145300143475  1.0000
