data_image0
_chemical_formula_structural       NC9NC5H8C6NCOCH9C7F3H4Zn2C4O8
_chemical_formula_sum              "N3 C33 H21 O9 F3 Zn2"
_cell_length_a       17.807436237873137
_cell_length_b       10.300268703208214
_cell_length_c       9.272721663655245
_cell_angle_alpha    85.87639938124998
_cell_angle_beta     89.9168972107098
_cell_angle_gamma    88.37019024828581

_space_group_name_H-M_alt    "P 1"
_space_group_IT_number       1

loop_
  _space_group_symop_operation_xyz
  'x, y, z'

loop_
  _atom_site_type_symbol
  _atom_site_label
  _atom_site_symmetry_multiplicity
  _atom_site_fract_x
  _atom_site_fract_y
  _atom_site_fract_z
  _atom_site_occupancy
  N   N1        1.0  0.6996157576552833  0.3800860892270346  0.398062988501092  1.0000
  C   C1        1.0  0.6389778421316072  0.34483996275369955  0.38582386043204075  1.0000
  C   C2        1.0  0.56355093981269  0.3009976628375075  0.3705997140244093  1.0000
  C   C3        1.0  0.5449267595070239  0.22903274573999435  0.25402140449652916  1.0000
  C   C4        1.0  0.47169072188125105  0.18635332379319205  0.23914800234151623  1.0000
  C   C5        1.0  0.4160300526163894  0.21526113639545622  0.3408168813954209  1.0000
  C   C6        1.0  0.3381994282273102  0.17001924646223257  0.32510142876486453  1.0000
  C   C7        1.0  0.27614184070015  0.2519081711750464  0.3538996933433012  1.0000
  C   C8        1.0  0.202763610169469  0.20902579296078438  0.33904148097762177  1.0000
  C   C9        1.0  0.1396572897044859  0.29360785814250523  0.3682437595512611  1.0000
  N   N2        1.0  0.0889327937289173  0.3616059925842001  0.3917215849611505  1.0000
  C   C10       1.0  0.1908593419218503  0.08399638887603914  0.29535686026778096  1.0000
  C   C11       1.0  0.25205951869097337  0.0020935683234941617  0.2665492811328096  1.0000
  C   C12       1.0  0.3253173410289458  0.0445803572011343  0.2811826279347087  1.0000
  C   C13       1.0  0.43534668056666836  0.2877215513349938  0.4576385875802384  1.0000
  C   C14       1.0  0.5086348167226695  0.33020976786305245  0.4723391802828403  1.0000
  H   H1        1.0  0.5869525565309079  0.2061707293854822  0.17440300561130764  1.0000
  H   H2        1.0  0.4583569032385791  0.13223670057248116  0.14708642371332292  1.0000
  H   H3        1.0  0.2847702304570918  0.34952052547339263  0.3859599368907741  1.0000
  H   H4        1.0  0.1343459360276077  0.049906151521586395  0.283594066811522  1.0000
  H   H5        1.0  0.2427263657320652  0.9052949487382903  0.23315628970662458  1.0000
  H   H6        1.0  0.3718721029311756  0.978738118905046  0.260034467485912  1.0000
  H   H7        1.0  0.3940446162921181  0.31005136538848616  0.5386941930467519  1.0000
  H   H8        1.0  0.5224913134081635  0.38554142936562674  0.5632442991770876  1.0000
  C   C15       1.0  0.8943542222583655  0.9894946587118372  0.3948995289756306  1.0000
  C   C16       1.0  0.9063153687731247  0.9975675507516238  0.24481410900822562  1.0000
  C   C17       1.0  0.91336879557242  0.8842879237207647  0.16947727417294112  1.0000
  C   C18       1.0  0.9061455951114923  0.762416269592316  0.24485284694786744  1.0000
  C   C19       1.0  0.8942015515383913  0.7521872032253969  0.3948974287596876  1.0000
  C   C20       1.0  0.8886521331125372  0.8663091979027328  0.4692116182099969  1.0000
  N   N3        1.0  0.9244435507139708  0.891016689796926  0.015472965974406838  1.0000
  C   C21       1.0  0.968180941922484  0.9876629192853815  0.9372807011322218  1.0000
  O   O1        1.0  0.010910587920477385  0.058961199573758005  0.0031709359704403845  1.0000
  C   C22       1.0  0.9674539661770297  0.9977801039632402  0.7757633198628925  1.0000
  H   H9        1.0  0.8887126644239198  0.3139242839811196  0.4516412701544943  1.0000
  H   H10       1.0  0.9086562846224983  0.09201394810298956  0.18611539171945757  1.0000
  H   H11       1.0  0.9105318507584382  0.675552294158335  0.18575700753015711  1.0000
  H   H12       1.0  0.879447360999492  0.8592725608526496  0.5849739523699866  1.0000
  H   H13       1.0  0.8885633382856671  0.4209783594958052  0.45143032612732026  1.0000
  H   H14       1.0  0.9034798598963293  0.8162996334846678  0.9578772222306061  1.0000
  H   H15       1.0  0.9097674477878306  0.9832799982727887  0.7358221078302813  1.0000
  H   H16       1.0  0.9858807937196653  0.0953562600007949  0.7334176018081653  1.0000
  H   H17       1.0  0.006041925347917814  0.9220255036090744  0.7354415028692185  1.0000
  C   C23       1.0  0.8922906974770806  0.3688289772944655  0.9714876422099576  1.0000
  C   C24       1.0  0.9242840277645386  0.2610911683617776  0.05368949633059982  1.0000
  C   C25       1.0  0.9628600435721035  0.16076532845224523  0.9871567394041634  1.0000
  C   C26       1.0  0.967141440229057  0.16654208063061526  0.8359371476021997  1.0000
  C   C27       1.0  0.9347034369800267  0.2715972601536032  0.7527742507246566  1.0000
  C   C28       1.0  0.8962651067630081  0.3728528804071912  0.818309308179775  1.0000
  C   C29       1.0  0.9950328235625727  0.04443062733707803  0.07698073888498747  1.0000
  F   F1        1.0  0.020324068836075293  0.08097272502752118  0.20880150833428104  1.0000
  F   F2        1.0  0.05492440693142476  0.9878733469095644  0.006885606449430255  1.0000
  F   F3        1.0  0.9398996803050581  0.9535732749156148  0.10091503800404131  1.0000
  H   H18       1.0  0.8446107426932012  0.6803289716835346  0.048481811967269195  1.0000
  H   H19       1.0  0.9205339636836021  0.25665559383971726  0.17059624006516277  1.0000
  H   H20       1.0  0.9379224112679382  0.27185979663195714  0.6360671988188245  1.0000
  H   H21       1.0  0.7614118147154785  0.5982854677170231  0.6992136930414263  1.0000
  Zn  Zn1       1.0  0.8119642831923352  0.37474970702615734  0.396241335209353  1.0000
  Zn  Zn2       1.0  0.9765843077460079  0.36693184542665164  0.39355509187845006  1.0000
  C   C30       1.0  0.8955132025619796  0.3669189017540358  0.6582419400223347  1.0000
  C   C31       1.0  0.8930371863581359  0.37476420454411796  0.1315545992455871  1.0000
  C   C32       1.0  0.8941995870828056  0.6079949400006912  0.3891522207756277  1.0000
  C   C33       1.0  0.8943507463370728  0.13368660910011143  0.4006443962846513  1.0000
  O   O2        1.0  0.955760157373511  0.3737836178151779  0.18425511692734076  1.0000
  O   O3        1.0  0.9577330193828517  0.36196493077257436  0.6035022107518986  1.0000
  O   O4        1.0  0.95667142314851  0.5566369275978027  0.38621037234448896  1.0000
  O   O5        1.0  0.9568216969249411  0.17911163243374004  0.4015468481421528  1.0000
  O   O6        1.0  0.8317268378366309  0.5625699226882996  0.3882495798547489  1.0000
  O   O7        1.0  0.8327884333944388  0.3678994857296518  0.605541341378901  1.0000
  O   O8        1.0  0.8308155633081403  0.3797181192787199  0.1862925140248901  1.0000
  O   O9        1.0  0.8318771033657113  0.18504612512272134  0.4035843533413992  1.0000
