data_image0
_chemical_formula_structural       NC9NC3NH7C6NO2H5C12H10Zn2C4O8
_chemical_formula_sum              "N4 C34 H22 O10 Zn2"
_cell_length_a       16.053384444249904
_cell_length_b       9.273392599741053
_cell_length_c       10.299141136925906
_cell_angle_alpha    85.66774758485903
_cell_angle_beta     89.82059794555093
_cell_angle_gamma    88.5803697124526

_space_group_name_H-M_alt    "P 1"
_space_group_IT_number       1

loop_
  _space_group_symop_operation_xyz
  'x, y, z'

loop_
  _atom_site_type_symbol
  _atom_site_label
  _atom_site_symmetry_multiplicity
  _atom_site_fract_x
  _atom_site_fract_y
  _atom_site_fract_z
  _atom_site_occupancy
  N   N1        1.0  0.774743247812306  0.5598451765995329  0.5675294422210697  1.0000
  C   C1        1.0  0.7241118977046301  0.5367530268956353  0.49263380251331723  1.0000
  C   C2        1.0  0.6611909476609028  0.5080607739134477  0.3995951481286384  1.0000
  C   C3        1.0  0.6748625412903692  0.49468789015574677  0.26883126628116827  1.0000
  C   C4        1.0  0.5983966835171983  0.46657364517281924  0.21652058993443135  1.0000
  C   C5        1.0  0.5413346528269076  0.46435899403972924  0.3181913362305886  1.0000
  C   C6        1.0  0.4508389088701292  0.43790372503244  0.30789218084617986  1.0000
  C   C7        1.0  0.39467712833171653  0.48531493964225425  0.4018955421206604  1.0000
  C   C8        1.0  0.309277178258754  0.4602246142913781  0.3920313866033987  1.0000
  C   C9        1.0  0.2523241750123812  0.5095730927787694  0.48841054403849093  1.0000
  N   N2        1.0  0.20655066211985737  0.5492423110177234  0.5658842947684166  1.0000
  C   C10       1.0  0.2793137277877287  0.38759868852251467  0.2881773358460753  1.0000
  C   C11       1.0  0.3344662016574659  0.34032026214263067  0.1943859116615767  1.0000
  C   C12       1.0  0.4196612110459136  0.36522664182114073  0.2038531091312068  1.0000
  N   N3        1.0  0.5803924794138008  0.489838569016207  0.42980015727015575  1.0000
  H   H1        1.0  0.7335291484002814  0.5042954533436699  0.2172324106560333  1.0000
  H   H2        1.0  0.5862078817300682  0.4513078833818105  0.1153117941823063  1.0000
  H   H3        1.0  0.4166612613640225  0.543555584305711  0.48181114452963447  1.0000
  H   H4        1.0  0.213409498645534  0.36764567782518087  0.2797052829441944  1.0000
  H   H5        1.0  0.311180746000868  0.28390320596823027  0.11424003478476163  1.0000
  H   H6        1.0  0.4610019727979656  0.32588197594615687  0.13052548019988808  1.0000
  H   H7        1.0  0.5542312638443787  0.49243865620846766  0.5225676109284425  1.0000
  C   C13       1.0  0.9931906681008239  0.13095290056436393  0.5658804738491816  1.0000
  C   C14       1.0  0.9825504847789321  0.21458693395846343  0.4472829990982485  1.0000
  C   C15       1.0  0.9645583836769464  0.14995838019346497  0.333018386682326  1.0000
  C   C16       1.0  0.9566109972100704  0.9997372373746498  0.3341643412295221  1.0000
  C   C17       1.0  0.9685506374825795  0.9149031293911903  0.45185121347669516  1.0000
  C   C18       1.0  0.988111267495982  0.9781232959114986  0.5675443954253008  1.0000
  N   N4        1.0  0.9373214215927035  0.9337239639745475  0.216096452014634  1.0000
  O   O1        1.0  0.926359878044871  0.017116867821756143  0.10083685975826784  1.0000
  O   O2        1.0  0.9299842467011206  0.7999708279549271  0.2163317449870579  1.0000
  H   H8        1.0  0.9763025215600775  0.20777721940837285  0.8847001521093997  1.0000
  H   H9        1.0  0.9861919572789474  0.3313407453673347  0.4434319927471455  1.0000
  H   H10       1.0  0.9560224603578231  0.21810499573220096  0.24378928740386518  1.0000
  H   H11       1.0  0.9645263979967481  0.7983995887627833  0.4527910244401183  1.0000
  H   H12       1.0  0.9795794582713881  0.6802001184205958  0.7830047338740621  1.0000
  C   C19       1.0  0.990555523032605  0.5546635460230791  0.18532005195065637  1.0000
  C   C20       1.0  0.07749332472311486  0.5680615609546436  0.18320372974788035  1.0000
  C   C21       1.0  0.12167252293645991  0.5747260111016494  0.06499633268768035  1.0000
  C   C22       1.0  0.07773878374431135  0.5678116456555846  0.9479366164376488  1.0000
  C   C23       1.0  0.9907464353584916  0.5544126782887846  0.948104874937382  1.0000
  C   C24       1.0  0.9476904687358293  0.547918753934455  0.06724061041642093  1.0000
  C   C25       1.0  0.21364395891897936  0.5889015799426374  0.06380224392294975  1.0000
  C   C26       1.0  0.2637034991585958  0.5088057184705208  0.9812350103790397  1.0000
  C   C27       1.0  0.3502639714765856  0.5223280760064977  0.9803493831919258  1.0000
  C   C28       1.0  0.38776702377642036  0.6157348751038558  0.06154773811271941  1.0000
  C   C29       1.0  0.3387854256241976  0.6958138350721972  0.14386620249499416  1.0000
  C   C30       1.0  0.2522009512913008  0.6826536656413382  0.14522243960391346  1.0000
  H   H13       1.0  0.9571087478364869  0.5495833313906966  0.5136049159272937  1.0000
  H   H14       1.0  0.11118381855622927  0.5713514534945969  0.27383575285293094  1.0000
  H   H15       1.0  0.11134206771027567  0.574884121018229  0.8563980894896691  1.0000
  H   H16       1.0  0.8806331107500096  0.5375885719860726  0.0681570725241607  1.0000
  H   H17       1.0  0.8264932954450688  0.5300392177082429  0.7410691606287485  1.0000
  H   H18       1.0  0.23602729354838714  0.43441499301122244  0.9186833341185383  1.0000
  H   H19       1.0  0.3883096040885652  0.46002491937923917  0.9168566638586952  1.0000
  H   H20       1.0  0.45477980625323555  0.6260617233906223  0.06068023008418466  1.0000
  H   H21       1.0  0.36790282629766624  0.7684668437228688  0.20648929362874058  1.0000
  H   H22       1.0  0.21534381418677673  0.7470989283866545  0.20861072143961049  1.0000
  Zn  Zn1       1.0  0.899353562698917  0.5567815691839353  0.5670621739468635  1.0000
  Zn  Zn2       1.0  0.08194039689022392  0.5522941631716816  0.566362154862281  1.0000
  C   C31       1.0  0.990742922738326  0.5487136846855247  0.8039109059084099  1.0000
  C   C32       1.0  0.9905530198128444  0.560363818659102  0.32951354630562113  1.0000
  C   C33       1.0  0.989065796638486  0.8179918925445695  0.5620544272167305  1.0000
  C   C34       1.0  0.992230094016757  0.29108387926283563  0.571370091075142  1.0000
  O   O3        1.0  0.05984296945687161  0.5605676420301027  0.37764053428031796  1.0000
  O   O4        1.0  0.0600321619046642  0.5451029359168456  0.7552522436394615  1.0000
  O   O5        1.0  0.058676927634363274  0.7625485167631663  0.5599514324483117  1.0000
  O   O6        1.0  0.06119814133641665  0.34312207306581044  0.5729412483499408  1.0000
  O   O7        1.0  0.9200957559447874  0.7659536608227107  0.5604830806912575  1.0000
  O   O8        1.0  0.9214509798030793  0.5485098130465151  0.7557838260366196  1.0000
  O   O9        1.0  0.9212617873213201  0.5639744694056386  0.3781705550817096  1.0000
  O   O10       1.0  0.9226169592836845  0.34652889009222176  0.5734713665049138  1.0000
