data_image0
_chemical_formula_structural       NC6NC3H6C6ClH5C6BrH4Zn2C4O8
_chemical_formula_sum              "N2 C25 H15 Cl1 Br1 Zn2 O8"
_cell_length_a       14.934028789175542
_cell_length_b       10.30297070629231
_cell_length_c       9.27656775626242
_cell_angle_alpha    86.12016662879066
_cell_angle_beta     90.16168567554362
_cell_angle_gamma    89.96080423122717

_space_group_name_H-M_alt    "P 1"
_space_group_IT_number       1

loop_
  _space_group_symop_operation_xyz
  'x, y, z'

loop_
  _atom_site_type_symbol
  _atom_site_label
  _atom_site_symmetry_multiplicity
  _atom_site_fract_x
  _atom_site_fract_y
  _atom_site_fract_z
  _atom_site_occupancy
  N   N1        1.0  0.8399482696552885  0.40605405926279686  0.4101345990924268  1.0000
  C   C1        1.0  0.7624608478155163  0.4050594698061523  0.4094560358207498  1.0000
  C   C2        1.0  0.6660625838091492  0.4038176292593352  0.40860897579320943  1.0000
  C   C3        1.0  0.6184342989378966  0.5005320579551732  0.47447161649329583  1.0000
  C   C4        1.0  0.5249211891321265  0.49953495541334414  0.4737924595546466  1.0000
  C   C5        1.0  0.4781238840825832  0.40187278199039245  0.4072844738903233  1.0000
  C   C6        1.0  0.3814810285345386  0.40396823394268183  0.4087127638723538  1.0000
  N   N2        1.0  0.3040032209020537  0.40563124214630575  0.4098466202545259  1.0000
  C   C7        1.0  0.52574473940201  0.30382032543955506  0.340510083284286  1.0000
  C   C8        1.0  0.4772810768997467  0.19764125306547542  0.26820330838346834  1.0000
  C   C9        1.0  0.6198903297965122  0.3058348745427568  0.3418820456706527  1.0000
  H   H1        1.0  0.6535843745720187  0.5767340617547732  0.5263658571098009  1.0000
  H   H2        1.0  0.48899050447751297  0.5751500920252652  0.5252868996369453  1.0000
  H   H3        1.0  0.4343517026463764  0.24103575069733355  0.17963421739119  1.0000
  H   H4        1.0  0.4346992101756729  0.14177049489782134  0.34828267698671644  1.0000
  H   H5        1.0  0.5246444165895483  0.12886747416725752  0.22136186713440953  1.0000
  H   H6        1.0  0.6573154715657213  0.23122564716524632  0.2910729203380372  1.0000
  C   C10       1.0  0.07198004536113872  0.024595243466728246  0.40999681319237763  1.0000
  C   C11       1.0  0.16449767296777507  0.021612637470383327  0.4376925507968221  1.0000
  C   C12       1.0  0.2104024502482984  0.903175903183979  0.4514343358657844  1.0000
  C   C13       1.0  0.16449767211602717  0.7865046682036241  0.4376924830322533  1.0000
  C   C14       1.0  0.0719800550838476  0.7870801859979821  0.4099968956692392  1.0000
  C   C15       1.0  0.026172222876307254  0.9067186193994036  0.3962839994484739  1.0000
  Cl  Cl1       1.0  0.32597900980934247  0.9009534337364036  0.4860328114541875  1.0000
  H   H7        1.0  0.037130273800410674  0.3530218501186786  0.3995635072139534  1.0000
  H   H8        1.0  0.2012941816597024  0.11095164599799025  0.4487076950242422  1.0000
  H   H9        1.0  0.2012941460396449  0.6957504522893619  0.4487075915239567  1.0000
  H   H10       1.0  0.9548198207818339  0.9080905681316596  0.37492416970682774  1.0000
  H   H11       1.0  0.037130269983173474  0.45999388584514544  0.3995637792583271  1.0000
  C   C16       1.0  0.07112534642870802  0.4021075238498397  0.9868706066218977  1.0000
  C   C17       1.0  0.9915539269342404  0.4334343178862139  0.05753082635170692  1.0000
  C   C18       1.0  0.9159615638241725  0.47545158188851033  0.9788767494992525  1.0000
  C   C19       1.0  0.9185207657906403  0.48699297984674317  0.8283793180094101  1.0000
  C   C20       1.0  0.9963367244426035  0.45426533662368496  0.7559931252917591  1.0000
  C   C21       1.0  0.07283480267793774  0.4095679118874532  0.8331230688519526  1.0000
  Br  Br1       1.0  0.8150588767992649  0.5455442898251619  0.7211933005463875  1.0000
  H   H12       1.0  0.19430889221132075  0.28407437681990566  0.2776283444048604  1.0000
  H   H13       1.0  0.8555932186018523  0.5002595291857936  0.035231601670319364  1.0000
  H   H14       1.0  0.9961957971091912  0.4608971940692579  0.6389427498488471  1.0000
  H   H15       1.0  0.22016813199407392  0.39602765996858613  0.5536369026896748  1.0000
  Zn  Zn1       1.0  0.9738645347546896  0.4059286376904497  0.4100598089990553  1.0000
  Zn  Zn2       1.0  0.17008700966379323  0.405746132828108  0.40993319062984335  1.0000
  C   C22       1.0  0.07250965555647254  0.40298567516556344  0.6731632185937646  1.0000
  C   C23       1.0  0.07144403189107096  0.4086907327044548  0.14682992107569248  1.0000
  C   C24       1.0  0.07196386111245463  0.6429036574451543  0.4042550228203218  1.0000
  C   C25       1.0  0.07198975953318998  0.16877119135876484  0.41573819371206944  1.0000
  O   O1        1.0  0.1460163922492372  0.4108251941535028  0.20046567724130435  1.0000
  O   O2        1.0  0.14686561253741748  0.4007117136818361  0.6194309472359943  1.0000
  O   O3        1.0  0.14642387581849609  0.5944485326913498  0.4022856772266536  1.0000
  O   O4        1.0  0.14645806179248638  0.21708838354110688  0.4176108392573188  1.0000
  O   O5        1.0  0.9974934156648805  0.5945863870410772  0.4023821604072091  1.0000
  O   O6        1.0  0.9979351522245845  0.4008511271612891  0.6195273535892463  1.0000
  O   O7        1.0  0.9970859284965893  0.41096454711927666  0.2005603512310552  1.0000
  O   O8        1.0  0.997527598254395  0.21722772817339012  0.41770562127602634  1.0000
