data_image0
_chemical_formula_structural       NC6NC3H6C6ClH3C6ClH4Zn2C4O8
_chemical_formula_sum              "N2 C25 H13 Cl2 Zn2 O8"
_cell_length_a       14.934028789175542
_cell_length_b       9.276545438789551
_cell_length_c       9.276548810779735
_cell_angle_alpha    86.11252841497436
_cell_angle_beta     89.70021891901104
_cell_angle_gamma    89.37211250715544

_space_group_name_H-M_alt    "P 1"
_space_group_IT_number       1

loop_
  _space_group_symop_operation_xyz
  'x, y, z'

loop_
  _atom_site_type_symbol
  _atom_site_label
  _atom_site_symmetry_multiplicity
  _atom_site_fract_x
  _atom_site_fract_y
  _atom_site_fract_z
  _atom_site_occupancy
  N   N1        1.0  0.8379257706471653  0.5627089336538009  0.4109505120190591  1.0000
  C   C1        1.0  0.7604487928802306  0.5616047198002165  0.41027127037385536  1.0000
  C   C2        1.0  0.6640635683458129  0.5602260025295304  0.40942336334250284  1.0000
  C   C3        1.0  0.6154203020284993  0.6676004480220209  0.475351962653898  1.0000
  C   C4        1.0  0.5219176570822219  0.6664934433510386  0.4746721256905633  1.0000
  C   C5        1.0  0.4761452793506352  0.558066791167233  0.4080975350631384  1.0000
  C   C6        1.0  0.37948042640296337  0.5603932062911395  0.40952725420189373  1.0000
  N   N2        1.0  0.3019851593994167  0.5622395129944382  0.41066224482039604  1.0000
  C   C7        1.0  0.5247951609697242  0.4492068386432731  0.3412562732885458  1.0000
  C   C8        1.0  0.47744580128350683  0.3313245406701556  0.2688770850239366  1.0000
  C   C9        1.0  0.618919609171113  0.4514434344901948  0.34262960958722033  1.0000
  H   H1        1.0  0.6497706634507873  0.75220155642372  0.5272981725742281  1.0000
  H   H2        1.0  0.48519341788175  0.750442999232811  0.526218134829038  1.0000
  H   H3        1.0  0.434651462544982  0.37957982722122097  0.18033095766559426  1.0000
  H   H4        1.0  0.4348597995723058  0.2692178361158779  0.3489249816366784  1.0000
  H   H5        1.0  0.5255309279120604  0.2549704116679967  0.2219887401447986  1.0000
  H   H6        1.0  0.6571277474017738  0.3686106605538786  0.2917696012382285  1.0000
  C   C10       1.0  0.07266298289081091  0.13903416327493393  0.4105671492853298  1.0000
  C   C11       1.0  0.07339797204029813  0.22147069723472848  0.27756552242713606  1.0000
  C   C12       1.0  0.06597772863162188  0.15521104805958652  0.14746375586839844  1.0000
  C   C13       1.0  0.0576435724279267  0.00563648991025612  0.14836207264657642  1.0000
  C   C14       1.0  0.05829735873815431  0.9216378492639091  0.27892159861990895  1.0000
  C   C15       1.0  0.06725660552147093  0.9859033108749304  0.4110580524260121  1.0000
  Cl  Cl1       1.0  0.06577379936649948  0.26033084519155275  0.9829564159379593  1.0000
  H   H7        1.0  0.11778489832172288  0.40401574086813036  0.6370877584323262  1.0000
  H   H8        1.0  0.07760225481018646  0.3381609649576627  0.27470998435627125  1.0000
  H   H9        1.0  0.05151122218767987  0.9540021692077303  0.04770782073362679  1.0000
  C   C16       1.0  0.07124657861650929  0.5586043417575901  0.9876602174843123  1.0000
  C   C17       1.0  0.14601000053498064  0.6133416971709558  0.05675179957912824  1.0000
  C   C18       1.0  0.21568260135242034  0.6788313152447398  0.976513787275624  1.0000
  C   C19       1.0  0.2116360028356007  0.6906860303806028  0.8260835974028318  1.0000
  C   C20       1.0  0.1388301264138276  0.6349352418738659  0.7553411106198884  1.0000
  C   C21       1.0  0.06867296583255753  0.5663330338920783  0.8339650013828765  1.0000
  Cl  Cl2       1.0  0.30768295255699796  0.7481686722267484  0.06500107066225702  1.0000
  H   H10       1.0  0.9636319833511623  0.397317949523107  0.28063629815304214  1.0000
  H   H11       1.0  0.26537226838738626  0.7419273090198302  0.7635904899282036  1.0000
  H   H12       1.0  0.13845378973125755  0.642459498503784  0.6382973846877089  1.0000
  H   H13       1.0  0.9251717437154638  0.513613114255294  0.5574276164158767  1.0000
  Zn  Zn1       1.0  0.971843298902276  0.5625696809236658  0.41087563698530305  1.0000
  Zn  Zn2       1.0  0.1680677007896203  0.5623670616234627  0.41074889401802794  1.0000
  C   C22       1.0  0.06919412528783031  0.5591277750911903  0.6739919222556088  1.0000
  C   C23       1.0  0.07071900512341144  0.5658107859208636  0.14763274985020836  1.0000
  C   C24       1.0  0.06829136123602385  0.8257745472522018  0.40522308070062163  1.0000
  C   C25       1.0  0.07162171304372461  0.2991622821013036  0.4164016672687758  1.0000
  O   O1        1.0  0.1450081246840078  0.5681461506806245  0.20127289113731983  1.0000
  O   O2        1.0  0.14383479464205368  0.5566375353809263  0.6202551705531445  1.0000
  O   O3        1.0  0.14310479285766875  0.7719581908294662  0.40322243093083077  1.0000
  O   O4        1.0  0.14573805977300217  0.3528255046296216  0.4183055227656509  1.0000
  O   O5        1.0  0.9941728729571485  0.7721112379881514  0.4033190082733529  1.0000
  O   O6        1.0  0.994902863911283  0.5567923142688047  0.6203516720677598  1.0000
  O   O7        1.0  0.9960761996019734  0.5683008634984841  0.2013676601522254  1.0000
  O   O8        1.0  0.9968061344246137  0.3529802081205895  0.4184003998102124  1.0000
