data_image0
_chemical_formula_structural       NC8NH4C10H6C6NCH8Zn2C4O8
_chemical_formula_sum              "N3 C29 H18 Zn2 O8"
_cell_length_a       13.859017981522156
_cell_length_b       9.275150299802176
_cell_length_c       9.274690524155616
_cell_angle_alpha    85.73181374548483
_cell_angle_beta     89.68735533555713
_cell_angle_gamma    89.4839203727508

_space_group_name_H-M_alt    "P 1"
_space_group_IT_number       1

loop_
  _space_group_symop_operation_xyz
  'x, y, z'

loop_
  _atom_site_type_symbol
  _atom_site_label
  _atom_site_symmetry_multiplicity
  _atom_site_fract_x
  _atom_site_fract_y
  _atom_site_fract_z
  _atom_site_occupancy
  N   N1        1.0  0.9049928110883471  0.5651136654578954  0.4013128138562774  1.0000
  C   C1        1.0  0.8329075712792784  0.557544728327561  0.34004902460832803  1.0000
  C   C2        1.0  0.7432377704287806  0.5481303331186888  0.2638448403573932  1.0000
  C   C3        1.0  0.743708624456971  0.5297713634303018  0.11524294510334719  1.0000
  C   C4        1.0  0.6566013320705476  0.5206296246167306  0.04123888378896744  1.0000
  C   C5        1.0  0.5688433390722601  0.5297730844473436  0.11524268707702533  1.0000
  C   C6        1.0  0.5680075283695998  0.5481313052522139  0.2638446510779746  1.0000
  C   C7        1.0  0.6552961050744339  0.5573087468786826  0.33813446468092434  1.0000
  C   C8        1.0  0.4776677499701921  0.5575456304211672  0.3400487790973894  1.0000
  N   N2        1.0  0.4050438938850869  0.5651139782757011  0.40131271848995276  1.0000
  H   H1        1.0  0.8112611783183667  0.5225469807468832  0.056769668702188136  1.0000
  H   H2        1.0  0.657105952757679  0.5064483695099669  0.9264503123578103  1.0000
  H   H3        1.0  0.5018048915263887  0.5225500763149551  0.05676923124859745  1.0000
  H   H4        1.0  0.654790451889246  0.5715186079803649  0.4531564101636842  1.0000
  C   C9        1.0  0.1575599330481916  0.14142934666425444  0.4037255752624904  1.0000
  C   C10       1.0  0.20870600682289484  0.22253050448928158  0.2946877952918585  1.0000
  C   C11       1.0  0.2515976364017529  0.15538170895732661  0.18010885988628678  1.0000
  C   C12       1.0  0.24377958534692892  0.006152993938906446  0.17309187561962755  1.0000
  C   C13       1.0  0.1947424555480628  0.9236023478057601  0.28148191536606637  1.0000
  C   C14       1.0  0.15248600346269955  0.9887873008680036  0.3989124798845012  1.0000
  C   C15       1.0  0.3027646610015564  0.24020326170368314  0.06857804229670238  1.0000
  C   C16       1.0  0.3456043733348967  0.3112439240423251  0.9752035018364116  1.0000
  C   C17       1.0  0.3957676894770694  0.39443751687721434  0.865865987222052  1.0000
  C   C18       1.0  0.4385991421475142  0.4654728531635437  0.7725093460048504  1.0000
  H   H5        1.0  0.11095871148255344  0.40574908853297914  0.6325916836049129  1.0000
  H   H6        1.0  0.2133337824391329  0.33899828985708913  0.29691430624177756  1.0000
  H   H7        1.0  0.27645257174767157  0.9532346455480292  0.08443185347372029  1.0000
  H   H8        1.0  0.19181463700027046  0.8075480191247907  0.2752595404582667  1.0000
  H   H9        1.0  0.08852024135102554  0.8613028477690782  0.7413455601273324  1.0000
  H   H10       1.0  0.4762087302359972  0.5278479106015228  0.6905345042489527  1.0000
  C   C19       1.0  0.1565900788202208  0.5614143983251829  0.9780927129060677  1.0000
  C   C20       1.0  0.23460935468159086  0.6238260876000918  0.04647556314042033  1.0000
  C   C21       1.0  0.3076012599654921  0.6971646637936646  0.965561178808708  1.0000
  C   C22       1.0  0.3018208257328989  0.7078220031818154  0.8146041840055984  1.0000
  C   C23       1.0  0.22586571125919552  0.6445507365462952  0.7450155306942923  1.0000
  C   C24       1.0  0.1534558517108111  0.5688022672749777  0.8245452960232909  1.0000
  N   N3        1.0  0.3875067018643648  0.7626396224401049  0.033911047483138994  1.0000
  C   C25       1.0  0.40063199705666436  0.75756073882015  0.19022144141176445  1.0000
  H   H11       1.0  0.04749643109857083  0.3875004493046934  0.27207936443629155  1.0000
  H   H12       1.0  0.3570605420498281  0.7643003330798901  0.7502248099243345  1.0000
  H   H13       1.0  0.22508970327569497  0.6519947960238086  0.6279005326863927  1.0000
  H   H14       1.0  0.0013804321533528207  0.5011156504083745  0.5494916122885347  1.0000
  H   H15       1.0  0.43968103357411725  0.8166088492680746  0.9689703381937664  1.0000
  H   H16       1.0  0.46781600448144794  0.8147284916277646  0.2155750235362992  1.0000
  H   H17       1.0  0.40671512559772083  0.6435001246476242  0.23509397063525728  1.0000
  H   H18       1.0  0.3387681460311154  0.8116495532811749  0.24111623766455037  1.0000
  Zn  Zn1       1.0  0.04929675014502568  0.5651099755888984  0.4013211271692944  1.0000
  Zn  Zn2       1.0  0.2607399843570408  0.5651059992649722  0.4013162641247736  1.0000
  C   C26       1.0  0.1540805798218028  0.5616580736336343  0.6645803139139392  1.0000
  C   C27       1.0  0.1559584522094304  0.5685597228476538  0.13805720844333202  1.0000
  C   C28       1.0  0.15346140744097925  0.828568505474399  0.39407907706807155  1.0000
  C   C29       1.0  0.15657756253455712  0.3016475582495306  0.408558531974919  1.0000
  O   O1        1.0  0.23598811567690195  0.5709499556404005  0.19174094469226577  1.0000
  O   O2        1.0  0.23453144671144321  0.5592637308522084  0.6108924780314025  1.0000
  O   O3        1.0  0.2340303699393087  0.774797293206875  0.39246080694086005  1.0000
  O   O4        1.0  0.23648912063610816  0.35541640266495933  0.4101725076637534  1.0000
  O   O5        1.0  0.07354754171077915  0.7747995721917732  0.39246488362438403  1.0000
  O   O6        1.0  0.07404860838343019  0.5592677425973268  0.6108964680232774  1.0000
  O   O7        1.0  0.07550528413012204  0.5709539019843519  0.19174320219647045  1.0000
  O   O8        1.0  0.07600628874707627  0.35542033963254727  0.41017487328108304  1.0000
