data_image0
_chemical_formula_structural       NC12NC2H8C6NCSNH8C9H9Zn2C4O8
_chemical_formula_sum              "N4 C34 H25 S1 Zn2 O8"
_cell_length_a       17.80743265337812
_cell_length_b       9.275078345756787
_cell_length_c       10.297187173949778
_cell_angle_alpha    85.38938435656004
_cell_angle_beta     91.50840816747596
_cell_angle_gamma    90.00966593732542

_space_group_name_H-M_alt    "P 1"
_space_group_IT_number       1

loop_
  _space_group_symop_operation_xyz
  'x, y, z'

loop_
  _atom_site_type_symbol
  _atom_site_label
  _atom_site_symmetry_multiplicity
  _atom_site_fract_x
  _atom_site_fract_y
  _atom_site_fract_z
  _atom_site_occupancy
  N   N1        1.0  0.7158694376515314  0.562113629366443  0.5970780139005141  1.0000
  C   C1        1.0  0.6652370462345112  0.5949316747664235  0.528282334815515  1.0000
  C   C2        1.0  0.6022453219996199  0.6357549416939348  0.44270916577584796  1.0000
  C   C3        1.0  0.6143147970673276  0.6957319295199298  0.31591204154550767  1.0000
  C   C4        1.0  0.553221170189211  0.734885625270047  0.23273957459740213  1.0000
  C   C5        1.0  0.47990544769696314  0.714354839839802  0.2757034565243661  1.0000
  C   C6        1.0  0.4668583976329183  0.654245982833899  0.402969149891405  1.0000
  C   C7        1.0  0.5288093634937934  0.6150958982148864  0.4861250927560333  1.0000
  C   C8        1.0  0.3889673362260301  0.6324782705927559  0.448797031260731  1.0000
  C   C9        1.0  0.3703060586483622  0.6626954303600877  0.5757889124609581  1.0000
  C   C10       1.0  0.2969606191781141  0.6422108260974421  0.6187932474246327  1.0000
  C   C11       1.0  0.24133181615143698  0.5912267975097344  0.5356445510375405  1.0000
  C   C12       1.0  0.1658462421999511  0.570128433497255  0.5800516485206086  1.0000
  N   N2        1.0  0.10516118591108763  0.5531667677845189  0.6157519000681044  1.0000
  C   C13       1.0  0.2593004936758242  0.5608221273572076  0.40919622223740904  1.0000
  C   C14       1.0  0.3325932268303747  0.5813231085160513  0.3659359090639702  1.0000
  H   H1        1.0  0.6708743057463157  0.7121901528339639  0.28142644010984946  1.0000
  H   H2        1.0  0.5626857108060838  0.7816242785515253  0.13482247408865478  1.0000
  H   H3        1.0  0.4334528748222966  0.7472585168142105  0.21001610565745676  1.0000
  H   H4        1.0  0.520035272969556  0.5668186073202077  0.5839216463499679  1.0000
  H   H5        1.0  0.4121798921825427  0.7040007018222976  0.6412693880905893  1.0000
  H   H6        1.0  0.2836184562136598  0.6664911430695892  0.7167591730993782  1.0000
  H   H7        1.0  0.21671696380662572  0.5209244560131157  0.34412519226666816  1.0000
  H   H8        1.0  0.3453980923478568  0.5553373638994907  0.2682777254658307  1.0000
  C   C15       1.0  0.9083243027775583  0.13406675808213286  0.607509952511617  1.0000
  C   C16       1.0  0.883688236787624  0.21737298322033774  0.49441058852378106  1.0000
  C   C17       1.0  0.8665361828906958  0.15265171379238973  0.37966077743213855  1.0000
  C   C18       1.0  0.8744509022150119  0.0028953840075214275  0.37478158613255896  1.0000
  C   C19       1.0  0.8963725137245888  0.9181631142518968  0.4881107542770238  1.0000
  C   C20       1.0  0.9127134409950939  0.9812024238207517  0.6053314974169088  1.0000
  N   N3        1.0  0.856063996137551  0.9338700034182017  0.2579991431087463  1.0000
  C   C21       1.0  0.8657971594425965  0.0001546682417263887  0.12870862048072484  1.0000
  S   S1        1.0  0.816752601716856  0.9413462473093108  0.007124345022891724  1.0000
  N   N4        1.0  0.9235488239491022  0.10480873950237007  0.10236590174056137  1.0000
  H   H9        1.0  0.9130476849404098  0.39612053337984254  0.8223811489993285  1.0000
  H   H10       1.0  0.8790030078956519  0.3338699637105602  0.4938998970490163  1.0000
  H   H11       1.0  0.8468684163434919  0.21977902541382144  0.2947410882153838  1.0000
  H   H12       1.0  0.8994884012057066  0.8018074195936686  0.48495048864373946  1.0000
  H   H13       1.0  0.9784661513612886  0.6837526325492492  0.7907589865494923  1.0000
  H   H14       1.0  0.8348741226366831  0.8285338077986681  0.2677019702612636  1.0000
  H   H15       1.0  0.9622043509872721  0.12998075791463373  0.17502306361264866  1.0000
  H   H16       1.0  0.9301571216957475  0.152913059263579  0.008150210828461011  1.0000
  C   C22       1.0  0.9106179130037836  0.5575801594589658  0.22497248439905929  1.0000
  C   C23       1.0  0.8346985723326149  0.5989481574176574  0.21773709135288222  1.0000
  C   C24       1.0  0.795802855195207  0.6201419601653433  0.09741378308828774  1.0000
  C   C25       1.0  0.8344042687939296  0.5991079667971588  0.9824998173478955  1.0000
  C   C26       1.0  0.9104198475769417  0.557689030149652  0.9878689989868934  1.0000
  C   C27       1.0  0.9480302524908467  0.5371941863197739  0.10946976818230826  1.0000
  C   C28       1.0  0.7136906147448357  0.6648841125309581  0.09902035693245814  1.0000
  C   C29       1.0  0.6608009949110794  0.6080765489530678  0.9963750711452506  1.0000
  C   C30       1.0  0.6839624557685112  0.7666935498901226  0.9859378415835831  1.0000
  H   H17       1.0  0.9398741597284577  0.5416527865747303  0.555297987153129  1.0000
  H   H18       1.0  0.8053896011473539  0.6149188343505751  0.30636619271760623  1.0000
  H   H19       1.0  0.8059085658489679  0.6146317764337543  0.8884838874028533  1.0000
  H   H20       1.0  0.006603467357643386  0.505277192771185  0.11432467343193033  1.0000
  H   H21       1.0  0.687298518986398  0.6792662128025884  0.19379279987663245  1.0000
  H   H22       1.0  0.6859027056614487  0.542388205406729  0.9232377828422949  1.0000
  H   H23       1.0  0.6023180764556312  0.5899013163108453  0.028743335509340055  1.0000
  H   H24       1.0  0.7231338549851619  0.7973561722906267  0.9064614535665783  1.0000
  H   H25       1.0  0.6390157236176522  0.8412234203383242  0.012203554470042509  1.0000
  Zn  Zn1       1.0  0.82821060847646  0.5595279084561176  0.6024743924632072  1.0000
  Zn  Zn2       1.0  0.9928199488808845  0.555740724414894  0.610366147016205  1.0000
  C   C31       1.0  0.9104258310770862  0.5519222395705756  0.8436799151374785  1.0000
  C   C32       1.0  0.9106065332055371  0.5633481719212325  0.3691608333325598  1.0000
  C   C33       1.0  0.9118812854746883  0.8210750842045259  0.6005668622863631  1.0000
  C   C34       1.0  0.9091510136414692  0.2941935956149337  0.6122739572001824  1.0000
  O   O1        1.0  0.9730710682522484  0.563840460243882  0.42054665631802535  1.0000
  O   O2        1.0  0.9728959710556959  0.5485544779926013  0.7982833801293412  1.0000
  O   O3        1.0  0.9740704264340824  0.7658988235038826  0.6019678256571387  1.0000
  O   O4        1.0  0.9718965567825922  0.3464961263293451  0.616862110675847  1.0000
  O   O5        1.0  0.8491339444016729  0.7687725078356158  0.5959784261036607  1.0000
  O   O6        1.0  0.847959498016673  0.5514298952906325  0.7922939068594516  1.0000
  O   O7        1.0  0.8481345954082324  0.5667158270537044  0.41455562145426317  1.0000
  O   O8        1.0  0.8469600838567669  0.34937148283637254  0.6108711732265608  1.0000
