data_image0
_chemical_formula_structural       NC6NC3H6C6NH5C9H6Zn2C4O8
_chemical_formula_sum              "N3 C28 H17 Zn2 O8"
_cell_length_a       14.934028789175542
_cell_length_b       9.274771166103582
_cell_length_c       9.275155815604963
_cell_angle_alpha    85.94411296578332
_cell_angle_beta     90.33293635745233
_cell_angle_gamma    90.55950156128424

_space_group_name_H-M_alt    "P 1"
_space_group_IT_number       1

loop_
  _space_group_symop_operation_xyz
  'x, y, z'

loop_
  _atom_site_type_symbol
  _atom_site_label
  _atom_site_symmetry_multiplicity
  _atom_site_fract_x
  _atom_site_fract_y
  _atom_site_fract_z
  _atom_site_occupancy
  N   N1        1.0  0.8471346403346267  0.5640829073475997  0.40685986301174737  1.0000
  C   C1        1.0  0.7696387996752391  0.5629786652134465  0.4061831690569571  1.0000
  C   C2        1.0  0.6732300243174123  0.5615999125315658  0.4053384430987184  1.0000
  C   C3        1.0  0.6264201658786911  0.66897717148132  0.47101928033220913  1.0000
  C   C4        1.0  0.5328986180543985  0.667870137871736  0.4703419977116876  1.0000
  C   C5        1.0  0.48527486660295344  0.5594406446236355  0.4040175970988331  1.0000
  C   C6        1.0  0.3886497457727139  0.5617671200326848  0.4054419483756936  1.0000
  N   N2        1.0  0.31118601350267744  0.5636134744092056  0.40657267897419036  1.0000
  C   C7        1.0  0.5320659716779357  0.45057784000723  0.3374275250430646  1.0000
  C   C8        1.0  0.48270379250006074  0.3326924525670112  0.26532034553724665  1.0000
  C   C9        1.0  0.6262286098859935  0.45281449443086275  0.33879570049952656  1.0000
  H   H1        1.0  0.6622150867518081  0.7535804963200631  0.5227702768165241  1.0000
  H   H2        1.0  0.4976078121280073  0.7518218931933578  0.5216942968172871  1.0000
  H   H3        1.0  0.4399231394403159  0.3810108151096734  0.17664039296637712  1.0000
  H   H4        1.0  0.4398676389890812  0.2705223056149042  0.34553403019573176  1.0000
  H   H5        1.0  0.5294851360272402  0.2563363262687286  0.21860818342178256  1.0000
  H   H6        1.0  0.6630223857671527  0.3699795501655272  0.2881268253104734  1.0000
  C   C10       1.0  0.07641866391133179  0.14026117037632477  0.40750352044410276  1.0000
  C   C11       1.0  0.05530702744523361  0.22248095548756885  0.27863390918634556  1.0000
  C   C12       1.0  0.04255242822867977  0.15632710465568134  0.14894142101756302  1.0000
  C   C13       1.0  0.050952714529856724  0.006567858755250458  0.14717908535546065  1.0000
  C   C14       1.0  0.07040159450423822  0.923015075059567  0.2742792545327777  1.0000
  C   C15       1.0  0.08191058393618153  0.9874242259212014  0.4059415129068409  1.0000
  N   N3        1.0  0.021985366078983715  0.24163363373469895  0.01865497741743249  1.0000
  H   H7        1.0  0.17843156433641721  0.22253558956672775  0.7228559467186801  1.0000
  H   H8        1.0  0.04156313835654024  0.9542304328472042  0.047393538126124124  1.0000
  H   H9        1.0  0.14699958761983634  0.6921407955898364  0.6204954899786115  1.0000
  H   H10       1.0  0.015815807601264  0.35371337303534456  0.018611985151423482  1.0000
  H   H11       1.0  0.012689406709143421  0.19333373979730473  0.9212395357455653  1.0000
  C   C16       1.0  0.07750035172048908  0.5601982918983748  0.9834990048414052  1.0000
  C   C17       1.0  0.007907526765079885  0.6305545348726047  0.051227632696417606  1.0000
  C   C18       1.0  0.9443744464368029  0.7104912765027676  0.9698352321923204  1.0000
  C   C19       1.0  0.949257210122839  0.7217455079315034  0.8192296978644775  1.0000
  C   C20       1.0  0.017043102793558473  0.6506160859673049  0.7497952494075681  1.0000
  C   C21       1.0  0.08082886386776875  0.5674870223429305  0.8299459541768806  1.0000
  C   C22       1.0  0.8839359717961773  0.8050540525268892  0.7355195854530279  1.0000
  C   C23       1.0  0.8292412256875391  0.8748135788361732  0.6653971465773019  1.0000
  C   C24       1.0  0.7628789912471681  0.9594549684233451  0.5803039464131494  1.0000
  H   H12       1.0  0.28458307946018313  0.443608866365941  0.09654280889040545  1.0000
  H   H13       1.0  0.8918852401701498  0.7647607261509666  0.024580999084359737  1.0000
  H   H14       1.0  0.21896443386433745  0.48381331801562505  0.5564317631815352  1.0000
  H   H15       1.0  0.7811016421523437  0.963580989654115  0.4642860554822277  1.0000
  H   H16       1.0  0.69585635122835  0.9081569476564653  0.5954662116951694  1.0000
  H   H17       1.0  0.7613349052329963  0.07083789619824366  0.6166047066555889  1.0000
  Zn  Zn1       1.0  0.9810498637276598  0.5639436454102456  0.406785311319261  1.0000
  Zn  Zn2       1.0  0.17727078991172296  0.5637410220214449  0.406659035443774  1.0000
  C   C25       1.0  0.08016046771428886  0.5603629208896008  0.6699599880621523  1.0000
  C   C26       1.0  0.07816234100639342  0.567323565564871  0.14348449542179664  1.0000
  C   C27       1.0  0.08084529009350086  0.8272428948072081  0.4004936057587621  1.0000
  C   C28       1.0  0.07747744073812379  0.3004418593475282  0.41295095780116853  1.0000
  O   O1        1.0  0.1528492887356765  0.569631685029566  0.19712917811265274  1.0000
  O   O2        1.0  0.15440065402975622  0.5578999232093727  0.6162190520350685  1.0000
  O   O3        1.0  0.1549526588333152  0.7734088912466732  0.3986230396862498  1.0000
  O   O4        1.0  0.15229721661716447  0.354122726449553  0.4147250824241654  1.0000
  O   O5        1.0  0.006023370061627009  0.7735619410527881  0.3987192643743779  1.0000
  O   O6        1.0  0.005471376186534146  0.5580547053858737  0.6163151966827245  1.0000
  O   O7        1.0  0.0039200038123134995  0.5697864020192827  0.19722359009122936  1.0000
  O   O8        1.0  0.0033679320481632123  0.3542774340526331  0.41481960247555705  1.0000
