data_image0
_chemical_formula_structural       NC12NC2H8C6ClH5C6NH7Zn2C4O8
_chemical_formula_sum              "N3 C30 H20 Cl1 Zn2 O8"
_cell_length_a       19.240039667572717
_cell_length_b       10.30297070629231
_cell_length_c       9.274774538082514
_cell_angle_alpha    85.06361778746081
_cell_angle_beta     90.34966360595384
_cell_angle_gamma    89.99831201696266

_space_group_name_H-M_alt    "P 1"
_space_group_IT_number       1

loop_
  _space_group_symop_operation_xyz
  'x, y, z'

loop_
  _atom_site_type_symbol
  _atom_site_label
  _atom_site_symmetry_multiplicity
  _atom_site_fract_x
  _atom_site_fract_y
  _atom_site_fract_z
  _atom_site_occupancy
  N   N1        1.0  0.6497712543054177  0.43330604463467925  0.4080656337045634  1.0000
  C   C1        1.0  0.589622885218935  0.4333061293032672  0.4080655426514648  1.0000
  C   C2        1.0  0.5148048476270275  0.4333062477482532  0.4080653900695064  1.0000
  C   C3        1.0  0.4786702417224378  0.36796017306449524  0.5229845688960066  1.0000
  C   C4        1.0  0.4059997783012614  0.36784857289722384  0.5230807386283522  1.0000
  C   C5        1.0  0.36847261194385605  0.4333063422684078  0.4080651370503896  1.0000
  C   C6        1.0  0.4053211246067793  0.4987642968704613  0.29304975167407266  1.0000
  C   C7        1.0  0.47799209815351773  0.49865246021121834  0.2931460575312048  1.0000
  C   C8        1.0  0.2912675211935035  0.4333062644640762  0.40806503101139535  1.0000
  C   C9        1.0  0.2542183769909036  0.31971671015030534  0.4545908799664973  1.0000
  C   C10       1.0  0.18154738835214415  0.31982437226079474  0.4544893947100834  1.0000
  C   C11       1.0  0.1449352344714687  0.4333061348015501  0.4080650986952108  1.0000
  C   C12       1.0  0.0701171981312766  0.4333060189275173  0.40806537502725404  1.0000
  N   N2        1.0  0.009968881961230493  0.43330597630025713  0.4080656066422259  1.0000
  C   C13       1.0  0.18127059127329723  0.546787973606723  0.3616407439062044  1.0000
  C   C14       1.0  0.25394098670214293  0.5468958171978953  0.3615390779663572  1.0000
  H   H1        1.0  0.5066498669474655  0.31736191643233624  0.6127102183872433  1.0000
  H   H2        1.0  0.379174865405877  0.3180384222784258  0.6140460896609468  1.0000
  H   H3        1.0  0.37795950654736665  0.5485744749762858  0.20208434413475573  1.0000
  H   H4        1.0  0.5054422452948365  0.5492506142088152  0.2034207145273823  1.0000
  H   H5        1.0  0.2814149463761086  0.23031813441481555  0.4892234219177219  1.0000
  H   H6        1.0  0.15393920374414208  0.23131568469572164  0.490269915912795  1.0000
  H   H7        1.0  0.153448952481465  0.6352966365159463  0.325860238872294  1.0000
  H   H8        1.0  0.28093089598653204  0.6362944724749668  0.32690648626406893  1.0000
  C   C15       1.0  0.8298734120912848  0.05205852610671836  0.40807182601061687  1.0000
  C   C16       1.0  0.9017235288593445  0.04869770002570473  0.43587019657614445  1.0000
  C   C17       1.0  0.9373736387928744  0.9300733047064669  0.44966290521681235  1.0000
  C   C18       1.0  0.9017235281047061  0.8135897318874878  0.4358701287006121  1.0000
  C   C19       1.0  0.8298734197518389  0.8145434672722378  0.40807190862793186  1.0000
  C   C20       1.0  0.7942985981509909  0.9343691675909854  0.3943081961643764  1.0000
  Cl  Cl1       1.0  0.027131553065619093  0.9273783499155287  0.4843895936644851  1.0000
  H   H9        1.0  0.8028087291364193  0.38062761508255494  0.3975998586776335  1.0000
  H   H10       1.0  0.9303000660964297  0.13788628329512576  0.446926160224709  1.0000
  H   H11       1.0  0.9303000383054215  0.722685091279265  0.4469260565336137  1.0000
  H   H12       1.0  0.738885607573513  0.9360328117372586  0.37286921270915707  1.0000
  H   H13       1.0  0.8028087265489102  0.4875996462719123  0.3976001311629811  1.0000
  C   C21       1.0  0.828626087220308  0.4366215149098303  0.9842555270664075  1.0000
  C   C22       1.0  0.8778746849871906  0.5132352871110895  0.050992028151578765  1.0000
  C   C23       1.0  0.9302414039175313  0.5791546151352893  0.9702271018962397  1.0000
  C   C24       1.0  0.9337836488004904  0.5687591388749307  0.8212496855526856  1.0000
  C   C25       1.0  0.8847580380967276  0.4950053403757504  0.7528106219635928  1.0000
  C   C26       1.0  0.8311207529856978  0.42998040824470235  0.8318881526588545  1.0000
  N   N3        1.0  0.9802879027473781  0.6555877686382547  0.03996884794666534  1.0000
  H   H14       1.0  0.7247358689980499  0.1828312080212915  0.11017585491989033  1.0000
  H   H15       1.0  0.8766235945505019  0.519392659680691  0.16701215800094693  1.0000
  H   H16       1.0  0.9742146897772925  0.6189193507777022  0.7577189076781394  1.0000
  H   H17       1.0  0.8878573189405079  0.49139403040755814  0.6366375716155077  1.0000
  H   H18       1.0  0.7590124665960951  0.26299604286823597  0.5658063809927092  1.0000
  H   H19       1.0  0.9782696065863197  0.6637292169091562  0.15133877156935505  1.0000
  H   H20       1.0  0.019715760795796733  0.7047270394379099  0.9807267548994733  1.0000
  Zn  Zn1       1.0  0.7537165426135272  0.4333024936161589  0.4080739478028659  1.0000
  Zn  Zn2       1.0  0.9060236470895063  0.4332988449293596  0.40806907112975543  1.0000
  C   C27       1.0  0.8306476610621545  0.4260637169135537  0.6716674381284773  1.0000
  C   C28       1.0  0.8290941922466737  0.4405392585799411  0.14447572240477036  1.0000
  C   C29       1.0  0.8298529263105373  0.6704626135301395  0.4023206682875182  1.0000
  C   C30       1.0  0.8298888752529336  0.1961388015561503  0.41382256919240956  1.0000
  O   O1        1.0  0.887051044963037  0.4418470405502499  0.1982452329176276  1.0000
  O   O2        1.0  0.8882883752737943  0.4247521895189798  0.6178938108774115  1.0000
  O   O3        1.0  0.887645842159426  0.6221073776438271  0.40039438858275544  1.0000
  O   O4        1.0  0.8876935257868265  0.24449186256174138  0.415744547001214  1.0000
  O   O5        1.0  0.7720466119412448  0.6221094759864956  0.4003984719254796  1.0000
  O   O6        1.0  0.7726891448260084  0.4247558482715715  0.6178978172675282  1.0000
  O   O7        1.0  0.7714518094546319  0.44185066765622905  0.19824750411890446  1.0000
  O   O8        1.0  0.772094290594038  0.2444954795340999  0.4157469264076332  1.0000
