data_image0
_chemical_formula_structural       NC6NC2H4C6NCH9C9H9Zn2C4O8
_chemical_formula_sum              "N3 C28 H22 Zn2 O8"
_cell_length_a       14.927258858638513
_cell_length_b       9.273386996610927
_cell_length_c       10.29718717394978
_cell_angle_alpha    85.47297527559209
_cell_angle_beta     89.97408174876965
_cell_angle_gamma    89.39858807063658

_space_group_name_H-M_alt    "P 1"
_space_group_IT_number       1

loop_
  _space_group_symop_operation_xyz
  'x, y, z'

loop_
  _atom_site_type_symbol
  _atom_site_label
  _atom_site_symmetry_multiplicity
  _atom_site_fract_x
  _atom_site_fract_y
  _atom_site_fract_z
  _atom_site_occupancy
  N   N1        1.0  0.833722155884288  0.578678068341085  0.5648320320330673  1.0000
  C   C1        1.0  0.7561956648996011  0.5786780398212552  0.5648320416167776  1.0000
  C   C2        1.0  0.6597631566185964  0.5786781549595905  0.5648319965174444  1.0000
  C   C3        1.0  0.6129010382747367  0.5549622402976473  0.4507113397866622  1.0000
  C   C4        1.0  0.5191897268016084  0.5549622659273781  0.45071121949042015  1.0000
  C   C5        1.0  0.471947093779792  0.5786779773404884  0.5648320135675202  1.0000
  C   C6        1.0  0.3755145185072335  0.5786780924817885  0.564831968462844  1.0000
  N   N2        1.0  0.2979880275225461  0.5786780639619582  0.5648319780465545  1.0000
  C   C7        1.0  0.5188091451320979  0.6023938920053962  0.67895267029296  1.0000
  C   C8        1.0  0.6125204566052256  0.6023938663756656  0.6789527905892017  1.0000
  H   H1        1.0  0.6487452652248037  0.5365099215510583  0.36191891911525026  1.0000
  H   H2        1.0  0.4836416084265721  0.5365101191674431  0.3619189143751367  1.0000
  H   H3        1.0  0.48296498520669023  0.6208462004436126  0.7677451883744484  1.0000
  H   H4        1.0  0.6480685743121563  0.6208461105171112  0.7677451947064327  1.0000
  C   C9        1.0  0.06861398407400521  0.15502415459531171  0.5654703311510278  1.0000
  C   C10       1.0  0.08438025286474837  0.2384837012702123  0.4480199793338575  1.0000
  C   C11       1.0  0.0917116921714394  0.173964758836197  0.33056236784533066  1.0000
  C   C12       1.0  0.08338814894239421  0.02366368331066626  0.32755198991176226  1.0000
  C   C13       1.0  0.06920071314823109  0.9392411664045595  0.44459434541266235  1.0000
  C   C14       1.0  0.06310483797023726  0.002320838450014847  0.5642049741669228  1.0000
  N   N3        1.0  0.08996303936966933  0.9541079848377436  0.207669349917057  1.0000
  C   C15       1.0  0.104926107358424  0.03198715678152509  0.08090897073452852  1.0000
  H   H5        1.0  0.08684978543927852  0.4171980195887939  0.7787320565951121  1.0000
  H   H6        1.0  0.08894996933414426  0.3551293765610095  0.4464263202712637  1.0000
  H   H7        1.0  0.10303656815769102  0.24255481777136859  0.24232784038839703  1.0000
  H   H8        1.0  0.06497293629450022  0.8228398170084347  0.4425451484538052  1.0000
  H   H9        1.0  0.09599052508865505  0.8710021253286283  0.8805869188604155  1.0000
  H   H10       1.0  0.08362874554718007  0.8417412307404192  0.21036298125060604  1.0000
  H   H11       1.0  0.04939758858680057  0.11055763705875889  0.05833960732092702  1.0000
  H   H12       1.0  0.16976696885791587  0.08953893014727199  0.08111857718159388  1.0000
  H   H13       1.0  0.10720837010421042  0.9545400527247438  0.004008317078046714  1.0000
  C   C16       1.0  0.06597819152803314  0.578620356483142  0.18338456439117712  1.0000
  C   C17       1.0  0.9749350079263266  0.618246370260215  0.17984348261611502  1.0000
  C   C18       1.0  0.9282909031195185  0.6385477031221605  0.061412878641696755  1.0000
  C   C19       1.0  0.9745820834055362  0.6183994267478075  0.9446205289806775  1.0000
  C   C20       1.0  0.06574065761897145  0.5787246825909116  0.9462907182959426  1.0000
  C   C21       1.0  0.11084342173658929  0.5590928168059257  0.06606132592650882  1.0000
  C   C22       1.0  0.829821140221198  0.6814057739817645  0.06701511604802413  1.0000
  C   C23       1.0  0.7674812245329989  0.6233785651651997  0.9668299360039802  1.0000
  C   C24       1.0  0.7930852463189169  0.7825391742783061  0.9554927376432624  1.0000
  H   H14       1.0  0.9397874105008671  0.6335445471211374  0.26989878843889725  1.0000
  H   H15       1.0  0.9404098120634564  0.6332693966474883  0.851991224108965  1.0000
  H   H16       1.0  0.18108497909158117  0.5285197971191582  0.0680659987300476  1.0000
  H   H17       1.0  0.23791025803526977  0.5037718018457797  0.7422301146117052  1.0000
  H   H18       1.0  0.7981714768069655  0.6951823025185584  0.16307182644220575  1.0000
  H   H19       1.0  0.7982429634251268  0.5582624907160221  0.8924021981067066  1.0000
  H   H20       1.0  0.6979825340570897  0.6038578757094841  0.0019776730428329166  1.0000
  H   H21       1.0  0.8394004689413379  0.8141042864507645  0.8741792003306061  1.0000
  H   H22       1.0  0.7385501773471697  0.8560412876409087  0.9840119636754675  1.0000
  Zn  Zn1       1.0  0.9676992885222532  0.5786742023374256  0.5648395280002236  1.0000
  Zn  Zn2       1.0  0.1640109792835515  0.5786701144012854  0.564835155352867  1.0000
  C   C25       1.0  0.06582091891622116  0.5729576198904014  0.8020936998280108  1.0000
  C   C26       1.0  0.06589148073181564  0.5843885171256464  0.3275811082534037  1.0000
  C   C27       1.0  0.06414319951400206  0.8421630358966269  0.5592678188955194  1.0000
  C   C28       1.0  0.06756914439496381  0.31518136782628253  0.5704070610298744  1.0000
  O   O1        1.0  0.14036168427666618  0.5863165192386774  0.37597313562797247  1.0000
  O   O2        1.0  0.14034675350876546  0.5710254267262695  0.7536979814121216  1.0000
  O   O3        1.0  0.1389909691675544  0.7884122049240188  0.5576143623078396  1.0000
  O   O4        1.0  0.14171740159321866  0.3689297513493009  0.572056657322177  1.0000
  O   O5        1.0  0.9899927992210328  0.7884145653923751  0.5576180260255708  1.0000
  O   O6        1.0  0.9913485723097607  0.571029520490729  0.7537015732805312  1.0000
  O   O7        1.0  0.9913635039503964  0.5863205625158245  0.37597516582620427  1.0000
  O   O8        1.0  0.992719221300054  0.36893378432103985  0.5720587849251442  1.0000
