data_image0
_chemical_formula_structural       NC5N2C2NH4C7NH5C8H8Zn2C4O8
_chemical_formula_sum              "N5 C26 H17 Zn2 O8"
_cell_length_a       13.87973921873968
_cell_length_b       9.275154477615127
_cell_length_c       9.275657083861814
_cell_angle_alpha    86.07548322511155
_cell_angle_beta     89.50283704034044
_cell_angle_gamma    89.4337086285363

_space_group_name_H-M_alt    "P 1"
_space_group_IT_number       1

loop_
  _space_group_symop_operation_xyz
  'x, y, z'

loop_
  _atom_site_type_symbol
  _atom_site_label
  _atom_site_symmetry_multiplicity
  _atom_site_fract_x
  _atom_site_fract_y
  _atom_site_fract_z
  _atom_site_occupancy
  N   N1        1.0  0.9060504028259492  0.569755765367056  0.4161382326400751  1.0000
  C   C1        1.0  0.8331090466417499  0.5939952778314372  0.3595940306425496  1.0000
  C   C2        1.0  0.7425185751370608  0.6241031192199264  0.28936002040931785  1.0000
  C   C3        1.0  0.6558553067666985  0.5937895114784439  0.3624405016488317  1.0000
  C   C4        1.0  0.5696391741796935  0.6241030548110436  0.28936006005821013  1.0000
  C   C5        1.0  0.4786319264659439  0.5939951326337325  0.3595939268366164  1.0000
  N   N2        1.0  0.40535497190602726  0.5697557406929972  0.4161382215484829  1.0000
  N   N3        1.0  0.571698239994174  0.6820184181589661  0.15082887370183662  1.0000
  C   C6        1.0  0.6567001284089818  0.7122785955068194  0.0817916016884006  1.0000
  C   C7        1.0  0.6571960609972122  0.7719920532883562  0.9282739356120292  1.0000
  N   N4        1.0  0.7413011389021571  0.6820183715611219  0.1508288842683585  1.0000
  H   H1        1.0  0.6555203637196415  0.5474480026473163  0.4729904092991084  1.0000
  H   H2        1.0  0.7218788829895572  0.8397335092777038  0.9061458365595666  1.0000
  H   H3        1.0  0.6582141622879352  0.681698971269378  0.8556928486518929  1.0000
  H   H4        1.0  0.5918740808084867  0.8397314420889853  0.906145062320694  1.0000
  C   C8        1.0  0.15850501218251267  0.14635788230161184  0.41447007845076966  1.0000
  C   C9        1.0  0.1328007163189553  0.22888438486971174  0.28736749806180883  1.0000
  C   C10       1.0  0.09922055498706261  0.16222794675485552  0.16699773075015562  1.0000
  C   C11       1.0  0.0907884862258681  0.012134712530520004  0.1723129288115686  1.0000
  C   C12       1.0  0.11740262718921146  0.9283856597152409  0.2965183071160198  1.0000
  C   C13       1.0  0.15290957858901422  0.9931425945133139  0.4178188558465867  1.0000
  C   C14       1.0  0.07224341110497168  0.2483283963990004  0.038363232814304885  1.0000
  N   N5        1.0  0.05056128634279555  0.31753742104467486  0.9349740459042248  1.0000
  H   H5        1.0  0.1751225583701463  0.22484572336108077  0.7683217105039848  1.0000
  H   H6        1.0  0.13676030585923726  0.34582182386066207  0.2830901974867457  1.0000
  H   H7        1.0  0.06446665850182765  0.9595331549185477  0.07980120280503233  1.0000
  H   H8        1.0  0.11234422211685557  0.8119174127124001  0.29639144156354846  1.0000
  H   H9        1.0  0.168193890162414  0.6955896454310146  0.6549095145609931  1.0000
  C   C15       1.0  0.1581757913066044  0.5675767344066707  0.992815970462596  1.0000
  C   C16       1.0  0.20735716743247767  0.6774850124123168  0.058190997583249304  1.0000
  C   C17       1.0  0.24799056193116353  0.7935642420480595  0.9749114622363404  1.0000
  C   C18       1.0  0.24087898924077433  0.7987515420145859  0.8242930895801954  1.0000
  C   C19       1.0  0.19377426486219315  0.6894887980409967  0.7574680114722863  1.0000
  C   C20       1.0  0.15323879008714925  0.5719237027739499  0.8394729476265954  1.0000
  C   C21       1.0  0.3015885152073647  0.9091842456581903  0.04656859518102397  1.0000
  C   C22       1.0  0.4076866726070081  0.8680420546022032  0.06425050658524568  1.0000
  H   H10       1.0  0.21235627262938395  0.6748119476843992  0.17490545250883718  1.0000
  H   H11       1.0  0.2727773159682736  0.886874084843748  0.7582553502695313  1.0000
  H   H12       1.0  0.04058150946597738  0.40575446506753554  0.5709814149615875  1.0000
  H   H13       1.0  0.29562050414200836  0.013855009596400061  0.9811422207213784  1.0000
  H   H14       1.0  0.2694359588265167  0.9255134370822002  0.15450966582655545  1.0000
  H   H15       1.0  0.4152231256265171  0.7654739019839212  0.13259307271370152  1.0000
  H   H16       1.0  0.4416793495539104  0.8547724268283732  0.9570232170846752  1.0000
  H   H17       1.0  0.4458596041622782  0.9545920282270863  0.11715938802164838  1.0000
  Zn  Zn1       1.0  0.05013889391943582  0.5697519373492703  0.4161465416110457  1.0000
  Zn  Zn2       1.0  0.2612664755758367  0.5697478187322269  0.41614168330110773  1.0000
  C   C23       1.0  0.1542077964411388  0.5653581986833385  0.6794139122098886  1.0000
  C   C24       1.0  0.15719986571464672  0.5741433772841937  0.15287446133428362  1.0000
  C   C25       1.0  0.15399576906414691  0.8330527452202761  0.4114412676171947  1.0000
  C   C26       1.0  0.15741183204690623  0.30644709888668276  0.4208471759346839  1.0000
  O   O1        1.0  0.23699419467313754  0.5763393494896465  0.20658968444462422  1.0000
  O   O2        1.0  0.23465442640729028  0.5631580107188712  0.6256945824753757  1.0000
  O   O3        1.0  0.23448212279784952  0.7793247502241919  0.409304781969406  1.0000
  O   O4        1.0  0.2371664268011624  0.36017261974483095  0.42297937690486653  1.0000
  O   O5        1.0  0.07423887064666189  0.7793271363396024  0.40930884800136846  1.0000
  O   O6        1.0  0.07441116325338792  0.563162128697791  0.6256985784937139  1.0000
  O   O7        1.0  0.07675094202184063  0.5763434083264303  0.20659194707274198  1.0000
  O   O8        1.0  0.07692317358383359  0.3601766688240453  0.42298174757279317  1.0000
