data_image0
_chemical_formula_structural       NC8NC6H8C7OC3FC3H9C7OC3FC3H9Zn2C4O8
_chemical_formula_sum              "N2 C44 H26 O10 F2 Zn2"
_cell_length_a       17.457602349358154
_cell_length_b       10.29937835083307
_cell_length_c       10.29938172300155
_cell_angle_alpha    85.56710995607625
_cell_angle_beta     92.85910674266745
_cell_angle_gamma    91.70902404556999

_space_group_name_H-M_alt    "P 1"
_space_group_IT_number       1

loop_
  _space_group_symop_operation_xyz
  'x, y, z'

loop_
  _atom_site_type_symbol
  _atom_site_label
  _atom_site_symmetry_multiplicity
  _atom_site_fract_x
  _atom_site_fract_y
  _atom_site_fract_z
  _atom_site_occupancy
  N   N1        1.0  0.7229655502955287  0.45254708857472736  0.6263306535741398  1.0000
  C   C1        1.0  0.6618796760158298  0.4066170769744373  0.6157213380223503  1.0000
  C   C2        1.0  0.5858862649752631  0.3494858596224026  0.6025328905060252  1.0000
  C   C3        1.0  0.5273534741064517  0.38966868351677125  0.6774239079260889  1.0000
  C   C4        1.0  0.45279849097614083  0.33465598196379975  0.6648496008611773  1.0000
  C   C5        1.0  0.3906745309280327  0.3770831868542903  0.7441620460415113  1.0000
  C   C6        1.0  0.3161412227506944  0.3955381687045037  0.6883969259968259  1.0000
  C   C7        1.0  0.25760837176441975  0.4355370863930455  0.7633959203414946  1.0000
  C   C8        1.0  0.18163741175790224  0.4545973823350132  0.7054152927248967  1.0000
  N   N2        1.0  0.12056967504160292  0.46991548032481756  0.6587990200330218  1.0000
  C   C9        1.0  0.27311663173012074  0.45732430473693886  0.8946685111154711  1.0000
  C   C10       1.0  0.3468652527694926  0.4392584262911403  0.9508211702000113  1.0000
  C   C11       1.0  0.4053864595352037  0.3994396881010279  0.8762798653384396  1.0000
  C   C12       1.0  0.43806504346262337  0.23878264004306748  0.5759514717710323  1.0000
  C   C13       1.0  0.4965861075672804  0.19887861103437565  0.501460413374845  1.0000
  C   C14       1.0  0.5703562557748263  0.2540038338830674  0.5145846461174848  1.0000
  H   H1        1.0  0.5397021799587924  0.4648834607860772  0.7440433330106768  1.0000
  H   H2        1.0  0.3038103175176541  0.38054113202386036  0.5863761224748161  1.0000
  H   H3        1.0  0.2282522489907847  0.4882235159434716  0.9534992049453836  1.0000
  H   H4        1.0  0.3586828404582234  0.45581309860527286  0.05246850764072408  1.0000
  H   H5        1.0  0.46186109021303606  0.3844589848741549  0.9223876114214629  1.0000
  H   H6        1.0  0.38157257835850505  0.19344231409087367  0.5653059598217727  1.0000
  H   H7        1.0  0.4847516510986493  0.12478003961481243  0.4336425347257571  1.0000
  H   H8        1.0  0.6152204114859209  0.2222350159544897  0.4562651871348274  1.0000
  C   C15       1.0  0.9216904042429427  0.0798429430932841  0.6426225476613157  1.0000
  C   C16       1.0  0.84164662072941  0.07635004945029444  0.6200614392660377  1.0000
  C   C17       1.0  0.801177088431245  0.9572966240831711  0.6101516107026452  1.0000
  C   C18       1.0  0.8418342147877177  0.8411142428499871  0.6200836334284268  1.0000
  C   C19       1.0  0.921852134025731  0.8426099516103053  0.6425189612362816  1.0000
  C   C20       1.0  0.9612935093750972  0.9624731396715133  0.653998597212452  1.0000
  C   C21       1.0  0.7167514116765454  0.9535745510519039  0.58496320364569  1.0000
  O   O1        1.0  0.687129170706458  0.8675734084487615  0.5158834778124113  1.0000
  C   C22       1.0  0.6659303993764957  0.047316529093533566  0.6381518779040702  1.0000
  C   C23       1.0  0.5975997494440093  0.08431378417552549  0.56879136511455  1.0000
  C   C24       1.0  0.548855349718095  0.1714549631369624  0.6188716078790013  1.0000
  F   F1        1.0  0.4834050600939069  0.20727038050033  0.5508076619776912  1.0000
  C   C25       1.0  0.5675084042287758  0.22159633834049264  0.7389994853760402  1.0000
  C   C26       1.0  0.6347374332369206  0.18429891875853951  0.8094845985468987  1.0000
  C   C27       1.0  0.6836404012368954  0.09723637606978608  0.759822015243351  1.0000
  H   H9        1.0  0.07287672457984407  0.2939145113117778  0.6832129047374529  1.0000
  H   H10       1.0  0.8107788955269384  0.16651088905666686  0.6087276752813393  1.0000
  H   H11       1.0  0.8107764990987206  0.7492874547597128  0.6114951705477845  1.0000
  H   H12       1.0  0.02300131821124407  0.9643618975878377  0.6713907930968779  1.0000
  H   H13       1.0  0.9526637556636944  0.5158155925963674  0.6500474394166584  1.0000
  H   H14       1.0  0.5823296428122487  0.04662174371658079  0.47538635134598334  1.0000
  H   H15       1.0  0.5297538432497587  0.28894565943943085  0.7777952814035034  1.0000
  H   H16       1.0  0.6488214211047006  0.22242636333711419  0.9030063233624298  1.0000
  H   H17       1.0  0.7347608418717981  0.06792089228259446  0.8171484944492113  1.0000
  C   C28       1.0  0.9218358415308836  0.4611281106187848  0.2612083728936796  1.0000
  C   C29       1.0  0.946086868269082  0.33172778486657495  0.2720699318374289  1.0000
  C   C30       1.0  0.9591519988250645  0.2669545013540038  0.16040743113400913  1.0000
  C   C31       1.0  0.9460135519689961  0.3320177280353118  0.03679784991857016  1.0000
  C   C32       1.0  0.9217066847788967  0.46132472247927453  0.023933150535962792  1.0000
  C   C33       1.0  0.909951884715804  0.5252440769138125  0.1367554817331289  1.0000
  C   C34       1.0  0.9839828112728953  0.12986521475292978  0.17170156899547373  1.0000
  O   O2        1.0  0.9603373677743433  0.0555852937790584  0.08560063990972644  1.0000
  C   C35       1.0  0.03564343183197206  0.07704657863230446  0.2805738258803945  1.0000
  C   C36       1.0  0.02943500012430489  0.9448092620472902  0.32536020120616427  1.0000
  C   C37       1.0  0.07848245817867518  0.8937425277495222  0.426930035912129  1.0000
  F   F2        1.0  0.07166171350974526  0.7663723336060765  0.47006131122767103  1.0000
  C   C38       1.0  0.13453153732162115  0.9738175742537709  0.4839630433160538  1.0000
  C   C39       1.0  0.14184455387366945  0.10489764584563456  0.43920199460404086  1.0000
  C   C40       1.0  0.09294931924880603  0.1563828164189578  0.3377155032744259  1.0000
  H   H18       1.0  0.8749440586581636  0.7046597379796373  0.44798696947155126  1.0000
  H   H19       1.0  0.9540243973418717  0.28068199518502257  0.3675315703097515  1.0000
  H   H20       1.0  0.955512016927152  0.2818811437520332  0.95055542937647  1.0000
  H   H21       1.0  0.89125579004799  0.6250017687739211  0.1275779444175993  1.0000
  H   H22       1.0  0.9117507000700383  0.5106330101636933  0.6915103650617915  1.0000
  H   H23       1.0  0.9862025670847021  0.8814020386609231  0.2824663128705709  1.0000
  H   H24       1.0  0.17252431212561153  0.9342671224151803  0.5624885287967416  1.0000
  H   H25       1.0  0.18567861846369837  0.16658334271679026  0.482784203811863  1.0000
  H   H26       1.0  0.1005137028667491  0.25767618820692445  0.3030570273301145  1.0000
  Zn  Zn1       1.0  0.8377055099996901  0.4575557503079482  0.6357078215918861  1.0000
  Zn  Zn2       1.0  0.005829697029468227  0.46489617296661007  0.6494324858066751  1.0000
  C   C41       1.0  0.9217283099247645  0.45611356876933584  0.879762382632856  1.0000
  C   C42       1.0  0.921808733341195  0.46634007339893463  0.4053782018803265  1.0000
  C   C43       1.0  0.9218185026831229  0.6984292227512803  0.6373631320122808  1.0000
  C   C44       1.0  0.9217184828712022  0.22402285654742823  0.6477775172669915  1.0000
  O   O3        1.0  0.9856018871748559  0.4708692418317198  0.458971352808222  1.0000
  O   O4        1.0  0.9855375237733541  0.4571546314194997  0.8365855605703064  1.0000
  O   O5        1.0  0.9856094952528691  0.6528275493058513  0.640846380282617  1.0000
  O   O6        1.0  0.9855298583443997  0.27519633070617266  0.6547104310383525  1.0000
  O   O7        1.0  0.8580052913122261  0.6472555900648712  0.6304298716698231  1.0000
  O   O8        1.0  0.8579333201718137  0.4515842325445676  0.8261689825010371  1.0000
  O   O9        1.0  0.8579976838790869  0.46529879729817014  0.4485532133753372  1.0000
  O   O10       1.0  0.8579256550270392  0.26962587690830486  0.6442923889726411  1.0000
