data_image0
_chemical_formula_structural       NC6NC2H4C6ClH5C7NH4Zn2C4O8
_chemical_formula_sum              "N3 C25 H13 Cl1 Zn2 O8"
_cell_length_a       14.927258858638513
_cell_length_b       9.276545438789551
_cell_length_c       9.275157849593905
_cell_angle_alpha    86.141431454383
_cell_angle_beta     89.74087902936087
_cell_angle_gamma    89.40960950127158

_space_group_name_H-M_alt    "P 1"
_space_group_IT_number       1

loop_
  _space_group_symop_operation_xyz
  'x, y, z'

loop_
  _atom_site_type_symbol
  _atom_site_label
  _atom_site_symmetry_multiplicity
  _atom_site_fract_x
  _atom_site_fract_y
  _atom_site_fract_z
  _atom_site_occupancy
  N   N1        1.0  0.8380258779768113  0.5627577771741459  0.4112887639049876  1.0000
  C   C1        1.0  0.7604993869613315  0.5627577487695281  0.4112887744738911  1.0000
  C   C2        1.0  0.6640668788230529  0.5627578633751356  0.411288724695832  1.0000
  C   C3        1.0  0.6175299348435842  0.537849898562976  0.2846255516622007  1.0000
  C   C4        1.0  0.5238186237190092  0.5378499229110845  0.2846254182577319  1.0000
  C   C5        1.0  0.4762508159149755  0.5627576860238184  0.4112887432153929  1.0000
  C   C6        1.0  0.3798182407851591  0.562757800632333  0.41128869343141283  1.0000
  N   N2        1.0  0.3022917497696793  0.5627577722277151  0.41128870400031614  1.0000
  C   C7        1.0  0.5227876929029069  0.5876656508388851  0.5379519162431028  1.0000
  C   C8        1.0  0.6164990040274813  0.5876656264907767  0.5379520496475718  1.0000
  H   H1        1.0  0.653627166114642  0.5184700963722236  0.18607433350720726  1.0000
  H   H2        1.0  0.48852350935259964  0.5184702938407744  0.18607432868947393  1.0000
  H   H3        1.0  0.48669052837545934  0.6070454437538895  0.6365032424458994  1.0000
  H   H4        1.0  0.6517941174524624  0.6070453539386993  0.6365032492701208  1.0000
  C   C9        1.0  0.07286748590203775  0.13932033447190384  0.4110511790432103  1.0000
  C   C10       1.0  0.07357997060006399  0.22169073529525285  0.27803475225632207  1.0000
  C   C11       1.0  0.06613409134255346  0.15535815918496998  0.14791345227176866  1.0000
  C   C12       1.0  0.057796380525767105  0.005775619761245075  0.1488066948075928  1.0000
  C   C13       1.0  0.05847287009311278  0.9218432895383866  0.27938160330372097  1.0000
  C   C14       1.0  0.067458786885914  0.9861842584317231  0.41153877998220056  1.0000
  Cl  Cl1       1.0  0.06590183141077223  0.2603950311989458  0.9833871151482013  1.0000
  H   H5        1.0  0.11804836657847975  0.40446146971299907  0.6376258025219023  1.0000
  H   H6        1.0  0.07778563414542289  0.3383838213079402  0.2751814983847137  1.0000
  H   H7        1.0  0.05164402263308787  0.9540844822993739  0.048137087426626056  1.0000
  H   H8        1.0  0.0541006475157744  0.8055573022241541  0.27673159094284294  1.0000
  H   H9        1.0  0.03677395727468302  0.6896930292417682  0.6445738389452337  1.0000
  C   C15       1.0  0.07137785359885829  0.5586764306333456  0.988094856026521  1.0000
  C   C16       1.0  0.1482916336922997  0.6056835907319431  0.05781794672701435  1.0000
  C   C17       1.0  0.22053759136636486  0.6640292521328663  0.9779733686638302  1.0000
  C   C18       1.0  0.21671041560629312  0.6762953288712941  0.827321484135096  1.0000
  C   C19       1.0  0.1416458913885058  0.6281205280477888  0.7562561791529064  1.0000
  C   C20       1.0  0.06894842268458647  0.5668280843302176  0.8344951201499998  1.0000
  C   C21       1.0  0.29831657156338387  0.7130445076379224  0.05100520760872508  1.0000
  N   N3        1.0  0.3608309603807358  0.7524395565007438  0.1097104830421598  1.0000
  H   H10       1.0  0.8537208340550103  0.5100584988999343  0.09590449024061831  1.0000
  H   H11       1.0  0.27220299708677215  0.7219061546783168  0.7645249439480521  1.0000
  H   H12       1.0  0.14139929307877241  0.6357014707805134  0.6391961041923523  1.0000
  H   H13       1.0  0.9233786377618045  0.5280400720499843  0.5570662972890994  1.0000
  Zn  Zn1       1.0  0.9720029886363754  0.5627539921549403  0.4112970716143123  1.0000
  Zn  Zn2       1.0  0.16831469149394854  0.5627498601181458  0.41129221129072524  1.0000
  C   C22       1.0  0.0694423050402917  0.5595428934511144  0.6745040143652048  1.0000
  C   C23       1.0  0.07087750678180105  0.5659627795138309  0.14808541098213523  1.0000
  C   C24       1.0  0.06849300142988374  0.8260536078508947  0.40570378173559685  1.0000
  C   C25       1.0  0.07182675424875917  0.29945033343685146  0.4168857194491562  1.0000
  O   O1        1.0  0.14520889414407046  0.5684002859474679  0.2017778546676079  1.0000
  O   O2        1.0  0.14410696594157596  0.5571011591066293  0.6208074663282099  1.0000
  O   O3        1.0  0.14333938268361623  0.7723119459256649  0.4037493775616636  1.0000
  O   O4        1.0  0.14597641065841982  0.3531895084041802  0.418835835386351  1.0000
  O   O5        1.0  0.9943412024803668  0.772314343871813  0.40375344751276565  1.0000
  O   O6        1.0  0.9951087748902385  0.5571052887328831  0.6208114604359787  1.0000
  O   O7        1.0  0.9962107084465762  0.5684043486382706  0.20178011608044244  1.0000
  O   O8        1.0  0.9969782247129985  0.35319356182214157  0.41883820484106815  1.0000
