data_image0
_chemical_formula_structural       NC8NC6H8C8NH7C8NH11Zn2C4O8
_chemical_formula_sum              "N4 C34 H26 Zn2 O8"
_cell_length_a       17.457602349358154
_cell_length_b       9.274263428431858
_cell_length_c       9.275652972338536
_cell_angle_alpha    85.89520880153039
_cell_angle_beta     93.30040864466163
_cell_angle_gamma    92.30649601595262

_space_group_name_H-M_alt    "P 1"
_space_group_IT_number       1

loop_
  _space_group_symop_operation_xyz
  'x, y, z'

loop_
  _atom_site_type_symbol
  _atom_site_label
  _atom_site_symmetry_multiplicity
  _atom_site_fract_x
  _atom_site_fract_y
  _atom_site_fract_z
  _atom_site_occupancy
  N   N1        1.0  0.72546175354334  0.6036597135344501  0.47473472126523664  1.0000
  C   C1        1.0  0.6640433962113744  0.5525565415132516  0.46295795920356  1.0000
  C   C2        1.0  0.5876364562053163  0.4889906165902006  0.44831826022667004  1.0000
  C   C3        1.0  0.5297023499198726  0.5341787204851354  0.5314670682860705  1.0000
  C   C4        1.0  0.45474975899883574  0.4729708345815693  0.5175091215824597  1.0000
  C   C5        1.0  0.3932590412764511  0.5206846280006241  0.60556688972296  1.0000
  C   C6        1.0  0.31857770634158333  0.540779570880619  0.5436500173897931  1.0000
  C   C7        1.0  0.2606429145268153  0.5857641544121872  0.6269187226575466  1.0000
  C   C8        1.0  0.1845172595826398  0.606515377406367  0.5625419456829344  1.0000
  N   N2        1.0  0.1233251095791392  0.6231922740428528  0.5107831860398486  1.0000
  C   C9        1.0  0.27690114339062155  0.6109277838120146  0.7726688450814394  1.0000
  C   C10       1.0  0.3508020043411515  0.5912679447143487  0.8350159773814712  1.0000
  C   C11       1.0  0.40872840822508755  0.5464868749382619  0.7522554321839539  1.0000
  C   C12       1.0  0.43900912501369693  0.3658113589300176  0.4188115699237205  1.0000
  C   C13       1.0  0.49693509698298194  0.32093590304909303  0.3361068182126903  1.0000
  C   C14       1.0  0.5711061255443872  0.38227281227831633  0.35067533845164456  1.0000
  H   H1        1.0  0.5428265638663079  0.6182248995860902  0.6054298896017825  1.0000
  H   H2        1.0  0.3056758616903972  0.5233732039546066  0.4303776309538965  1.0000
  H   H3        1.0  0.2325029557042758  0.6456849597345908  0.8379864918439628  1.0000
  H   H4        1.0  0.3631983669355962  0.610402027674235  0.9478736138448561  1.0000
  H   H5        1.0  0.4653271431850541  0.5301810887934362  0.8034495568922575  1.0000
  H   H6        1.0  0.38218763669062134  0.3153630298143151  0.40699458427166374  1.0000
  H   H7        1.0  0.4843263803898402  0.2381210079386549  0.2608132928668241  1.0000
  H   H8        1.0  0.6155011320285133  0.3465532882652742  0.2859253650509841  1.0000
  C   C15       1.0  0.9219689625772705  0.18972553647742882  0.4928455895536801  1.0000
  C   C16       1.0  0.9115104875281457  0.27169795769697513  0.3601696591314907  1.0000
  C   C17       1.0  0.9085866789750696  0.20577714177492323  0.22936884196174145  1.0000
  C   C18       1.0  0.9166730884483156  0.05637879371627297  0.22806516890707274  1.0000
  C   C19       1.0  0.9250676474559205  0.9727945832869808  0.35967054810673704  1.0000
  C   C20       1.0  0.9268252292721454  0.037115806126054356  0.49268547504283955  1.0000
  C   C21       1.0  0.9123758282008131  0.985247069770814  0.08704206596254127  1.0000
  C   C22       1.0  0.8325914879843302  0.9421813166668881  0.04777881888378688  1.0000
  N   N3        1.0  0.769619448287731  0.9081891551949277  0.016798710216054287  1.0000
  H   H9        1.0  0.9895711079304692  0.273515577231382  0.8312797310983584  1.0000
  H   H10       1.0  0.9072569950895107  0.38809237791487705  0.3574235647348334  1.0000
  H   H11       1.0  0.9007301149607732  0.2716566784264285  0.12876876441476792  1.0000
  H   H12       1.0  0.9283747772810675  0.8564547837374652  0.3580715938714014  1.0000
  H   H13       1.0  0.9693597107929832  0.7432062126428559  0.7222262077511596  1.0000
  H   H14       1.0  0.9478676980476883  0.8879112128458393  0.09583577341495397  1.0000
  H   H15       1.0  0.9346829917785098  0.060560154566337676  0.9993648782853568  1.0000
  C   C23       1.0  0.9226718964741301  0.6105246475366088  0.0693404650950038  1.0000
  C   C24       1.0  0.8734171158495717  0.702460003345116  0.13095801365260984  1.0000
  C   C25       1.0  0.830272315771454  0.8031123576958092  0.044276021952863065  1.0000
  C   C26       1.0  0.8353373203299909  0.8103884219212828  0.8939445828477329  1.0000
  C   C27       1.0  0.8829021299143136  0.7184343076428858  0.8307657913377455  1.0000
  C   C28       1.0  0.9261223135036936  0.6163166615961362  0.9161905714339933  1.0000
  C   C29       1.0  0.7769553005577673  0.8991771808620715  0.11191904244110694  1.0000
  C   C30       1.0  0.6976150661519513  0.8248051466199864  0.12556769309383387  1.0000
  N   N4        1.0  0.6461046355806971  0.9197550287784965  0.1890394177612149  1.0000
  H   H16       1.0  0.9777148249720489  0.3989184443141609  0.3710866986381307  1.0000
  H   H17       1.0  0.8697423397741368  0.6982664623650459  0.24745543363838476  1.0000
  H   H18       1.0  0.8017409810327687  0.8864333839743987  0.8252623410887816  1.0000
  H   H19       1.0  0.8843236979775587  0.7246990502717008  0.7138703305136493  1.0000
  H   H20       1.0  0.0306472518300307  0.48933536591240423  0.6552745245754039  1.0000
  H   H21       1.0  0.8011430408830873  0.9257098689337455  0.2208069235742713  1.0000
  H   H22       1.0  0.7714061455697434  0.003043856913788721  0.045032988895871595  1.0000
  H   H23       1.0  0.6734743749806754  0.7994337238299312  0.016266099473232435  1.0000
  H   H24       1.0  0.7024421936404417  0.7217328917474621  0.19427091490475834  1.0000
  H   H25       1.0  0.5916027711087434  0.8686407902140346  0.18853841000039995  1.0000
  H   H26       1.0  0.6641231904113055  0.9278592835633068  0.29778680571087207  1.0000
  Zn  Zn1       1.0  0.8402765355525753  0.6092925762311947  0.4851458556162938  1.0000
  Zn  Zn2       1.0  0.008510293624000466  0.6175476623641938  0.5003838589728311  1.0000
  C   C31       1.0  0.9254354373242265  0.6094737995102424  0.7561187042841246  1.0000
  C   C32       1.0  0.9233532399694091  0.6173683507038421  0.22941131788253566  1.0000
  C   C33       1.0  0.9258799246835746  0.8769014782962745  0.4869694918066483  1.0000
  C   C34       1.0  0.9229086855824608  0.3499389361313825  0.4985606023619782  1.0000
  O   O1        1.0  0.9874257034275051  0.6227916275348488  0.2889153023931428  1.0000
  O   O2        1.0  0.9890484956491336  0.6103148507344469  0.7081795968708482  1.0000
  O   O3        1.0  0.9894065702764021  0.8262660514620233  0.49083962528117603  1.0000
  O   O4        1.0  0.9870675710121081  0.40684043357236815  0.5062551606683325  1.0000
  O   O5        1.0  0.8617192007545207  0.8199998022074841  0.47927454871322506  1.0000
  O   O6        1.0  0.8613611357449054  0.6040503344507975  0.6966144430933638  1.0000
  O   O7        1.0  0.859738336222892  0.6165270491175423  0.2773484150428349  1.0000
  O   O8        1.0  0.8593802041856765  0.4005758455744288  0.49468838142493987  1.0000
