data_image0
_chemical_formula_structural       NC11NC3H8C13OH12C12NCOH11Zn2C4O8
_chemical_formula_sum              "N3 C44 H31 O10 Zn2"
_cell_length_a       17.807433833752565
_cell_length_b       10.299150109392551
_cell_length_c       10.299148425239203
_cell_angle_alpha    85.51660845067315
_cell_angle_beta     88.51012908396928
_cell_angle_gamma    90.66566965777596

_space_group_name_H-M_alt    "P 1"
_space_group_IT_number       1

loop_
  _space_group_symop_operation_xyz
  'x, y, z'

loop_
  _atom_site_type_symbol
  _atom_site_label
  _atom_site_symmetry_multiplicity
  _atom_site_fract_x
  _atom_site_fract_y
  _atom_site_fract_z
  _atom_site_occupancy
  N   N1        1.0  0.7073611375658714  0.43918997465842596  0.5340587853072454  1.0000
  C   C1        1.0  0.6565383386403182  0.404433095248611  0.6006377590225639  1.0000
  C   C2        1.0  0.5933096518673583  0.361198403467306  0.6834535064504184  1.0000
  C   C3        1.0  0.6050305562093405  0.29759263120461  0.8062024133272458  1.0000
  C   C4        1.0  0.5437092861389861  0.2560387850304229  0.8867334948758469  1.0000
  C   C5        1.0  0.47051272820133155  0.27777715381918816  0.8451566180665304  1.0000
  C   C6        1.0  0.45781506938718697  0.3415376796985922  0.7219474283566484  1.0000
  C   C7        1.0  0.3800504536206171  0.3646074185982118  0.6775892476254712  1.0000
  C   C8        1.0  0.3612890178875356  0.3477876627717882  0.5480053268480125  1.0000
  C   C9        1.0  0.2880625310744335  0.3694873189980467  0.5063843885500513  1.0000
  C   C10       1.0  0.23265446752281346  0.40832562196257416  0.5935269294238025  1.0000
  C   C11       1.0  0.157291337013022  0.43068435585682224  0.5505443746100016  1.0000
  N   N2        1.0  0.09670475337411741  0.4486591168641043  0.515989528813041  1.0000
  C   C12       1.0  0.2507243786773062  0.4253561903650671  0.7225796062103729  1.0000
  C   C13       1.0  0.323898072761196  0.40362149571276407  0.7644560040786031  1.0000
  C   C14       1.0  0.5199936497798918  0.38308695380280683  0.6414327653712748  1.0000
  H   H1        1.0  0.66149467772234  0.2801630522677836  0.8395762856227206  1.0000
  H   H2        1.0  0.552902644836958  0.206543629557159  0.981493295808533  1.0000
  H   H3        1.0  0.4238705593833549  0.24319230880465123  0.9086120253477287  1.0000
  H   H4        1.0  0.40298331852043656  0.31617202280672707  0.47929466314529573  1.0000
  H   H5        1.0  0.2746383015127982  0.35564705094599147  0.4063474118606507  1.0000
  H   H6        1.0  0.208313596811402  0.4557489287735417  0.7907758813028987  1.0000
  H   H7        1.0  0.3367936102432231  0.41900736014442885  0.864309686558057  1.0000
  H   H8        1.0  0.5114984816281384  0.43394446294484484  0.5469068329673566  1.0000
  C   C15       1.0  0.9021073209455778  0.06252664784008097  0.5251648174514438  1.0000
  C   C16       1.0  0.9007032262755312  0.05063078293222989  0.6620500135252976  1.0000
  C   C17       1.0  0.8999259912972837  0.927463248982994  0.7311930330035101  1.0000
  C   C18       1.0  0.9005584349619781  0.8153720695682377  0.6616933135434264  1.0000
  C   C19       1.0  0.9019657494010704  0.8253125702613207  0.524894372887635  1.0000
  C   C20       1.0  0.902734034388189  0.9493497886914788  0.4574294713642355  1.0000
  C   C21       1.0  0.89843408142394  0.9158604020313974  0.8759122246734026  1.0000
  C   C22       1.0  0.8522285892223554  0.8218278011966086  0.9460826425040703  1.0000
  C   C23       1.0  0.850799813875202  0.8109903377771149  0.08226441235219852  1.0000
  C   C24       1.0  0.8960434486922579  0.893037158153559  0.15071475995547057  1.0000
  C   C25       1.0  0.9415300951405818  0.9880056404559678  0.08122031881327975  1.0000
  C   C26       1.0  0.9429763094256397  0.9990193251569719  0.9450374508969609  1.0000
  C   C27       1.0  0.8929285141172836  0.8837075098694854  0.2969555282571263  1.0000
  O   O1        1.0  0.8367718605079458  0.9655002221520002  0.3398051328908194  1.0000
  H   H9        1.0  0.9042695349892322  0.29226161577425414  0.26681024690590527  1.0000
  H   H10       1.0  0.8991693750419996  0.13734323486609476  0.715133381196091  1.0000
  H   H11       1.0  0.9009792396394525  0.720236159386127  0.7145108917265075  1.0000
  H   H12       1.0  0.9038174123150653  0.9577333511859453  0.3519124537459497  1.0000
  H   H13       1.0  0.9024564865749638  0.5016593376746145  0.47227904922743646  1.0000
  H   H14       1.0  0.8163083122711758  0.7579689453878893  0.895637453319289  1.0000
  H   H15       1.0  0.8142470962921369  0.7387491116475992  0.13433979899555737  1.0000
  H   H16       1.0  0.9760664409215001  0.053383473190128594  0.13247599227689866  1.0000
  H   H17       1.0  0.9795540787810243  0.07170623147065756  0.893767599726043  1.0000
  H   H18       1.0  0.9481832679957881  0.9128624981056834  0.33456391120877116  1.0000
  H   H19       1.0  0.8807141023430913  0.7813721726039531  0.3353375483465491  1.0000
  H   H20       1.0  0.8370357998017731  0.9557860165343574  0.4364261351809577  1.0000
  C   C28       1.0  0.9020930120990063  0.44407685853849427  0.14363069319192023  1.0000
  C   C29       1.0  0.9783088746603504  0.4814922575378582  0.1361111940610793  1.0000
  C   C30       1.0  0.016832618809054404  0.5002455257281844  0.015172127720209485  1.0000
  C   C31       1.0  0.978150564213471  0.48114822944685365  0.9008615097511621  1.0000
  C   C32       1.0  0.9019800480901972  0.4437624092746619  0.9064284378728914  1.0000
  C   C33       1.0  0.8643981440144302  0.4254369484352407  0.02829803186235269  1.0000
  C   C34       1.0  0.09741446425578193  0.5398011570571786  0.00831217761230585  1.0000
  C   C35       1.0  0.14790693660097332  0.483653606140139  0.9223916360623515  1.0000
  C   C36       1.0  0.22369803593044343  0.5210131202714756  0.9160871814924079  1.0000
  C   C37       1.0  0.2507715120900573  0.6139519647574638  0.9963061814608061  1.0000
  C   C38       1.0  0.20020414025590116  0.671944058308467  0.0806611318306727  1.0000
  C   C39       1.0  0.12437907023614114  0.6346903951321201  0.08706396546713546  1.0000
  N   N3        1.0  0.32878622289265075  0.6520592291936151  0.9861369951048777  1.0000
  C   C40       1.0  0.3719925718456687  0.6897860298599625  0.09284858109156269  1.0000
  O   O2        1.0  0.3465754776016381  0.6750041815231179  0.2083934998677408  1.0000
  H   H21       1.0  0.7583589948277977  0.3726961008666367  0.3651709711560541  1.0000
  H   H22       1.0  0.008113217800292285  0.4944135210971361  0.22464995937063548  1.0000
  H   H23       1.0  0.007296304194117423  0.4972499969415387  0.8072703778294011  1.0000
  H   H24       1.0  0.8056468002312396  0.396596816576982  0.03330699872196031  1.0000
  H   H25       1.0  0.8726850320645135  0.42934657217444183  0.5810964007035242  1.0000
  H   H26       1.0  0.12897974731437767  0.4096775893356577  0.861123896173682  1.0000
  H   H27       1.0  0.26166613792639737  0.4763949254852777  0.849386721772643  1.0000
  H   H28       1.0  0.21870460559551397  0.7480744088985338  0.13954128098704977  1.0000
  H   H29       1.0  0.08649912034859321  0.6819772018008139  0.15186679158749605  1.0000
  H   H30       1.0  0.3576819461871048  0.6438219585148945  0.8976161272535769  1.0000
  H   H31       1.0  0.42839489287856103  0.7282005298513519  0.07439364353518174  1.0000
  Zn  Zn1       1.0  0.8197172941384612  0.4419190865650382  0.5288518745397048  1.0000
  Zn  Zn2       1.0  0.9843485824443883  0.44591938019208394  0.5212070301919685  1.0000
  C   C41       1.0  0.9020006915484121  0.43864773183256034  0.7622452726201602  1.0000
  C   C42       1.0  0.9020669824799605  0.44919241729954756  0.2878136755254572  1.0000
  C   C43       1.0  0.9019894082885164  0.6811318723458366  0.5197700753770009  1.0000
  C   C44       1.0  0.9020782098420633  0.20670671497122362  0.5302889451746309  1.0000
  O   O3        1.0  0.9645349636825903  0.45242166996154726  0.3333016249449774  1.0000
  O   O4        1.0  0.9644840490984855  0.43845362982995656  0.7109546897023606  1.0000
  O   O5        1.0  0.9644740953074298  0.6342626189036289  0.5151542910072597  1.0000
  O   O6        1.0  0.9645448613088354  0.2566126888539204  0.52910192886313  1.0000
  O   O7        1.0  0.8395209590934358  0.6312257765395144  0.5209569784705212  1.0000
  O   O8        1.0  0.8395309126017063  0.43541834791720246  0.7167573073615862  1.0000
  O   O9        1.0  0.8395818274754066  0.4493863434343057  0.33910268109451663  1.0000
  O   O10       1.0  0.8395917250858841  0.25357735299694695  0.5349030823915963  1.0000
