data_image0
_chemical_formula_structural       NC6NCNCH5C6NCOH7C9H9Zn2C4O8
_chemical_formula_sum              "N4 C28 H21 O9 Zn2"
_cell_length_a       14.933214217465613
_cell_length_b       9.273730183620394
_cell_length_c       10.297187173949778
_cell_angle_alpha    85.71383111101245
_cell_angle_beta     89.94016841995526
_cell_angle_gamma    90.62849436272045

_space_group_name_H-M_alt    "P 1"
_space_group_IT_number       1

loop_
  _space_group_symop_operation_xyz
  'x, y, z'

loop_
  _atom_site_type_symbol
  _atom_site_label
  _atom_site_symmetry_multiplicity
  _atom_site_fract_x
  _atom_site_fract_y
  _atom_site_fract_z
  _atom_site_occupancy
  N   N1        1.0  0.8538486856131196  0.5789946819394303  0.5700192775944837  1.0000
  C   C1        1.0  0.7763651202727  0.5799913213872592  0.5691289755265769  1.0000
  C   C2        1.0  0.6799750261237861  0.5812338761759454  0.568018878577634  1.0000
  C   C3        1.0  0.6315073927350058  0.4854749831681318  0.6535780661103872  1.0000
  C   C4        1.0  0.5379812415939527  0.4865578098867062  0.6526106026905925  1.0000
  C   C5        1.0  0.49202000133362334  0.5833446645578754  0.5661329792861045  1.0000
  C   C6        1.0  0.3954303096032654  0.5812360327663018  0.5680170174024965  1.0000
  N   N2        1.0  0.3179328518969263  0.5794769679494447  0.5695883851251407  1.0000
  C   C7        1.0  0.5405945229861037  0.6803127312804822  0.47949352789037514  1.0000
  N   N3        1.0  0.495958596186976  0.7809114546535005  0.3896102664746055  1.0000
  C   C8        1.0  0.6345945426021884  0.6782638133515391  0.4813243112636125  1.0000
  H   H1        1.0  0.6659978276818462  0.409975536036856  0.7210356927418908  1.0000
  H   H2        1.0  0.5013949369812255  0.41169347585359306  0.7195006498121959  1.0000
  H   H3        1.0  0.5327914532115074  0.8519639402415254  0.32612586033862345  1.0000
  H   H4        1.0  0.4262530760154112  0.7862641647060677  0.3848277617183351  1.0000
  H   H5        1.0  0.6723002238181861  0.7523748889881376  0.41510714160405304  1.0000
  C   C9        1.0  0.08315983532680393  0.15573221876083343  0.568839931519467  1.0000
  C   C10       1.0  0.09632867522319248  0.23921699111010478  0.4504166526512625  1.0000
  C   C11       1.0  0.11638217199994877  0.174414676379534  0.335455804279285  1.0000
  C   C12       1.0  0.12610562737247788  0.023970013146536354  0.3398095042707576  1.0000
  C   C13       1.0  0.1119333356795551  0.9393140370136215  0.45589738218446874  1.0000
  C   C14       1.0  0.08863020973048612  0.0027283475754473828  0.570779002480716  1.0000
  N   N4        1.0  0.13155555075560815  0.26419136211471694  0.2172912931375346  1.0000
  C   C15       1.0  0.10922671035420511  0.22319592613800765  0.08970220866724121  1.0000
  O   O1        1.0  0.06319840250695119  0.11124446546714539  0.07397054917130363  1.0000
  H   H6        1.0  0.0970980445612848  0.23241981644493429  0.8880408094248561  1.0000
  H   H7        1.0  0.09234551294055282  0.3560390663637796  0.4475554463404643  1.0000
  H   H8        1.0  0.14556454137254804  0.9714844898343982  0.2539471441185237  1.0000
  H   H9        1.0  0.11769591006172789  0.8230284201173592  0.4551796498508043  1.0000
  H   H10       1.0  0.0941774299738658  0.7039455413535175  0.785565073762915  1.0000
  H   H11       1.0  0.15480474236598596  0.36998993022253757  0.22440459446871294  1.0000
  H   H12       1.0  0.1300512227882842  0.29182004225322933  0.005238596940892795  1.0000
  C   C16       1.0  0.08601305989326535  0.5791782540445206  0.18835606436604668  1.0000
  C   C17       1.0  0.995518896737413  0.6186959021569965  0.18504909190379037  1.0000
  C   C18       1.0  0.9491560681518206  0.6389417161808215  0.06673842811550035  1.0000
  C   C19       1.0  0.995168093318385  0.618848538762369  0.9498270436981197  1.0000
  C   C20       1.0  0.08577697058159317  0.5792822970961435  0.9512628326203685  1.0000
  C   C21       1.0  0.13060773523086233  0.5597041160274989  0.07091745822523876  1.0000
  C   C22       1.0  0.851280106301544  0.6816825818769485  0.07259387041027177  1.0000
  C   C23       1.0  0.788212809662675  0.6236108111592037  0.9722474357229052  1.0000
  C   C24       1.0  0.815868846203584  0.7827426230035308  0.9614874508098893  1.0000
  H   H13       1.0  0.9605832559830072  0.6339522438692082  0.2751947780688264  1.0000
  H   H14       1.0  0.9612018491474097  0.6336778356998822  0.8572855972275611  1.0000
  H   H15       1.0  0.20042570254822123  0.529214702799188  0.07274150822530179  1.0000
  H   H16       1.0  0.2569081103550404  0.5045343500238366  0.746759445932522  1.0000
  H   H17       1.0  0.8198213163172818  0.695421438458333  0.1687319695729621  1.0000
  H   H18       1.0  0.8181188829302657  0.5585493545388323  0.8975452804297485  1.0000
  H   H19       1.0  0.7184884193649097  0.6040247215570982  0.007385957750594143  1.0000
  H   H20       1.0  0.8625748874498573  0.8143448607590799  0.8802501206184088  1.0000
  H   H21       1.0  0.7623073956289314  0.8561625044998306  0.9903348200616633  1.0000
  Zn  Zn1       1.0  0.9877733245226767  0.5791299905964558  0.5699024316046801  1.0000
  Zn  Zn2       1.0  0.18400811861167854  0.5793298295461069  0.5697158712835113  1.0000
  C   C25       1.0  0.08578248412664063  0.5735173249405094  0.8070439638640691  1.0000
  C   C26       1.0  0.08600111359843134  0.5849443170603839  0.3325744686473229  1.0000
  C   C27       1.0  0.08759316608764878  0.8426273038021403  0.5652361304832536  1.0000
  C   C28       1.0  0.08419035346414505  0.31583260545096925  0.5743823673791133  1.0000
  O   O2        1.0  0.16046714534811235  0.5869490066141918  0.38090466950226953  1.0000
  O   O3        1.0  0.16025411361552244  0.571663220509649  0.758571791622549  1.0000
  O   O4        1.0  0.16171525788791624  0.7889729309624258  0.5633102597243325  1.0000
  O   O5        1.0  0.1590059342108481  0.36963930639657505  0.57616610409153  1.0000
  O   O6        1.0  0.012775441958215126  0.7888205136793618  0.5634521988534964  1.0000
  O   O7        1.0  0.011314308893807695  0.5715125359077416  0.758713665457573  1.0000
  O   O8        1.0  0.01152734084469254  0.5867982715434499  0.38104498147567223  1.0000
  O   O9        1.0  0.010066129607006598  0.36948856102404615  0.5763065134307246  1.0000
