data_image0
_chemical_formula_structural       NC9NC5H8C6H6C7OH5Zn2C4O8
_chemical_formula_sum              "N2 C31 H19 O9 Zn2"
_cell_length_a       17.807436237873137
_cell_length_b       10.681118228259551
_cell_length_c       9.274081674992354
_cell_angle_alpha    86.07103853506838
_cell_angle_beta     89.07685020002327
_cell_angle_gamma    88.3900060031841

_space_group_name_H-M_alt    "P 1"
_space_group_IT_number       1

loop_
  _space_group_symop_operation_xyz
  'x, y, z'

loop_
  _atom_site_type_symbol
  _atom_site_label
  _atom_site_symmetry_multiplicity
  _atom_site_fract_x
  _atom_site_fract_y
  _atom_site_fract_z
  _atom_site_occupancy
  N   N1        1.0  0.7122089597745331  0.32556446567975666  0.3985226840687941  1.0000
  C   C1        1.0  0.6516580959679465  0.29153493541799763  0.3862869393061279  1.0000
  C   C2        1.0  0.5763394765440071  0.24920594715099195  0.3710670013644368  1.0000
  C   C3        1.0  0.5585972475791834  0.17942205885688312  0.25452166025834777  1.0000
  C   C4        1.0  0.4854670287314473  0.13821563377199042  0.23965237004180498  1.0000
  C   C5        1.0  0.4290304283429895  0.16642876564346798  0.341292401800942  1.0000
  C   C6        1.0  0.3513115843567147  0.1227484796923095  0.32558129349285037  1.0000
  C   C7        1.0  0.2890489580901327  0.20181203060463024  0.354371594324834  1.0000
  C   C8        1.0  0.2157763889327318  0.16040993812811763  0.3395174890043972  1.0000
  C   C9        1.0  0.1524624622445045  0.24207191271061854  0.3687116964532939  1.0000
  N   N2        1.0  0.1015710558971679  0.3077225001440238  0.39218303289193646  1.0000
  C   C10       1.0  0.2041829855429827  0.039695305894324344  0.29584494636787606  1.0000
  C   C11       1.0  0.2655882698890151  0.9606183239357254  0.26704533359059646  1.0000
  C   C12       1.0  0.3387420806490568  0.0016381922328203532  0.28167463621676014  1.0000
  C   C13       1.0  0.44746333266681537  0.23669128459734387  0.45808107170282364  1.0000
  C   C14       1.0  0.5206469404875808  0.2777127520908418  0.47277760109970224  1.0000
  H   H1        1.0  0.6012306429113178  0.15711204218629682  0.17492585148513462  1.0000
  H   H2        1.0  0.4728302277643404  0.08572457012766742  0.14761683412530635  1.0000
  H   H3        1.0  0.2974503746348733  0.2960490116730228  0.38642299021792104  1.0000
  H   H4        1.0  0.1477532002061583  0.0067820147090240646  0.2840854039356484  1.0000
  H   H5        1.0  0.2564925002615309  0.8671616459449328  0.2336615713260437  1.0000
  H   H6        1.0  0.385446271910453  0.9380743159500635  0.26053230792838455  1.0000
  H   H7        1.0  0.40554251313501677  0.2584928350590603  0.539113676619908  1.0000
  H   H8        1.0  0.5338155544688529  0.33137169271590355  0.5636570097581906  1.0000
  C   C15       1.0  0.9068935877808759  0.9488933774947708  0.39535902547114166  1.0000
  C   C16       1.0  0.9395324113771616  0.873772289888349  0.5092965944746979  1.0000
  C   C17       1.0  0.9395324000880655  0.7428900517187574  0.5092965287595368  1.0000
  C   C18       1.0  0.9068935749801549  0.6843837825214241  0.39535908798826846  1.0000
  C   C19       1.0  0.8742817704003704  0.7594929658976118  0.2815156732714079  1.0000
  C   C20       1.0  0.8742817816740122  0.8903852239335763  0.28151573158784204  1.0000
  H   H9        1.0  0.8738866980096948  0.2560041789910903  0.28013789334915895  1.0000
  H   H10       1.0  0.9651163058243558  0.9160714685890156  0.5986061929755744  1.0000
  H   H11       1.0  0.9651162135291992  0.6875674440250882  0.5986061690175155  1.0000
  H   H12       1.0  0.8486945402178911  0.7172393922412701  0.19219441361873746  1.0000
  H   H13       1.0  0.8486945205595052  0.9456638320850799  0.19219440221861683  1.0000
  H   H14       1.0  0.873886975789421  0.3940748123487089  0.280137498921188  1.0000
  C   C21       1.0  0.9081615166611925  0.31329764256304227  0.9720686829401218  1.0000
  C   C22       1.0  0.9691786913654372  0.3650033464775948  0.03960128036750388  1.0000
  C   C23       1.0  0.025941243958401028  0.4261426458337922  0.9581941233538629  1.0000
  C   C24       1.0  0.021671382383488647  0.43591655618889336  0.8071409444792668  1.0000
  C   C25       1.0  0.9622285630533817  0.38342466603183745  0.7383798860054909  1.0000
  C   C26       1.0  0.9056256413058001  0.31997947615355343  0.8186493869208724  1.0000
  C   C27       1.0  0.08871023453317561  0.480261013040999  0.03261704801450094  1.0000
  O   O1        1.0  0.14041486425397331  0.5362370437569477  0.9624354700128617  1.0000
  H   H15       1.0  0.7301515680018221  0.24010486449485932  0.08633583068813344  1.0000
  H   H16       1.0  0.06468861628470976  0.48312973444106233  0.7418326773654229  1.0000
  H   H17       1.0  0.9615316965304831  0.38992696192545107  0.6213174737265019  1.0000
  H   H18       1.0  0.786963851399788  0.2655011843215731  0.5454970848842979  1.0000
  H   H19       1.0  0.09090051162302704  0.47219928469372385  0.14948857436376728  1.0000
  Zn  Zn1       1.0  0.8245704238673014  0.32041238409229056  0.3967015340888471  1.0000
  Zn  Zn2       1.0  0.9892095381109145  0.3128644671268981  0.39401603309500705  1.0000
  C   C28       1.0  0.9061032954480454  0.3137276283524497  0.658627567769472  1.0000
  C   C29       1.0  0.9076784639603424  0.3195507216638571  0.13209011156695394  1.0000
  C   C30       1.0  0.9069069087416911  0.5453152558578414  0.3896150931717226  1.0000
  C   C31       1.0  0.9068747942567216  0.08796159275736515  0.40110266393054345  1.0000
  O   O2        1.0  0.9699960328928556  0.3187794535662427  0.1847756311959068  1.0000
  O   O3        1.0  0.9687430059796037  0.3087692541092033  0.6039034000838279  1.0000
  O   O4        1.0  0.9693910871316294  0.4957792425883101  0.3866739372769734  1.0000
  O   O5        1.0  0.9693478958843951  0.13176947576815579  0.402004986840696  1.0000
  O   O6        1.0  0.8444320099105939  0.5015073780280703  0.3887125812520058  1.0000
  O   O7        1.0  0.8437839289853168  0.31449889352710025  0.6059419672018684  1.0000
  O   O8        1.0  0.8450369611397383  0.324509035663598  0.18681246527759798  1.0000
  O   O9        1.0  0.8443888238044862  0.13749904976152824  0.40404192899330105  1.0000
