data_image0
_chemical_formula_structural       NC11NC3H8C10SC3H12C11NC2H7Zn2C4O8
_chemical_formula_sum              "N3 C44 H27 S1 Zn2 O8"
_cell_length_a       17.807433833752565
_cell_length_b       10.299151087687916
_cell_length_c       10.299775503585812
_cell_angle_alpha    85.55102628306553
_cell_angle_beta     88.53633354510187
_cell_angle_gamma    90.6985468723981

_space_group_name_H-M_alt    "P 1"
_space_group_IT_number       1

loop_
  _space_group_symop_operation_xyz
  'x, y, z'

loop_
  _atom_site_type_symbol
  _atom_site_label
  _atom_site_symmetry_multiplicity
  _atom_site_fract_x
  _atom_site_fract_y
  _atom_site_fract_z
  _atom_site_occupancy
  N   N1        1.0  0.7074444124550321  0.4382424411796036  0.5341482503201491  1.0000
  C   C1        1.0  0.6566280200180401  0.4035289555429973  0.6007211927128102  1.0000
  C   C2        1.0  0.5934073015770565  0.3603482400598339  0.6835294380457999  1.0000
  C   C3        1.0  0.6051401751017776  0.29682247667350437  0.8062671947398286  1.0000
  C   C4        1.0  0.5438268160238992  0.25532112346739416  0.88679094977003  1.0000
  C   C5        1.0  0.4706262685755416  0.27703239434211707  0.845217837209115  1.0000
  C   C6        1.0  0.45791656781614587  0.34071261034495187  0.7220198448784159  1.0000
  C   C7        1.0  0.3801476547714047  0.3637534371609106  0.677665688104696  1.0000
  C   C8        1.0  0.3613456320687094  0.3468482312558791  0.5480989375691064  1.0000
  C   C9        1.0  0.2881151309614354  0.36852076012565743  0.5064817714793346  1.0000
  C   C10       1.0  0.23274352471762666  0.40741684979317916  0.5936109956777196  1.0000
  C   C11       1.0  0.1573762316700761  0.42974756827080496  0.5506323397465533  1.0000
  N   N2        1.0  0.0967863016425204  0.44769980692168965  0.5160806283696411  1.0000
  C   C12       1.0  0.2508539495806396  0.4245325212474522  0.7226465546244591  1.0000
  C   C13       1.0  0.3240317152696582  0.40282512160561  0.7645191508204858  1.0000
  C   C14       1.0  0.520087240127458  0.38220940222908056  0.6415125066669556  1.0000
  H   H1        1.0  0.6616075056199201  0.27941464953944356  0.8396380441852624  1.0000
  H   H2        1.0  0.5530292839714565  0.20588772869962327  0.981542168227823  1.0000
  H   H3        1.0  0.4239897201434681  0.24248889014377545  0.9086675899174095  1.0000
  H   H4        1.0  0.4030108563466587  0.3151870156391861  0.47939883767560443  1.0000
  H   H5        1.0  0.2746592839940925  0.35461451575815045  0.4064581049961003  1.0000
  H   H6        1.0  0.20847169810005062  0.4549704825328527  0.7908324084064287  1.0000
  H   H7        1.0  0.33695933517080867  0.41827685991530617  0.8643594464675046  1.0000
  H   H8        1.0  0.5115834793759795  0.433005320525368  0.5469950401008061  1.0000
  C   C15       1.0  0.902062809500806  0.0615688396911689  0.5252796065589811  1.0000
  C   C16       1.0  0.8870205756432636  0.07083017554075786  0.39174101456053645  1.0000
  C   C17       1.0  0.879452407164305  0.9583968877954998  0.3238713332253933  1.0000
  C   C18       1.0  0.8871279918944383  0.8355804799435033  0.39133704056788554  1.0000
  C   C19       1.0  0.9021750649112811  0.8243635501898962  0.524960137738703  1.0000
  C   C20       1.0  0.9095513210152607  0.9378719528032337  0.5911090893444568  1.0000
  C   C21       1.0  0.8635337406872785  0.9692292866098012  0.18261088381485235  1.0000
  C   C22       1.0  0.811353165897375  0.059949670216203454  0.1317607802489833  1.0000
  C   C23       1.0  0.7963963678136474  0.06991574344357045  0.9988093380258385  1.0000
  C   C24       1.0  0.8331816581413058  0.9894218088762333  0.9150571184260654  1.0000
  S   S1        1.0  0.8140711154937768  0.0026757317413097477  0.7444233160358644  1.0000
  C   C25       1.0  0.7381055310573426  0.8822779805851076  0.7610706455986685  1.0000
  C   C26       1.0  0.8853405601370246  0.8992792515047315  0.9645014308138666  1.0000
  C   C27       1.0  0.9004055084767856  0.8889696497613863  0.09741061901240292  1.0000
  H   H9        1.0  0.9078086114650481  0.3854803733456332  0.5766580591662329  1.0000
  H   H10       1.0  0.8821737059676233  0.165774730902583  0.33980710529245517  1.0000
  H   H11       1.0  0.8803348417514072  0.7485374154798413  0.33989377483480876  1.0000
  H   H12       1.0  0.9211513127895663  0.9300124970316248  0.6941117239675607  1.0000
  H   H13       1.0  0.9301069124080306  0.5958749800757701  0.7773442371297092  1.0000
  H   H14       1.0  0.781415816333464  0.12197058641628367  0.1950597253658886  1.0000
  H   H15       1.0  0.7559347884017791  0.13984675424564783  0.9611254047496696  1.0000
  H   H16       1.0  0.7146947081820232  0.8706711006394995  0.6638100983066519  1.0000
  H   H17       1.0  0.6928703629305084  0.9149995320912039  0.8266195307162216  1.0000
  H   H18       1.0  0.7596107658538046  0.7870048308585096  0.8008840789417861  1.0000
  H   H19       1.0  0.9142772183764728  0.8371513589162045  0.9000495729287278  1.0000
  H   H20       1.0  0.9415856447434886  0.81945649265451  0.13328724167912467  1.0000
  C   C28       1.0  0.9020724972776196  0.4428725219377718  0.1437683182421774  1.0000
  C   C29       1.0  0.8425816705256932  0.531205179137628  0.13854810077926683  1.0000
  C   C30       1.0  0.8124842762807128  0.576058860818582  0.01875482463175416  1.0000
  C   C31       1.0  0.8426752715145078  0.5313941847246935  0.90324266942603  1.0000
  C   C32       1.0  0.902165413439813  0.4430599207302035  0.906471385602791  1.0000
  C   C33       1.0  0.9315310185552731  0.39929423415104326  0.02720841353412973  1.0000
  C   C34       1.0  0.7495485978578256  0.6695101975670127  0.01428616000021799  1.0000
  C   C35       1.0  0.7490497840325347  0.7745637280383799  0.9184275331151369  1.0000
  C   C36       1.0  0.689794340915226  0.8624890662034851  0.9143486545453103  1.0000
  C   C37       1.0  0.6302799346729688  0.8466140862916207  0.005821450482802031  1.0000
  C   C38       1.0  0.569292189219933  0.9371767554426854  0.0014936952850914656  1.0000
  N   N3        1.0  0.5202621522646517  0.009982886919601697  0.9980142676911942  1.0000
  C   C39       1.0  0.6302286856481699  0.7424408005105247  0.10151402995090521  1.0000
  C   C40       1.0  0.689447623438569  0.6544415518018868  0.10584357226744913  1.0000
  H   H21       1.0  0.924720030696925  0.4091704256002851  0.4732150912229425  1.0000
  H   H22       1.0  0.8201915121581443  0.5667070369472497  0.22771328175425068  1.0000
  H   H23       1.0  0.8189959906990046  0.5642982830999812  0.8108059872145633  1.0000
  H   H24       1.0  0.9774252675177758  0.33114915713512305  0.030467464464473796  1.0000
  H   H25       1.0  0.7949587225210026  0.789688894233166  0.8476750989147841  1.0000
  H   H26       1.0  0.5843350780400913  0.7290231708325132  0.172592692620605  1.0000
  H   H27       1.0  0.6877630363134916  0.5736470191319463  0.17973479952039642  1.0000
  Zn  Zn1       1.0  0.8198000716257321  0.44096815953758584  0.52894181054077  1.0000
  Zn  Zn2       1.0  0.9844306274373626  0.4449634706410313  0.5212976581286949  1.0000
  C   C41       1.0  0.9021453968044576  0.43785031463076507  0.7623064416153076  1.0000
  C   C42       1.0  0.9020871002759168  0.44808299797115697  0.2879330703545335  1.0000
  C   C43       1.0  0.9021493636179849  0.680177779667555  0.5198457573102263  1.0000
  C   C44       1.0  0.9020830770642443  0.20575397114861405  0.5303938271570661  1.0000
  O   O1        1.0  0.9645684382927102  0.45134221482987236  0.3334151644953583  1.0000
  O   O2        1.0  0.9646148411671851  0.4376224665540745  0.7110222392487276  1.0000
  O   O3        1.0  0.9646172023714783  0.6333049391130127  0.515233559763489  1.0000
  O   O4        1.0  0.964566020900668  0.25565975017471987  0.5292037492149031  1.0000
  O   O5        1.0  0.8396646219820973  0.6302718786419061  0.5210357220563042  1.0000
  O   O6        1.0  0.8396622609956196  0.4345909665067303  0.7168243316458345  1.0000
  O   O7        1.0  0.839615857974278  0.4483106691402082  0.3392156955795203  1.0000
  O   O8        1.0  0.839613440589655  0.2526281952192786  0.5350043776665019  1.0000
