data_image0
_chemical_formula_structural       NC8NC6H8C12H9C7NC2NH6Zn2C4O8
_chemical_formula_sum              "N4 C39 H23 Zn2 O8"
_cell_length_a       17.457602349358154
_cell_length_b       10.299137764757564
_cell_length_c       9.27399911348925
_cell_angle_alpha    85.04301149889446
_cell_angle_beta     92.55204972901187
_cell_angle_gamma    91.70779885892506

_space_group_name_H-M_alt    "P 1"
_space_group_IT_number       1

loop_
  _space_group_symop_operation_xyz
  'x, y, z'

loop_
  _atom_site_type_symbol
  _atom_site_label
  _atom_site_symmetry_multiplicity
  _atom_site_fract_x
  _atom_site_fract_y
  _atom_site_fract_z
  _atom_site_occupancy
  N   N1        1.0  0.7274810580927418  0.465137855963339  0.47338276915002914  1.0000
  C   C1        1.0  0.6664310700775338  0.41930279232242545  0.4616051933525697  1.0000
  C   C2        1.0  0.5904822699070987  0.36228960341545274  0.44696448881571377  1.0000
  C   C3        1.0  0.5317011854882893  0.40179078534008417  0.5301668928456225  1.0000
  C   C4        1.0  0.4571887454447395  0.34689059429543545  0.5162080786996774  1.0000
  C   C5        1.0  0.39480183531703117  0.3885959091920725  0.6043226285720473  1.0000
  C   C6        1.0  0.3204525545276002  0.40756039574542857  0.5423576978695042  1.0000
  C   C7        1.0  0.26167105628512544  0.4468766789702123  0.6256801171249244  1.0000
  C   C8        1.0  0.18589143720398182  0.46646671673037443  0.5612533940024758  1.0000
  N   N2        1.0  0.12497753820239481  0.48221072549987576  0.5094544788538113  1.0000
  C   C9        1.0  0.2767449563278284  0.46746712891804426  0.7715323807751995  1.0000
  C   C10       1.0  0.35030826192654824  0.4488882257468325  0.8339278182663534  1.0000
  C   C11       1.0  0.40907659968293525  0.4097479536030957  0.7511138976449406  1.0000
  C   C12       1.0  0.442750883276088  0.2518244495851767  0.4174550229140088  1.0000
  C   C13       1.0  0.5015189137710805  0.21259842478285182  0.3346969506490416  1.0000
  C   C14       1.0  0.5752446988999957  0.267606124487684  0.349266762639131  1.0000
  H   H1        1.0  0.5438283228393488  0.47640079183319406  0.6041707409923425  1.0000
  H   H2        1.0  0.3084591854985689  0.3934935263916439  0.4290056045439836  1.0000
  H   H3        1.0  0.23168553820275883  0.49783084901282093  0.8368922421666434  1.0000
  H   H4        1.0  0.361789520485191  0.4645162005361155  0.9468645981726506  1.0000
  H   H5        1.0  0.4653990678136746  0.3943459926012007  0.8023477111219154  1.0000
  H   H6        1.0  0.3862944136614568  0.20657942550310263  0.405637095005479  1.0000
  H   H7        1.0  0.4899099680181777  0.13911560284943314  0.2593612444156468  1.0000
  H   H8        1.0  0.6203022152955633  0.2363680985868728  0.28447513319152334  1.0000
  C   C15       1.0  0.9261586490627556  0.09227010807599756  0.49156955916745176  1.0000
  C   C16       1.0  0.9265998635882369  0.10333363780182703  0.33963024840709055  1.0000
  C   C17       1.0  0.9268998788656343  0.9918160534780623  0.2624422411671403  1.0000
  C   C18       1.0  0.926752669931217  0.8680881227325545  0.3392472103279389  1.0000
  C   C19       1.0  0.9263072291686704  0.8550686627937465  0.49128085278942263  1.0000
  C   C20       1.0  0.9260142469208706  0.9676846818336905  0.5665061610525686  1.0000
  C   C21       1.0  0.9273657318959628  0.004565049404960051  0.1017053793546987  1.0000
  C   C22       1.0  0.9738669517844653  0.924856408884603  0.028278750317785033  1.0000
  C   C23       1.0  0.9742101304024953  0.9371032398758261  0.8769697024412291  1.0000
  C   C24       1.0  0.9282498508207457  0.0287077427125384  0.7973943529106465  1.0000
  C   C25       1.0  0.8818505076667048  0.10832103789726477  0.8689662890538069  1.0000
  C   C26       1.0  0.8813144709769718  0.09656081266054217  0.020258810900044107  1.0000
  H   H9        1.0  0.9277726370047163  0.1989707287313629  0.2810547018470928  1.0000
  H   H10       1.0  0.9259257479834091  0.7817459127626168  0.28021626613454215  1.0000
  H   H11       1.0  0.9256718282797229  0.9584355077936936  0.683700247409581  1.0000
  H   H12       1.0  0.9249787762213129  0.6231826015219346  0.7781921200374267  1.0000
  H   H13       1.0  0.010659462893699123  0.8543313374653355  0.08787731036961266  1.0000
  H   H14       1.0  0.010304344521018029  0.8757061148034919  0.8213937909914248  1.0000
  H   H15       1.0  0.9285901976573069  0.037999385864509565  0.6802775709741211  1.0000
  H   H16       1.0  0.8460974150688445  0.17903054742109095  0.8071629833345271  1.0000
  H   H17       1.0  0.844194548486201  0.15813937488916618  0.073443941069818  1.0000
  C   C27       1.0  0.9275582559162783  0.47705035392748035  0.06769276201217633  1.0000
  C   C28       1.0  0.9877545513194923  0.417444208358056  0.15166457707606806  1.0000
  C   C29       1.0  0.04287192520979888  0.3483734902593085  0.0880424635257182  1.0000
  C   C30       1.0  0.039274280692795496  0.3365060219045633  0.9384242330965575  1.0000
  C   C31       1.0  0.980232755714381  0.3983551114804253  0.8529976972961069  1.0000
  C   C32       1.0  0.9249076284677905  0.4702884227672916  0.9151575899844872  1.0000
  C   C33       1.0  0.0981221308384464  0.2613560168434732  0.8730997370709702  1.0000
  N   N3        1.0  0.16234216485171538  0.21873401062166065  0.946984325764225  1.0000
  C   C34       1.0  0.19945938558066056  0.15534180638737305  0.8510553598141687  1.0000
  C   C35       1.0  0.15756464930242142  0.1600152445943728  0.7217088857539489  1.0000
  N   N4        1.0  0.09383076828975798  0.22662953148369175  0.7357307972922085  1.0000
  H   H18       1.0  0.8459450049209034  0.6374801658155984  0.3267988158787094  1.0000
  H   H19       1.0  0.08784248459566268  0.3024586480507565  0.15687009987629708  1.0000
  H   H20       1.0  0.8052503792522546  0.5384527590318042  0.618507838862048  1.0000
  H   H21       1.0  0.2537072952337147  0.10823933202377736  0.8743662364326344  1.0000
  H   H22       1.0  0.172278475414257  0.1172788874109778  0.6243686304373618  1.0000
  H   H23       1.0  0.05044331647102096  0.2444523894173591  0.6560803029735087  1.0000
  Zn  Zn1       1.0  0.8421899291513516  0.47006116781542917  0.4838006181163516  1.0000
  Zn  Zn2       1.0  0.010268613869954592  0.4772766705797238  0.4990484475363277  1.0000
  C   C36       1.0  0.9254059341504033  0.4663923378738812  0.754970428927636  1.0000
  C   C37       1.0  0.9270544441611686  0.480947216955798  0.22787894423636268  1.0000
  C   C38       1.0  0.9262931863622936  0.7109292106737994  0.4855850084492399  1.0000
  C   C39       1.0  0.9261671340511943  0.23640878063267845  0.497264437032227  1.0000
  O   O1        1.0  0.990670344131317  0.48498761921485456  0.28742536425450593  1.0000
  O   O2        1.0  0.9893578679139539  0.46782735875850046  0.7069963436254691  1.0000
  O   O3        1.0  0.9900734707510119  0.6652939272508278  0.48946563212592026  1.0000
  O   O4        1.0  0.9899546842805905  0.28752105841470854  0.5049559623561697  1.0000
  O   O5        1.0  0.862503801383734  0.6598167775196222  0.47789309808558356  1.0000
  O   O6        1.0  0.8617881990877776  0.462351770089674  0.6954237320567378  1.0000
  O   O7        1.0  0.8631006807734355  0.47951199913041415  0.2758510178621125  1.0000
  O   O8        1.0  0.8623850205793955  0.2820454281772644  0.493381724150735  1.0000
