data_image0
_chemical_formula_structural       NC9NC4H8C8H5C9H10Zn2C4O8
_chemical_formula_sum              "N2 C34 H23 Zn2 O8"
_cell_length_a       16.32274767691083
_cell_length_b       9.27514070457351
_cell_length_c       9.272679976505533
_cell_angle_alpha    86.15343735439215
_cell_angle_beta     89.86705810092191
_cell_angle_gamma    90.11802364943966

_space_group_name_H-M_alt    "P 1"
_space_group_IT_number       1

loop_
  _space_group_symop_operation_xyz
  'x, y, z'

loop_
  _atom_site_type_symbol
  _atom_site_label
  _atom_site_symmetry_multiplicity
  _atom_site_fract_x
  _atom_site_fract_y
  _atom_site_fract_z
  _atom_site_occupancy
  N   N1        1.0  0.7743478650024651  0.5548680482331103  0.4016466864393482  1.0000
  C   C1        1.0  0.7214717027402477  0.501715970531522  0.3412564123724475  1.0000
  C   C2        1.0  0.6557466166373008  0.4357006761135039  0.2662512091080631  1.0000
  C   C3        1.0  0.666380926954072  0.34540349560673933  0.16365267387981275  1.0000
  C   C4        1.0  0.5865671246498726  0.30133802418302597  0.11358799134616016  1.0000
  C   C5        1.0  0.5282900515472361  0.3658268923172312  0.18686482083589318  1.0000
  C   C6        1.0  0.4381792185934843  0.34878309546177233  0.16750233020198202  1.0000
  C   C7        1.0  0.3833478215478794  0.42394897046544955  0.2529030001935957  1.0000
  C   C8        1.0  0.2984911547140012  0.40938252022732396  0.23635458927243172  1.0000
  C   C9        1.0  0.24327133174638  0.48685912565051465  0.32437978086591457  1.0000
  N   N2        1.0  0.19889340416320314  0.5491375639524724  0.3951371269894337  1.0000
  C   C10       1.0  0.2674116129050415  0.31952863424090006  0.13426808547970936  1.0000
  C   C11       1.0  0.3209221057360233  0.2444623249627538  0.048980913766248246  1.0000
  C   C12       1.0  0.4056159853014933  0.25863642096778916  0.06508341314189381  1.0000
  C   C13       1.0  0.5670005022647694  0.45985872864126054  0.29370391071122803  1.0000
  H   H1        1.0  0.7249313187772293  0.3102911600697351  0.12375443532363085  1.0000
  H   H2        1.0  0.5775212644590527  0.22753824945389337  0.029734131313451373  1.0000
  H   H3        1.0  0.40617363136824797  0.49409507721315143  0.33259884482465063  1.0000
  H   H4        1.0  0.2018978252594246  0.3075288989082455  0.12063587667339905  1.0000
  H   H5        1.0  0.29670671584524366  0.1749519685654537  0.9700076538724857  1.0000
  H   H6        1.0  0.4447865601761608  0.1985882090504188  0.9968596034468189  1.0000
  H   H7        1.0  0.550445202280312  0.4221856528924189  0.40628869064287576  1.0000
  H   H8        1.0  0.5508031287311665  0.5751986840857521  0.2693667739361325  1.0000
  C   C14       1.0  0.9841320540778093  0.12858747955127736  0.39742182951194605  1.0000
  C   C15       1.0  0.9953075711919063  0.21081494071426232  0.26573897929317747  1.0000
  C   C16       1.0  0.013647578357657286  0.1442309993100775  0.1391134492204229  1.0000
  C   C17       1.0  0.02125316959502488  0.9942205881579038  0.141737592181995  1.0000
  C   C18       1.0  0.0090191090669196  0.910407467567507  0.2710738646471116  1.0000
  C   C19       1.0  0.9891170287609806  0.9754069899136976  0.39937434757876766  1.0000
  C   C20       1.0  0.04069481658009199  0.9258382904038478  0.011065384953516055  1.0000
  C   C21       1.0  0.05697303850201263  0.8685699430133692  0.9016647026070818  1.0000
  H   H9        1.0  0.9989371505423318  0.20775782057846548  0.7514381833180701  1.0000
  H   H10       1.0  0.022699364524655593  0.21004371535309746  0.039308441840816055  1.0000
  H   H11       1.0  0.013147956532932872  0.7937430643874349  0.27083246207459344  1.0000
  H   H12       1.0  0.9959417091137627  0.6787188422217231  0.6379445507349624  1.0000
  H   H13       1.0  0.07126182162872596  0.8182986672614946  0.8056338791527544  1.0000
  C   C22       1.0  0.9849436396381247  0.5486148889690058  0.9750530144608343  1.0000
  C   C23       1.0  0.040088463035281546  0.4586736423787883  0.054260004606507595  1.0000
  C   C24       1.0  0.09933610839694107  0.3803621237923985  0.9845648489885019  1.0000
  C   C25       1.0  0.10544283738794676  0.3894157032960339  0.8336308513588429  1.0000
  C   C26       1.0  0.04930321962977402  0.47741333855975926  0.753050149136711  1.0000
  C   C27       1.0  0.9883054517060056  0.5553796002366316  0.8217431779241342  1.0000
  C   C28       1.0  0.172274464907624  0.30164993486005565  0.7662497739768597  1.0000
  C   C29       1.0  0.15238041942600566  0.23592727700818994  0.6242968412284817  1.0000
  C   C30       1.0  0.2107584634428572  0.36425446094234015  0.6258925895389007  1.0000
  H   H14       1.0  0.862174939490666  0.6477672481673442  0.2501198937820417  1.0000
  H   H15       1.0  0.03874883092840342  0.4514180022757815  0.1713377210309237  1.0000
  H   H16       1.0  0.141351093335624  0.3131556882885419  0.04939338342447197  1.0000
  H   H17       1.0  0.05117231718980486  0.4836218120914616  0.6362575211452053  1.0000
  H   H18       1.0  0.8031271755071535  0.6935346952395508  0.7102047946603571  1.0000
  H   H19       1.0  0.21470672200259422  0.23620954953933557  0.8376300253441324  1.0000
  H   H20       1.0  0.09167811603189845  0.2613539179936215  0.5756049407329504  1.0000
  H   H21       1.0  0.18358759578861883  0.1316959987969737  0.6092756386437701  1.0000
  H   H22       1.0  0.18555661172094307  0.46756625895945786  0.5780525664479028  1.0000
  H   H23       1.0  0.27609456346373284  0.33501522498648484  0.6118000344167029  1.0000
  Zn  Zn1       1.0  0.8968625533989365  0.5532105509053726  0.39977648476398686  1.0000
  Zn  Zn2       1.0  0.07637869918093454  0.5507833237236694  0.39701911158724035  1.0000
  C   C31       1.0  0.9876343640249724  0.5483568491080941  0.6616873489209865  1.0000
  C   C32       1.0  0.9856088601370463  0.5556388194255586  0.13510836301076234  1.0000
  C   C33       1.0  0.9881477521705282  0.815294233624976  0.393260527621935  1.0000
  C   C34       1.0  0.9850954008426118  0.2886997040231809  0.4035352581160663  1.0000
  O   O1        1.0  0.05395751895151867  0.5570687041891027  0.18777797685383768  1.0000
  O   O2        1.0  0.05553429808720067  0.5450836640221414  0.6069245351359192  1.0000
  O   O3        1.0  0.05594795309577846  0.7606390022971157  0.39016799533566515  1.0000
  O   O4        1.0  0.053543802317773226  0.3415133761932454  0.4045344095263701  1.0000
  O   O5        1.0  0.9196973890020269  0.7624804992655999  0.3922611877582336  1.0000
  O   O6        1.0  0.9192837438822566  0.5469268927059245  0.6090176546856121  1.0000
  O   O7        1.0  0.9177069576232876  0.5589118687786625  0.1898693630274335  1.0000
  O   O8        1.0  0.9172932413546384  0.34335653133349114  0.40662590376106467  1.0000
