data_image0
_chemical_formula_structural       NC8NH4C7NH3C6BrH3Zn2C4O8
_chemical_formula_sum              "N3 C25 H10 Br1 Zn2 O8"
_cell_length_a       14.927258825633057
_cell_length_b       9.275154477615127
_cell_length_c       9.275428193871798
_cell_angle_alpha    86.39200360318996
_cell_angle_beta     89.94092440913882
_cell_angle_gamma    89.43370909507247

_space_group_name_H-M_alt    "P 1"
_space_group_IT_number       1

loop_
  _space_group_symop_operation_xyz
  'x, y, z'

loop_
  _atom_site_type_symbol
  _atom_site_label
  _atom_site_symmetry_multiplicity
  _atom_site_fract_x
  _atom_site_fract_y
  _atom_site_fract_z
  _atom_site_occupancy
  N   N1        1.0  0.8349959219753222  0.5611038722732287  0.41672576319278565  1.0000
  C   C1        1.0  0.7574694977834409  0.5611038459290612  0.41672577273752887  1.0000
  C   C2        1.0  0.6610368560005876  0.5611038462231197  0.41672582780301726  1.0000
  C   C3        1.0  0.6145903364582376  0.4718552996352665  0.32666123596252694  1.0000
  C   C4        1.0  0.5208790254741796  0.4718552095194748  0.32666120714975966  1.0000
  C   C5        1.0  0.4732208583279726  0.5611038983251901  0.41672574021898123  1.0000
  C   C6        1.0  0.5196673778869163  0.6503524540804408  0.5067902240597442  1.0000
  C   C7        1.0  0.6133787558625245  0.65035254419333  0.5067902528784223  1.0000
  C   C8        1.0  0.37678821722280753  0.5611038001420422  0.41672568490898704  1.0000
  N   N2        1.0  0.2992617923698318  0.5611038814424782  0.41672569682948546  1.0000
  H   H1        1.0  0.6507578117592504  0.4024146980019714  0.25658594683967917  1.0000
  H   H2        1.0  0.4856541559532287  0.40241467536292586  0.2565860439503831  1.0000
  H   H3        1.0  0.4834999025859034  0.719793055713736  0.5768655131825915  1.0000
  H   H4        1.0  0.6486035583753313  0.7197930691853842  0.5768655240716156  1.0000
  C   C9        1.0  0.06972667219655171  0.1376968810478516  0.41505821002905474  1.0000
  C   C10       1.0  0.04522652152121176  0.2195290802665677  0.28800278505867194  1.0000
  C   C11       1.0  0.01343495830782082  0.152215116931675  0.16767767592560467  1.0000
  C   C12       1.0  0.00561968590193884  0.002150917048792332  0.1729909027052714  1.0000
  C   C13       1.0  0.030952164745217337  0.9190803415159301  0.2971502003556501  1.0000
  C   C14       1.0  0.06453969693248762  0.9844998859967626  0.41840574546221854  1.0000
  C   C15       1.0  0.9877440542815731  0.23761289504448  0.03909090182215324  1.0000
  N   N3        1.0  0.9670956955781089  0.30625715176666096  0.9357400726489304  1.0000
  H   H5        1.0  0.08684750610697356  0.21811765105665357  0.7687785660037663  1.0000
  H   H6        1.0  0.9807085335085354  0.9490440100007892  0.08051349935001584  1.0000
  H   H7        1.0  0.07986999374236659  0.6882420543613196  0.6554084451766262  1.0000
  C   C16       1.0  0.06743124849793514  0.5566124307416649  0.993560530910604  1.0000
  C   C17       1.0  0.14993741071245514  0.559296700565002  0.06661645808130978  1.0000
  C   C18       1.0  0.23022242875583543  0.5751388287268363  0.990142339092206  1.0000
  C   C19       1.0  0.22926543940397148  0.5887168364550506  0.8396387712323188  1.0000
  C   C20       1.0  0.14833756243991214  0.5839524489488799  0.7650674743472696  1.0000
  C   C21       1.0  0.06683513967408228  0.5655843248251045  0.8399033867805241  1.0000
  Br  Br1       1.0  0.3412620599323204  0.58065096943681  0.09172804956425273  1.0000
  H   H8        1.0  0.8514786773313987  0.62805740873211  0.09240833345643584  1.0000
  H   H9        1.0  0.2913851024012501  0.6016016954769524  0.7801098316112798  1.0000
  H   H10       1.0  0.9211784149560137  0.6075874677765509  0.5563333386687321  1.0000
  Zn  Zn1       1.0  0.9689730499393597  0.5611000920400815  0.41673405889873893  1.0000
  Zn  Zn2       1.0  0.16528474166922225  0.561095950395907  0.4167291874711567  1.0000
  C   C22       1.0  0.06698098178259565  0.5581444636318833  0.6799037529629233  1.0000
  C   C23       1.0  0.06727894230039344  0.5640533995020861  0.15355964198368843  1.0000
  C   C24       1.0  0.06551957546684362  0.8243751988913668  0.4120305231682815  1.0000
  C   C25       1.0  0.06874029218551025  0.2978209327644481  0.4214329417600684  1.0000
  O   O1        1.0  0.14172712940390753  0.5665427945863477  0.20725493172232468  1.0000
  O   O2        1.0  0.14152883331355515  0.555650833021218  0.6262043467996734  1.0000
  O   O3        1.0  0.14034772389045136  0.7706355345957905  0.4098948244443761  1.0000
  O   O4        1.0  0.1429081718520555  0.35155810218207506  0.42356434607198357  1.0000
  O   O5        1.0  0.9913495527649763  0.770637940256816  0.4098989002920008  1.0000
  O   O6        1.0  0.9925306516271656  0.5556549701633007  0.6262083526596494  1.0000
  O   O7        1.0  0.9927289493052085  0.5665468631175806  0.2072572048351462  1.0000
  O   O8        1.0  0.9939099917367622  0.3515621615459105  0.42356672718453336  1.0000
