data_image0
_chemical_formula_structural       NC10NC3NCH9C13OH12C12BrH9Zn2C4O8
_chemical_formula_sum              "N3 C43 H30 O9 Br1 Zn2"
_cell_length_a       19.437513618241372
_cell_length_b       10.29915010939255
_cell_length_c       10.299148005577397
_cell_angle_alpha    85.53215182685325
_cell_angle_beta     90.32056870964719
_cell_angle_gamma    89.50394211810362

_space_group_name_H-M_alt    "P 1"
_space_group_IT_number       1

loop_
  _space_group_symop_operation_xyz
  'x, y, z'

loop_
  _atom_site_type_symbol
  _atom_site_label
  _atom_site_symmetry_multiplicity
  _atom_site_fract_x
  _atom_site_fract_y
  _atom_site_fract_z
  _atom_site_occupancy
  N   N1        1.0  0.6479552032456889  0.4107943557239776  0.5751710272075353  1.0000
  C   C1        1.0  0.5890196053519617  0.42780626637481123  0.5721901809542456  1.0000
  C   C2        1.0  0.5155763019661866  0.44906108630057595  0.5684901310370254  1.0000
  C   C3        1.0  0.47383337562520833  0.3478658478034564  0.55685818974397  1.0000
  C   C4        1.0  0.3979431950887464  0.35793281846096464  0.5496337192432459  1.0000
  C   C5        1.0  0.35834182391592284  0.4387741781133345  0.6153570938513944  1.0000
  C   C6        1.0  0.2821627741702756  0.4301669777999344  0.6069149594155017  1.0000
  C   C7        1.0  0.2490464858536628  0.30881226402189266  0.6115920243438789  1.0000
  C   C8        1.0  0.1773143337707657  0.3024414830681672  0.6044253787417617  1.0000
  C   C9        1.0  0.1377278503119621  0.4169526214068209  0.5929440477021912  1.0000
  C   C10       1.0  0.0638813159581905  0.41024366947721685  0.5856093959017677  1.0000
  N   N2        1.0  0.004513800174980002  0.40485026214163944  0.5797127941191498  1.0000
  C   C11       1.0  0.1701274449819216  0.5379965868775183  0.589012380345135  1.0000
  C   C12       1.0  0.24184394668123793  0.5446213652330865  0.5962409803134934  1.0000
  C   C13       1.0  0.38699222670317746  0.5310471883563304  0.7052559080714937  1.0000
  N   N3        1.0  0.44397091936992794  0.5942687275044982  0.684833301823707  1.0000
  C   C14       1.0  0.4878354343420548  0.585030890023728  0.5717228735622224  1.0000
  H   H1        1.0  0.4962354212269487  0.25280513724383336  0.5447626148783591  1.0000
  H   H2        1.0  0.3732519299062964  0.2884278499360517  0.4913319571258969  1.0000
  H   H3        1.0  0.2785094587094769  0.21889142033198805  0.6226381910911974  1.0000
  H   H4        1.0  0.152735520603408  0.20820742682816107  0.6083387176014785  1.0000
  H   H5        1.0  0.1399788430233301  0.6272619808034516  0.5802786527525539  1.0000
  H   H6        1.0  0.2659411731608716  0.6392682549055864  0.5923120671015587  1.0000
  H   H7        1.0  0.3569690767278456  0.5514162648771153  0.7896209813186678  1.0000
  H   H8        1.0  0.5305753313462555  0.6553472978962418  0.5774671626353056  1.0000
  H   H9        1.0  0.45818152291761866  0.6131610872847403  0.4810652070650888  1.0000
  C   C15       1.0  0.8263026083080272  0.02642148085529427  0.5775869295288216  1.0000
  C   C16       1.0  0.8250016630402707  0.01461869184116926  0.7143875006739664  1.0000
  C   C17       1.0  0.8242822571681132  0.8915008633277798  0.7834838254696338  1.0000
  C   C18       1.0  0.8248691040629981  0.7793656108750616  0.7140224001318018  1.0000
  C   C19       1.0  0.8261729884509135  0.7892129318868459  0.577308269446138  1.0000
  C   C20       1.0  0.8268840130171998  0.9132012589083095  0.509889505040642  1.0000
  C   C21       1.0  0.8229000280492458  0.8799967142043776  0.9281131159595108  1.0000
  C   C22       1.0  0.7805778078529693  0.7878119307833267  0.995598620026544  1.0000
  C   C23       1.0  0.7792543378393741  0.7770683272497716  0.13169434748928455  1.0000
  C   C24       1.0  0.820680417501127  0.8573433800681752  0.20277062727209066  1.0000
  C   C25       1.0  0.8623442520973195  0.9504926786189672  0.13591933849115845  1.0000
  C   C26       1.0  0.8636836926205511  0.9614118129844239  0.9998235257320497  1.0000
  C   C27       1.0  0.817811672369338  0.8481770780063602  0.3488272047468882  1.0000
  O   O1        1.0  0.7663792993509216  0.9322039401688433  0.3884146083623433  1.0000
  H   H10       1.0  0.8283112222360478  0.2560000857459568  0.31936374725809324  1.0000
  H   H11       1.0  0.8235911267526306  0.10140639182987354  0.7673805957912202  1.0000
  H   H12       1.0  0.8252486495797718  0.6842275201010078  0.7668632262351952  1.0000
  H   H13       1.0  0.827887791256325  0.9215130332827411  0.4044377804337268  1.0000
  H   H14       1.0  0.826628200693677  0.4655258609001496  0.5247226300970391  1.0000
  H   H15       1.0  0.7476879723888018  0.7253608028596751  0.9430685367768085  1.0000
  H   H16       1.0  0.7457740179171332  0.7062879501400637  0.18164580224469512  1.0000
  H   H17       1.0  0.8939666091827658  0.014517774847736751  0.18917951748515377  1.0000
  H   H18       1.0  0.897186865876668  0.03263709957942407  0.95067904315644  1.0000
  H   H19       1.0  0.8684092254951105  0.8751556558990425  0.3896435993684274  1.0000
  H   H20       1.0  0.8066216162957008  0.7463356452732792  0.3864990216931323  1.0000
  H   H21       1.0  0.7666103602146724  0.9225057647359299  0.4850487620076335  1.0000
  C   C28       1.0  0.826331566147361  0.40786771167641794  0.19606056930332905  1.0000
  C   C29       1.0  0.7616066504641028  0.46973150028422794  0.1897769988534825  1.0000
  C   C30       1.0  0.7286928695487135  0.5010461087052729  0.06945161393675779  1.0000
  C   C31       1.0  0.7613770414263549  0.46966251713465335  0.954497065649285  1.0000
  C   C32       1.0  0.8261440180511154  0.40776675797853135  0.9588345715572464  1.0000
  C   C33       1.0  0.8582223372704043  0.3772485153089977  0.08003485700782198  1.0000
  C   C34       1.0  0.6602222117177797  0.566492454849512  0.06384927653861894  1.0000
  C   C35       1.0  0.6457532626224712  0.6680596791630071  0.1437061827295687  1.0000
  C   C36       1.0  0.5812776166287829  0.7295484249221397  0.13823808399433157  1.0000
  C   C37       1.0  0.5305380136606541  0.6904473380942716  0.05324162951136535  1.0000
  C   C38       1.0  0.5443158144013359  0.589678565469232  0.9735231683851062  1.0000
  C   C39       1.0  0.6087330054595989  0.5279688106958662  0.9785980646895948  1.0000
  Br  Br1       1.0  0.44250475140989  0.7745923212990085  0.04604000392207541  1.0000
  H   H22       1.0  0.8512415980135457  0.3841246880304446  0.525949149224604  1.0000
  H   H23       1.0  0.7362152978673105  0.4921028219827503  0.2787851056868018  1.0000
  H   H24       1.0  0.736664381762954  0.4951715017344802  0.8613566882079464  1.0000
  H   H25       1.0  0.908147275428583  0.329535353307026  0.08416550113994714  1.0000
  H   H26       1.0  0.9485802710289278  0.29167385626154063  0.759674667933008  1.0000
  H   H27       1.0  0.6845679403353622  0.7010324513358932  0.20909596920490967  1.0000
  H   H28       1.0  0.5708747490036178  0.8077945396592416  0.19988172042749652  1.0000
  H   H29       1.0  0.5050937771191419  0.5588647457769698  0.9078204103188046  1.0000
  H   H30       1.0  0.617984746862291  0.4490525388705774  0.9171411097368191  1.0000
  Zn  Zn1       1.0  0.7508503164852358  0.4090755282145632  0.5764891936163412  1.0000
  Zn  Zn2       1.0  0.9016186923349918  0.4065584177993748  0.5784053019877479  1.0000
  C   C40       1.0  0.8261788216514729  0.40261174837307945  0.8146558514863419  1.0000
  C   C41       1.0  0.8262918332449181  0.4130238088935499  0.3402387919153804  1.0000
  C   C42       1.0  0.8261952199226467  0.6450298935317098  0.5721854613368387  1.0000
  C   C43       1.0  0.8262753837751746  0.17060410415187666  0.5827092512230643  1.0000
  O   O2        1.0  0.8834943123817365  0.41379334572237414  0.3893534757195074  1.0000
  O   O3        1.0  0.8834060515002864  0.39993080322631974  0.766995076094569  1.0000
  O   O4        1.0  0.8834185216830972  0.5956865339360065  0.5711985102347046  1.0000
  O   O5        1.0  0.8834817907742551  0.2180376251754936  0.5851499435428487  1.0000
  O   O6        1.0  0.7689871665961266  0.5975963216988257  0.5697445514005353  1.0000
  O   O7        1.0  0.76897469616204  0.40184215143256335  0.7655410474415134  1.0000
  O   O8        1.0  0.769062957480845  0.4157046488747917  0.3878978856087604  1.0000
  O   O9        1.0  0.7690504358481886  0.21994891902548644  0.583694450807919  1.0000
