data_image0
_chemical_formula_structural       NC5NC4H6C7NH5C6SCH7Zn2C4O8
_chemical_formula_sum              "N3 C27 H18 S1 Zn2 O8"
_cell_length_a       13.854160002989762
_cell_length_b       9.275154477615127
_cell_length_c       9.275274088470228
_cell_angle_alpha    86.32665131531041
_cell_angle_beta     89.72578587479208
_cell_angle_gamma    89.43370676253429

_space_group_name_H-M_alt    "P 1"
_space_group_IT_number       1

loop_
  _space_group_symop_operation_xyz
  'x, y, z'

loop_
  _atom_site_type_symbol
  _atom_site_label
  _atom_site_symmetry_multiplicity
  _atom_site_fract_x
  _atom_site_fract_y
  _atom_site_fract_z
  _atom_site_occupancy
  N   N1        1.0  0.903641128192951  0.5628557577420548  0.4165710910823588  1.0000
  C   C1        1.0  0.8313341952153436  0.5875008451393471  0.35764035323493704  1.0000
  C   C2        1.0  0.7413833552115969  0.6181599960566748  0.2843282577970079  1.0000
  C   C3        1.0  0.653773298965774  0.5893649671903014  0.3559155280008317  1.0000
  C   C4        1.0  0.5662409428210567  0.6181600101625091  0.28432823468740565  1.0000
  C   C5        1.0  0.47622605452812855  0.5875006987276497  0.3576404442480461  1.0000
  N   N2        1.0  0.4038675580162574  0.5628556942608121  0.4165710907437552  1.0000
  C   C6        1.0  0.5663471961782336  0.6763564941917128  0.1411750671749128  1.0000
  C   C7        1.0  0.6539106067897908  0.7073001069349376  0.06949291697093929  1.0000
  C   C8        1.0  0.6540201383242565  0.7656286551805311  0.9148547444006879  1.0000
  C   C9        1.0  0.7414242855175427  0.6763564920101521  0.1411749769152879  1.0000
  H   H1        1.0  0.6537171027273542  0.5442107554837716  0.4667130097137693  1.0000
  H   H2        1.0  0.4985115861973613  0.697609280428835  0.08562664954264188  1.0000
  H   H3        1.0  0.7185003363926868  0.8335458633523307  0.8913448685206302  1.0000
  H   H4        1.0  0.5887918585090008  0.833545865846238  0.8913449335957114  1.0000
  H   H5        1.0  0.6548538654700691  0.6744489160876754  0.8429602742713023  1.0000
  H   H6        1.0  0.8093345448128428  0.6976093920726123  0.08562656458522855  1.0000
  C   C10       1.0  0.15655755025176155  0.13945059414407557  0.41490340921598445  1.0000
  C   C11       1.0  0.130478210770697  0.2214233864433921  0.2878355586528647  1.0000
  C   C12       1.0  0.096525817129486  0.15424256940661918  0.1674986808730381  1.0000
  C   C13       1.0  0.08809187908576255  0.004172490838805  0.17281242597549173  1.0000
  C   C14       1.0  0.11507527648722912  0.9209645268285992  0.29698386619052264  1.0000
  C   C15       1.0  0.1509604165986593  0.9862498953170591  0.4182512711737907  1.0000
  C   C16       1.0  0.06916733128811581  0.23978263518026255  0.038899331285091154  1.0000
  N   N3        1.0  0.047178706357630995  0.30854125473505967  0.9355383946435953  1.0000
  H   H7        1.0  0.17411777006644158  0.21947995899683637  0.7686583503785046  1.0000
  H   H8        1.0  0.13443408696805248  0.33834219152702283  0.28355942713321314  1.0000
  H   H9        1.0  0.06148301961818082  0.9511679151188709  0.0803259776062597  1.0000
  H   H10       1.0  0.11000720500423888  0.8044957274144154  0.2968570349743731  1.0000
  H   H11       1.0  0.16688400869898445  0.6897298108049761  0.6552771445121606  1.0000
  C   C17       1.0  0.15514097988196118  0.5588325458486085  0.9933645205956202  1.0000
  C   C18       1.0  0.23700346657551402  0.6095839002540859  0.0629135156258791  1.0000
  C   C19       1.0  0.3134290068734529  0.6718223192042301  0.9830955153043539  1.0000
  C   C20       1.0  0.30927303626762825  0.6834476641673362  0.8325813498256998  1.0000
  C   C21       1.0  0.22948035840351474  0.6316049074615333  0.7615251280555979  1.0000
  C   C22       1.0  0.15237698596936178  0.566867946728504  0.839790112285324  1.0000
  S   S1        1.0  0.41666315824074096  0.7371944671654698  0.07404232392923715  1.0000
  C   C23       1.0  0.365857607522019  0.9176652588725901  0.08648797646833661  1.0000
  H   H12       1.0  0.9217972007273925  0.49950664454018745  0.10183467025158711  1.0000
  H   H13       1.0  0.36826416508744064  0.7317571400679115  0.770274472568977  1.0000
  H   H14       1.0  0.22914736198936445  0.6390750554861735  0.6444951977992108  1.0000
  H   H15       1.0  0.9964656228864314  0.5210430366623611  0.5626941315288994  1.0000
  H   H16       1.0  0.35172680151600005  0.9680523363427047  0.9767250894346963  1.0000
  H   H17       1.0  0.2976544234472889  0.912249131228039  0.14983212618966357  1.0000
  H   H18       1.0  0.41814342187173836  0.9849394120516894  0.14175326877597194  1.0000
  Zn  Zn1       1.0  0.047995674216323676  0.5628519582963423  0.4165794071946889  1.0000
  Zn  Zn2       1.0  0.2595130525040932  0.5628478073414755  0.41657456400312487  1.0000
  C   C24       1.0  0.15293524807941808  0.5596051161309035  0.6797748452811041  1.0000
  C   C25       1.0  0.1545757759175721  0.5660964700403306  0.15337927450826383  1.0000
  C   C26       1.0  0.1520321753819598  0.8261322625434393  0.4118754257276973  1.0000
  C   C27       1.0  0.15547878763802214  0.2995675920722074  0.42127876405024245  1.0000
  O   O1        1.0  0.23465587260905418  0.5685264438441677  0.20707982483975118  1.0000
  O   O2        1.0  0.23339195587362305  0.5571709001978375  0.6260701999145113  1.0000
  O   O3        1.0  0.23266162628149623  0.7723949558691481  0.40973952914414724  1.0000
  O   O4        1.0  0.2353861303093181  0.3533023974626739  0.4234103875939066  1.0000
  O   O5        1.0  0.07212252423061292  0.7723973681780585  0.409743583597985  1.0000
  O   O6        1.0  0.07285284261926206  0.5571750440652492  0.6260741843738555  1.0000
  O   O7        1.0  0.07411676540917256  0.5685305210180749  0.2070820763825334  1.0000
  O   O8        1.0  0.0748470228208131  0.35330646534967824  0.42341274714697574  1.0000
