data_image0
_chemical_formula_structural       NC12NC2H8C6NCOC6H11C6SCOC6H10Zn2C4O8
_chemical_formula_sum              "N3 C44 H29 O10 S1 Zn2"
_cell_length_a       17.80743265337812
_cell_length_b       10.29965916528486
_cell_length_c       10.302041481415108
_cell_angle_alpha    85.55947833871805
_cell_angle_beta     91.53022125456708
_cell_angle_gamma    89.45195528988226

_space_group_name_H-M_alt    "P 1"
_space_group_IT_number       1

loop_
  _space_group_symop_operation_xyz
  'x, y, z'

loop_
  _atom_site_type_symbol
  _atom_site_label
  _atom_site_symmetry_multiplicity
  _atom_site_fract_x
  _atom_site_fract_y
  _atom_site_fract_z
  _atom_site_occupancy
  N   N1        1.0  0.7077070917933241  0.40708322325633284  0.6021476378523449  1.0000
  C   C1        1.0  0.6568944365808754  0.4366626209692964  0.5334751752440012  1.0000
  C   C2        1.0  0.5936784780841746  0.4734572434881379  0.44805527700292536  1.0000
  C   C3        1.0  0.605418271292006  0.5275159029953835  0.3214837926232834  1.0000
  C   C4        1.0  0.5441093352971159  0.5628062287540914  0.23845879511189683  1.0000
  C   C5        1.0  0.4709063682276984  0.5443015578518713  0.2813456250792019  1.0000
  C   C6        1.0  0.45818976727409666  0.490123953026093  0.4083851018397582  1.0000
  C   C7        1.0  0.5203560204163891  0.4548368862118684  0.4913935926308836  1.0000
  C   C8        1.0  0.3804183160582691  0.47050429492511286  0.4541311719775983  1.0000
  C   C9        1.0  0.36163357511500793  0.49765067080328557  0.5811556208427722  1.0000
  C   C10       1.0  0.2884006680618814  0.47918755963981347  0.6240830189058013  1.0000
  C   C11       1.0  0.23300946645145396  0.4333235479983547  0.5408236531558219  1.0000
  C   C12       1.0  0.157639822136697  0.41430719175174313  0.5851514599967094  1.0000
  N   N2        1.0  0.097047965463762  0.39901932029087805  0.6207879672295291  1.0000
  C   C13       1.0  0.2511026709149348  0.40600809598220877  0.4143419887300348  1.0000
  C   C14       1.0  0.32428273218864123  0.42448607130229954  0.3711587681348434  1.0000
  H   H1        1.0  0.6618873812573884  0.5423499399309581  0.28705997761718716  1.0000
  H   H2        1.0  0.5533171620541365  0.6049324516355896  0.14071715097621706  1.0000
  H   H3        1.0  0.42427379558494593  0.5739566025894565  0.21578041501821987  1.0000
  H   H4        1.0  0.5118463478512015  0.41132542723528737  0.5890103348599163  1.0000
  H   H5        1.0  0.4033144925735791  0.5348087829429635  0.6467265568123088  1.0000
  H   H6        1.0  0.27495838856459975  0.5010023190175105  0.7220768455060931  1.0000
  H   H7        1.0  0.20870507596180332  0.3701171072442451  0.34918435538871706  1.0000
  H   H8        1.0  0.3371963520545549  0.40113570877071303  0.2734676689773854  1.0000
  C   C15       1.0  0.9023150476228623  0.02169192962358601  0.611349339389468  1.0000
  C   C16       1.0  0.9028308263681025  0.03100947420386447  0.47458943265861525  1.0000
  C   C17       1.0  0.9041984578062345  0.9188443760849466  0.4058351091858685  1.0000
  C   C18       1.0  0.9029723622752273  0.7958161475347705  0.47489252520254976  1.0000
  C   C19       1.0  0.9024471862188118  0.7844004579305244  0.6115977708610836  1.0000
  C   C20       1.0  0.9023858500770263  0.8979409395318632  0.6790672152634256  1.0000
  N   N3        1.0  0.9035716685267543  0.9319785596777476  0.26577110779682034  1.0000
  C   C21       1.0  0.9387898766583505  0.8401478246490937  0.18774941637744225  1.0000
  O   O1        1.0  0.9906136515835957  0.7662395775252712  0.23719781985240584  1.0000
  C   C22       1.0  0.9169586473594857  0.8344512247741883  0.048369739802003105  1.0000
  C   C23       1.0  0.8474928830286772  0.8857633019960055  0.9987088310010596  1.0000
  C   C24       1.0  0.8273668299453696  0.879211931668459  0.8672526003587091  1.0000
  C   C25       1.0  0.876006812269157  0.8211471061118241  0.7841443182739466  1.0000
  C   C26       1.0  0.9448112970092717  0.7690616800636483  0.8323976641369798  1.0000
  C   C27       1.0  0.9652241528527087  0.7752508138672488  0.9637631753157362  1.0000
  H   H9        1.0  0.9006250713383502  0.21139475523730766  0.8692880327017404  1.0000
  H   H10       1.0  0.9027464288303517  0.1256391483890673  0.4207747723361009  1.0000
  H   H11       1.0  0.9011086760794941  0.7090824192447449  0.4220101054171137  1.0000
  H   H12       1.0  0.9019982883039184  0.8898925680654748  0.7844941514212509  1.0000
  H   H13       1.0  0.9012462524426331  0.45259301868311236  0.663989697103267  1.0000
  H   H14       1.0  0.8821379431474365  0.018571326434755123  0.2188150776738869  1.0000
  H   H15       1.0  0.8081228704053433  0.9292532137320062  0.0612914473226136  1.0000
  H   H16       1.0  0.7738281099375962  0.9187661664106289  0.8299116151431246  1.0000
  H   H17       1.0  0.8602779681253  0.8161505299044955  0.6824570157979801  1.0000
  H   H18       1.0  0.9824038662917168  0.7238134186421223  0.7679666366919271  1.0000
  H   H19       1.0  0.018951084249604122  0.7345073294539607  0.9988949739553133  1.0000
  C   C28       1.0  0.9023952307144416  0.4031751854114203  0.2301872533523015  1.0000
  C   C29       1.0  0.9368576220925867  0.5255569691824008  0.22096329749482813  1.0000
  C   C30       1.0  0.954339117594662  0.5859195944862321  0.09943421711334087  1.0000
  C   C31       1.0  0.9369288523294366  0.5251516407275476  0.9858611676137353  1.0000
  C   C32       1.0  0.902367037890409  0.40291721649775114  0.9927599124068798  1.0000
  C   C33       1.0  0.8853345580821872  0.3425067367989725  0.11550390439449676  1.0000
  S   S1        1.0  0.9990345574380189  0.7415231441743937  0.08910123777324919  1.0000
  C   C34       1.0  0.09156647200003577  0.6698075747534671  0.09607759837525354  1.0000
  O   O2        1.0  0.12096321554566143  0.6460265027462803  0.9904173906771452  1.0000
  C   C35       1.0  0.13296963791051297  0.6376080912373826  0.22157439711616858  1.0000
  C   C36       1.0  0.19960164833112115  0.5625063760000224  0.22493337553929216  1.0000
  C   C37       1.0  0.23875219255304933  0.5307994737229684  0.3427500337052658  1.0000
  C   C38       1.0  0.2120680978948426  0.5736986856022208  0.4584235068906224  1.0000
  C   C39       1.0  0.1462434994826045  0.6486248708966744  0.45648340093204864  1.0000
  C   C40       1.0  0.10686878300176207  0.6807105421313302  0.3389555349304352  1.0000
  H   H20       1.0  0.8373270856235592  0.1726223660703161  0.45487580687425844  1.0000
  H   H21       1.0  0.9503618202161748  0.5742039171136648  0.30793969782236497  1.0000
  H   H22       1.0  0.9507514195661311  0.5734604721276934  0.892567004958015  1.0000
  H   H23       1.0  0.8587682546902526  0.2481588489292579  0.1216944456012108  1.0000
  H   H24       1.0  0.8894317436988509  0.3562695799730616  0.6680664566459433  1.0000
  H   H25       1.0  0.22129643577989053  0.527599939980552  0.1366424557371324  1.0000
  H   H26       1.0  0.2898095849768889  0.47275883619579817  0.34432937806101993  1.0000
  H   H27       1.0  0.24244295391837056  0.549018955039128  0.5495321834380271  1.0000
  H   H28       1.0  0.12571502122243072  0.6821201450671057  0.5461837573092199  1.0000
  H   H29       1.0  0.056381669449061755  0.7396814033082032  0.3406310511179089  1.0000
  Zn  Zn1       1.0  0.8200624601698205  0.40475268532597575  0.6075343184386517  1.0000
  Zn  Zn2       1.0  0.9846925923660543  0.4013392614474503  0.6154118739491299  1.0000
  C   C41       1.0  0.902369774963099  0.39779248146866814  0.8486155595072067  1.0000
  C   C42       1.0  0.9023870756078928  0.408301066565322  0.3743308468758513  1.0000
  C   C43       1.0  0.9024185434349936  0.6402341690661683  0.6063765952842408  1.0000
  C   C44       1.0  0.9023382506863411  0.1658578198460382  0.6165698771261305  1.0000
  O   O3        1.0  0.9648606148893142  0.4087203169352105  0.4256962430467546  1.0000
  O   O4        1.0  0.9648466965807446  0.39478154178492975  0.8032286716103268  1.0000
  O   O5        1.0  0.9648852354785067  0.5905562876191388  0.6076189542589372  1.0000
  O   O6        1.0  0.9648220198196515  0.21294558158868937  0.621305860359517  1.0000
  O   O7        1.0  0.8399329765360394  0.5931463663509867  0.6016403293332122  1.0000
  O   O8        1.0  0.8398944379077506  0.3973731808048105  0.7972499779622371  1.0000
  O   O9        1.0  0.8399083563162051  0.411311911227281  0.4197159883238133  1.0000
  O   O10       1.0  0.8398697612382594  0.21553716655932204  0.6153257029801511  1.0000
