data_image0
_chemical_formula_structural       NC5NC3H4C7NH5C10H3Zn2C4O8
_chemical_formula_sum              "N3 C29 H12 Zn2 O8"
_cell_length_a       13.859018345313864
_cell_length_b       9.275154477615127
_cell_length_c       9.275153671780862
_cell_angle_alpha    85.92749838792564
_cell_angle_beta     89.40940085297899
_cell_angle_gamma    89.43370600770291

_space_group_name_H-M_alt    "P 1"
_space_group_IT_number       1

loop_
  _space_group_symop_operation_xyz
  'x, y, z'

loop_
  _atom_site_type_symbol
  _atom_site_label
  _atom_site_symmetry_multiplicity
  _atom_site_fract_x
  _atom_site_fract_y
  _atom_site_fract_z
  _atom_site_occupancy
  N   N1        1.0  0.9091087893553871  0.5738335538748855  0.41574368788005456  1.0000
  C   C1        1.0  0.8366622866657225  0.5344316643054788  0.4668572881277424  1.0000
  C   C2        1.0  0.7465430978437644  0.4854209913661556  0.5304358080317428  1.0000
  C   C3        1.0  0.6590394670907069  0.5332006582260482  0.46845453829917116  1.0000
  C   C4        1.0  0.5713127961706406  0.48542070066501336  0.5304356812889572  1.0000
  C   C5        1.0  0.4814224084622028  0.5344315513946523  0.4668571903373679  1.0000
  N   N2        1.0  0.4091598875004832  0.5738335198073803  0.41574361869720167  1.0000
  C   C6        1.0  0.571272201116654  0.389846945618431  0.6544166391973857  1.0000
  C   C7        1.0  0.658593719417922  0.34225120452775326  0.7161593903602042  1.0000
  C   C8        1.0  0.7461375413009891  0.38984724123528913  0.6544168440900303  1.0000
  H   H1        1.0  0.6592120950698069  0.6071773514693504  0.37248994222307896  1.0000
  H   H2        1.0  0.5038889474047316  0.3522394595648272  0.7032017015586199  1.0000
  H   H3        1.0  0.6584213777929462  0.26842469784370404  0.8119293525749216  1.0000
  H   H4        1.0  0.8133452026103773  0.35223999049204346  0.7032021291017976  1.0000
  C   C9        1.0  0.16194264287957  0.1504399496640359  0.41407510032421113  1.0000
  C   C10       1.0  0.13633663810328023  0.23329369501237743  0.2869408652725247  1.0000
  C   C11       1.0  0.1028357501279511  0.16694716572598067  0.1665411207474734  1.0000
  C   C12       1.0  0.09438535695004413  0.016840247408508306  0.17185764322291597  1.0000
  C   C13       1.0  0.12090568362393905  0.9327714109566473  0.29609395454126197  1.0000
  C   C14       1.0  0.15633524122253806  0.9972160403933635  0.4174247121714041  1.0000
  C   C15       1.0  0.07595664213103115  0.2533788023403236  0.03787458669591602  1.0000
  N   N3        1.0  0.0543533139891712  0.3228540164772205  0.9344596509547429  1.0000
  H   H5        1.0  0.17820440211998267  0.22801675533323532  0.7680148623662713  1.0000
  H   H6        1.0  0.14030674872159254  0.35024214618603056  0.2826624991017308  1.0000
  H   H7        1.0  0.06812368823775516  0.9644768742276042  0.0793228778815471  1.0000
  H   H8        1.0  0.11583985209956535  0.8163034909055407  0.29596705774983967  1.0000
  H   H9        1.0  0.17138737029018114  0.6990526714221361  0.6545744201910524  1.0000
  C   C16       1.0  0.1620664959068603  0.5727444018991914  0.9923159741397094  1.0000
  C   C17       1.0  0.1865921875343554  0.700165035287803  0.056563711636723905  1.0000
  C   C18       1.0  0.20209367420190016  0.8289427680915578  0.9720807201203459  1.0000
  C   C19       1.0  0.19315926232514408  0.8319038253227539  0.8221519138900689  1.0000
  C   C20       1.0  0.1704874423091518  0.7060913469831788  0.7562921347719893  1.0000
  C   C21       1.0  0.15621141006728223  0.5749115429158079  0.8391838239294409  1.0000
  C   C22       1.0  0.22609333962685252  0.9587351749325811  0.03970320090754885  1.0000
  C   C23       1.0  0.24618821601016783  0.0673995208224092  0.09634472824733886  1.0000
  C   C24       1.0  0.2697183138096124  0.19464068407656931  0.16267751976028189  1.0000
  C   C25       1.0  0.2898093055523181  0.30328425390931324  0.21931631380820704  1.0000
  H   H10       1.0  0.19145883640760086  0.7002380327939275  0.17317939240403013  1.0000
  H   H11       1.0  0.2046657582383693  0.931307205190094  0.7558384466516505  1.0000
  H   H12       1.0  0.3074508377897147  0.3986822159484924  0.2690501279055524  1.0000
  Zn  Zn1       1.0  0.05341270099716855  0.5738296953254791  0.4157519887086685  1.0000
  Zn  Zn2       1.0  0.26485594880484964  0.5738255758254764  0.4157471142257161  1.0000
  C   C26       1.0  0.15735400672770106  0.5687581359906079  0.6790849219573234  1.0000
  C   C27       1.0  0.16091693900275073  0.5788989546635657  0.15241432964593632  1.0000
  C   C28       1.0  0.15742991594484268  0.8371426109129104  0.41104553544706346  1.0000
  C   C29       1.0  0.16084096857430064  0.31051274770044945  0.4204537861813429  1.0000
  O   O1        1.0  0.24077278945494585  0.5809566253915194  0.20614292554802313  1.0000
  O   O2        1.0  0.23797869897032764  0.5666962499129791  0.625352207051693  1.0000
  O   O3        1.0  0.2380389045617614  0.7834201114555814  0.4089085119766389  1.0000
  O   O4        1.0  0.2407125123914457  0.36423277388760344  0.42258651255044444  1.0000
  O   O5        1.0  0.07755606525541126  0.7834224972663077  0.40891259037802485  1.0000
  O   O6        1.0  0.0774958487201247  0.566700367767474  0.6253562154220178  1.0000
  O   O7        1.0  0.08028995158763008  0.5809606885667025  0.20614520009640325  1.0000
  O   O8        1.0  0.08022967384103485  0.3642368270270557  0.4225888951655432  1.0000
