data_image0
_chemical_formula_structural       NC9NC5H8C6NCH9C6FH3Zn2C4O8
_chemical_formula_sum              "N3 C31 H20 F1 Zn2 O8"
_cell_length_a       17.807436237873137
_cell_length_b       9.273386996610926
_cell_length_c       9.275646106892307
_cell_angle_alpha    84.85815515660879
_cell_angle_beta     89.39821068290671
_cell_angle_gamma    87.7895077601149

_space_group_name_H-M_alt    "P 1"
_space_group_IT_number       1

loop_
  _space_group_symop_operation_xyz
  'x, y, z'

loop_
  _atom_site_type_symbol
  _atom_site_label
  _atom_site_symmetry_multiplicity
  _atom_site_fract_x
  _atom_site_fract_y
  _atom_site_fract_z
  _atom_site_occupancy
  N   N1        1.0  0.6985780403116131  0.5592083144369633  0.3939981333750395  1.0000
  C   C1        1.0  0.6382005305104896  0.5202358139121046  0.3818077375343232  1.0000
  C   C2        1.0  0.563097544316895  0.4717583153377484  0.36664420863260294  1.0000
  C   C3        1.0  0.5454081122104378  0.39364662368102143  0.25007048650718655  1.0000
  C   C4        1.0  0.472487632637317  0.34645579442434515  0.235256039043946  1.0000
  C   C5        1.0  0.4162101450220793  0.3769575259889757  0.33697990615478823  1.0000
  C   C6        1.0  0.3387138005540791  0.32693255126041687  0.32132700064578734  1.0000
  C   C7        1.0  0.27604960514574073  0.4174733440186958  0.3500124191300067  1.0000
  C   C8        1.0  0.20298805515923846  0.3700567339266545  0.3352135308441855  1.0000
  C   C9        1.0  0.1392575668722819  0.463583874711821  0.3642986892633213  1.0000
  N   N2        1.0  0.0880312777750591  0.5387732123530073  0.38768235941961643  1.0000
  C   C10       1.0  0.1920087116803062  0.23181296115692773  0.29170150087879776  1.0000
  C   C11       1.0  0.253815618751962  0.14125687507463391  0.2630067823985851  1.0000
  C   C12       1.0  0.3267600682973822  0.18823746879123715  0.2775812613987092  1.0000
  C   C13       1.0  0.4345880500006479  0.4556159632176153  0.45379641377437907  1.0000
  C   C14       1.0  0.5075625090673727  0.5025970702517388  0.4684382058743762  1.0000
  H   H1        1.0  0.5879182607462448  0.3695114754097751  0.17040941577284174  1.0000
  H   H2        1.0  0.4598760786266193  0.28778704254277976  0.14319335419945878  1.0000
  H   H3        1.0  0.283964891584022  0.525434992952801  0.3819357992289918  1.0000
  H   H4        1.0  0.13574684170267504  0.19411735917180198  0.2799859191637471  1.0000
  H   H5        1.0  0.2451966656252432  0.03422077136015989  0.22974785538112855  1.0000
  H   H6        1.0  0.3737937374120084  0.1154067261738778  0.2565259138289535  1.0000
  H   H7        1.0  0.3927984282076528  0.47913675663209204  0.5348971078159902  1.0000
  H   H8        1.0  0.5206947101727789  0.5626345090112126  0.5593411153694459  1.0000
  C   C15       1.0  0.8956193188765814  0.1252077833709359  0.3915119927295273  1.0000
  C   C16       1.0  0.908779791574671  0.20938319392418278  0.260794736830019  1.0000
  C   C17       1.0  0.9148646347927051  0.1459514684109675  0.1301841585416914  1.0000
  C   C18       1.0  0.9078806918254552  0.9960528958545397  0.12695246315729025  1.0000
  C   C19       1.0  0.8960444095961527  0.9108499188794561  0.25719490370961573  1.0000
  C   C20       1.0  0.8909972244403116  0.9727621456460992  0.3901809590380186  1.0000
  N   N3        1.0  0.913329551848011  0.9276468235322902  0.9936576512565473  1.0000
  C   C21       1.0  0.9258110855133526  0.006388966897251656  0.8526066577220694  1.0000
  H   H9        1.0  0.9110349395520347  0.38401907258250767  0.6282257270003628  1.0000
  H   H10       1.0  0.9126122509207221  0.3258468590902943  0.2589618075477347  1.0000
  H   H11       1.0  0.9243156250722152  0.21510218718069485  0.03198994240275831  1.0000
  H   H12       1.0  0.8924967671302013  0.7946592563060031  0.25497548954595795  1.0000
  H   H13       1.0  0.9187592576426544  0.8361982144367309  0.7412755192064383  1.0000
  H   H14       1.0  0.9080174729445886  0.8155265452251957  0.9967367989131951  1.0000
  H   H15       1.0  0.8792180079861625  0.08767449422176242  0.8282845164329942  1.0000
  H   H16       1.0  0.9802034869306924  0.06108420081704181  0.8519574887841825  1.0000
  H   H17       1.0  0.9276828968077572  0.9297644931908037  0.767128877142174  1.0000
  C   C22       1.0  0.8931961876007188  0.553506413088735  0.9670003430019434  1.0000
  C   C23       1.0  0.9619213004438373  0.5649788447777708  0.03792166684278065  1.0000
  C   C24       1.0  0.02978883125625886  0.5629497586783265  0.961372706502754  1.0000
  C   C25       1.0  0.030123944829717246  0.5492677625703911  0.8130136919786068  1.0000
  C   C26       1.0  0.9625632916134728  0.5401397477986671  0.7401375335169016  1.0000
  C   C27       1.0  0.8934203421727741  0.5444635552233357  0.8146925769349056  1.0000
  F   F1        1.0  0.0955269063999824  0.5725256359326909  0.03172023907871658  1.0000
  H   H18       1.0  0.7195820284808898  0.4454063411935187  0.08316322830544332  1.0000
  H   H19       1.0  0.08281784847818387  0.5471064018812952  0.7538427966800194  1.0000
  H   H20       1.0  0.7758486342326848  0.47765468378238385  0.5418745693851084  1.0000
  Zn  Zn1       1.0  0.8109658540046292  0.5533072456746848  0.392183890838099  1.0000
  Zn  Zn2       1.0  0.9756435131744194  0.5446623910233459  0.38950848621319145  1.0000
  C   C28       1.0  0.8934076702879686  0.5404238513757655  0.6544696514737036  1.0000
  C   C29       1.0  0.893203485273539  0.5575475102676362  0.1272228351664162  1.0000
  C   C30       1.0  0.89186552213438  0.8126179024841542  0.3846810051637348  1.0000
  C   C31       1.0  0.894745586709831  0.28535172745712245  0.3970115620627404  1.0000
  O   O1        1.0  0.955700282203312  0.5556167662545799  0.17997967496266964  1.0000
  O   O2        1.0  0.9558974121135811  0.5357922664870007  0.5996818276962073  1.0000
  O   O3        1.0  0.9546512659200991  0.7555924333358628  0.38182559833187946  1.0000
  O   O4        1.0  0.9569463721185456  0.3358166138335088  0.3978357970033762  1.0000
  O   O5        1.0  0.8296629388640895  0.7621530258162387  0.3838565809533037  1.0000
  O   O6        1.0  0.8309090755784544  0.5423545936212193  0.6017127306366665  1.0000
  O   O7        1.0  0.8307119455334874  0.5621790616087619  0.18200884267043338  1.0000
  O   O8        1.0  0.8319580355305554  0.34237889771161667  0.39986507294015183  1.0000
