data_image0
_chemical_formula_structural       NC12NC2H8C12NCOCH13C12NH11Zn2C4O8
_chemical_formula_sum              "N4 C44 H32 O9 Zn2"
_cell_length_a       17.80743265337812
_cell_length_b       10.299155265289647
_cell_length_c       10.299774167527174
_cell_angle_alpha    85.56091470143106
_cell_angle_beta     91.52767882299842
_cell_angle_gamma    89.4139958816946

_space_group_name_H-M_alt    "P 1"
_space_group_IT_number       1

loop_
  _space_group_symop_operation_xyz
  'x, y, z'

loop_
  _atom_site_type_symbol
  _atom_site_label
  _atom_site_symmetry_multiplicity
  _atom_site_fract_x
  _atom_site_fract_y
  _atom_site_fract_z
  _atom_site_occupancy
  N   N1        1.0  0.7071960055678614  0.40633548178774276  0.6010208924559228  1.0000
  C   C1        1.0  0.6563737943289435  0.43587401450037194  0.5323181042462632  1.0000
  C   C2        1.0  0.5931459487187308  0.47261780626789723  0.446860483777743  1.0000
  C   C3        1.0  0.6048683098104443  0.5266010987253807  0.3202333966403802  1.0000
  C   C4        1.0  0.5435480058711258  0.5618419694919197  0.23717203366947498  1.0000
  C   C5        1.0  0.4703510192306543  0.5433628159662012  0.28007782258843106  1.0000
  C   C6        1.0  0.45765188301928555  0.4892608653099935  0.4071730564739367  1.0000
  C   C7        1.0  0.5198295033234973  0.45402324326302756  0.490217907872479  1.0000
  C   C8        1.0  0.37988676426055834  0.46966843821329607  0.45293927441772525  1.0000
  C   C9        1.0  0.3610875068559148  0.4968989528853235  0.579968009679719  1.0000
  C   C10       1.0  0.2878605626612047  0.4784613894052916  0.6229143472480259  1.0000
  C   C11       1.0  0.23248991513658754  0.4325392962378361  0.5396699372558803  1.0000
  C   C12       1.0  0.1571264089067996  0.41354932623529794  0.5840172704037767  1.0000
  N   N2        1.0  0.0965394868434186  0.39828266749641  0.6196694754626542  1.0000
  C   C13       1.0  0.2505976861406555  0.40514003518297353  0.41318418516684674  1.0000
  C   C14       1.0  0.3237717864456903  0.42359230063020187  0.3699819724259339  1.0000
  H   H1        1.0  0.6613326269743481  0.5414146517329808  0.2857943759716317  1.0000
  H   H2        1.0  0.5527422213673773  0.6039100318381481  0.13938721071368798  1.0000
  H   H3        1.0  0.42370876685889625  0.5729789924352948  0.21448276416713125  1.0000
  H   H4        1.0  0.5113339905568867  0.4105697201897879  0.5878786844995358  1.0000
  H   H5        1.0  0.402751828772713  0.5341029155542636  0.6455265103753249  1.0000
  H   H6        1.0  0.2744067412199312  0.5003411493292214  0.7209109284217905  1.0000
  H   H7        1.0  0.2082161759204435  0.3692035928048701  0.3480382550113692  1.0000
  H   H8        1.0  0.3366975429969548  0.40017697092348486  0.2722891417050559  1.0000
  C   C15       1.0  0.9019552430447807  0.02090982390430107  0.6104680548672634  1.0000
  C   C16       1.0  0.8891311347536215  0.030847340403965758  0.4749352659589965  1.0000
  C   C17       1.0  0.8825562901817929  0.9187496678601735  0.40609608416903403  1.0000
  C   C18       1.0  0.8889515250740979  0.7955912222469282  0.4746188934517526  1.0000
  C   C19       1.0  0.9017874671865275  0.783698243996347  0.6102338357204163  1.0000
  C   C20       1.0  0.9082136456335224  0.8968761761061391  0.6773236742726076  1.0000
  C   C21       1.0  0.8689908595026621  0.930236010516037  0.26271880342056636  1.0000
  C   C22       1.0  0.9070962133685894  0.023541998016259884  0.18313036037701183  1.0000
  C   C23       1.0  0.894336430969218  0.03422039806805088  0.04820308181794996  1.0000
  C   C24       1.0  0.8436833029281775  0.9509142363743687  0.990029110671527  1.0000
  C   C25       1.0  0.8046602896183215  0.8594435003402758  0.06950544411036887  1.0000
  C   C26       1.0  0.8174474367179368  0.84850850718475  0.20439669973911  1.0000
  N   N3        1.0  0.8285060993757172  0.9614407747868577  0.8517478751065101  1.0000
  C   C27       1.0  0.8833676525664758  0.9972223296823407  0.7561627061816534  1.0000
  O   O1        1.0  0.952285798393289  0.9983369551428701  0.7873207515646214  1.0000
  C   C28       1.0  0.8594101698858669  0.02413601142574096  0.6164821335238422  1.0000
  H   H9        1.0  0.9069112631420512  0.3445631333806416  0.6625951857543899  1.0000
  H   H10       1.0  0.8831907673068555  0.1260046110562203  0.4228436495825454  1.0000
  H   H11       1.0  0.8849137837959961  0.7088647933991332  0.42179963714203583  1.0000
  H   H12       1.0  0.9181076774561188  0.8884962444552111  0.7818626223720688  1.0000
  H   H13       1.0  0.9264644985084066  0.5539582210473012  0.8660906806514224  1.0000
  H   H14       1.0  0.9472097210866839  0.08776896833241035  0.22514203979098982  1.0000
  H   H15       1.0  0.9231612499926168  0.10906755478813415  0.9900062137522557  1.0000
  H   H16       1.0  0.7644747429629691  0.7959218913924923  0.026623320954792806  1.0000
  H   H17       1.0  0.7862085467331907  0.7773278007438875  0.2633108465060354  1.0000
  H   H18       1.0  0.7755943845396174  0.9336601578075068  0.818141627337186  1.0000
  H   H19       1.0  0.8051803723850147  0.07870239646805954  0.6094312463429487  1.0000
  H   H20       1.0  0.8524613803793756  0.9306607678070004  0.5709274617237474  1.0000
  H   H21       1.0  0.902181688769578  0.08333120827436159  0.5631382153959015  1.0000
  C   C29       1.0  0.9018969282693049  0.40218895848886027  0.22900012107885326  1.0000
  C   C30       1.0  0.8283307458900602  0.35440494158017494  0.22831187594188007  1.0000
  C   C31       1.0  0.791027849489463  0.3303087729398899  0.11081402193615998  1.0000
  C   C32       1.0  0.8282790825491559  0.3546373286215775  0.9930046217777242  1.0000
  C   C33       1.0  0.9018457432992343  0.4024191089710152  0.9917017461257883  1.0000
  C   C34       1.0  0.9382425920050217  0.4259278562237524  0.11019903579950574  1.0000
  C   C35       1.0  0.7131990920702688  0.279756619271552  0.11113924694390745  1.0000
  C   C36       1.0  0.6921071718303045  0.18173157513010543  0.20545693283614197  1.0000
  C   C37       1.0  0.6188512438392126  0.13420748877300515  0.20562914599754326  1.0000
  C   C38       1.0  0.5655284544858445  0.1838397007024644  0.11175613317283184  1.0000
  C   C39       1.0  0.5861247089358528  0.28148480660162867  0.017574186558492636  1.0000
  C   C40       1.0  0.6593580560391016  0.3291106294840087  0.017134581701881323  1.0000
  N   N4        1.0  0.4906046544754552  0.13517397077095405  0.11206900850526115  1.0000
  H   H22       1.0  0.9299418004097753  0.42034292201961165  0.5567206030889846  1.0000
  H   H23       1.0  0.7994917565947013  0.3374969580305106  0.31922143715280016  1.0000
  H   H24       1.0  0.8001482726992999  0.3345420519280984  0.9023329448050444  1.0000
  H   H25       1.0  0.9949956779639711  0.4627901350236864  0.10996200619872254  1.0000
  H   H26       1.0  0.9298666873211864  0.4206814509357282  0.6637471278724935  1.0000
  H   H27       1.0  0.7325280111855106  0.14062433121383222  0.27805474585100476  1.0000
  H   H28       1.0  0.6037130381020469  0.05846821413467464  0.27874496334292953  1.0000
  H   H29       1.0  0.545390612609531  0.3209330938226743  0.9446918100405348  1.0000
  H   H30       1.0  0.6736178206417898  0.40573463301442647  0.9443084502115329  1.0000
  H   H31       1.0  0.4504637346307653  0.1715633075678269  0.042471278626840414  1.0000
  H   H32       1.0  0.47472194363998554  0.06239558745560304  0.18190115769156123  1.0000
  Zn  Zn1       1.0  0.8195521275810816  0.40400814823712894  0.6064099583221465  1.0000
  Zn  Zn2       1.0  0.9841833639561723  0.40059940994293153  0.6142910053980299  1.0000
  C   C41       1.0  0.9018548900321434  0.39720152404280556  0.8475363463600385  1.0000
  C   C42       1.0  0.9018823989040416  0.4074076357020401  0.37316483037817605  1.0000
  C   C43       1.0  0.901815639855508  0.6395134868697674  0.6051030083780802  1.0000
  C   C44       1.0  0.9019215932421673  0.16509411363270649  0.6155982353853402  1.0000
  O   O2        1.0  0.9643542201842528  0.40785980683900813  0.42453864181252104  1.0000
  O   O3        1.0  0.9643343680937415  0.3941612195003221  0.8021436937738005  1.0000
  O   O4        1.0  0.9643018307733766  0.589831211781849  0.6063770173644203  1.0000
  O   O5        1.0  0.9643867013316179  0.21218982498223474  0.6203052181597302  1.0000
  O   O6        1.0  0.839348734025075  0.592417734362473  0.6003957428642005  1.0000
  O   O7        1.0  0.839381271003389  0.3967493024879638  0.7961623495521295  1.0000
  O   O8        1.0  0.8394011232585765  0.410447844094985  0.41855573628048814  1.0000
  O   O9        1.0  0.8394336043983808  0.2147778529781054  0.6143224099936231  1.0000
