data_image0
_chemical_formula_structural       NC9NC4H8C8NH7C7NC2NH8Zn2C4O8
_chemical_formula_sum              "N5 C34 H23 Zn2 O8"
_cell_length_a       16.32274767691083
_cell_length_b       9.274263428431858
_cell_length_c       9.27399911348925
_cell_angle_alpha    85.02669958396683
_cell_angle_beta     89.127461349941
_cell_angle_gamma    90.1410557844374

_space_group_name_H-M_alt    "P 1"
_space_group_IT_number       1

loop_
  _space_group_symop_operation_xyz
  'x, y, z'

loop_
  _atom_site_type_symbol
  _atom_site_label
  _atom_site_symmetry_multiplicity
  _atom_site_fract_x
  _atom_site_fract_y
  _atom_site_fract_z
  _atom_site_occupancy
  N   N1        1.0  0.7865226605477702  0.5820697352889563  0.3947634471662996  1.0000
  C   C1        1.0  0.7340778813614645  0.529905063053403  0.33446134293879526  1.0000
  C   C2        1.0  0.6688885764909216  0.46511613412337116  0.2595656472854393  1.0000
  C   C3        1.0  0.6802557752952194  0.3764964827815309  0.1571168929043909  1.0000
  C   C4        1.0  0.6007995973866558  0.3332495887142324  0.10712530916851738  1.0000
  C   C5        1.0  0.5419990879324094  0.3965403490936512  0.18029517068848255  1.0000
  C   C6        1.0  0.4520265656495995  0.37981313607632794  0.16096095563974777  1.0000
  C   C7        1.0  0.3965851301877326  0.45358267588681606  0.24623693726119392  1.0000
  C   C8        1.0  0.3118466724798811  0.4392867983423421  0.22971269164283958  1.0000
  C   C9        1.0  0.2559980636696282  0.5153241568598979  0.3176093606477237  1.0000
  N   N2        1.0  0.2111146988542886  0.5764456845331547  0.3882633952283434  1.0000
  C   C10       1.0  0.2814963597040457  0.35110206694297585  0.12777524405570273  1.0000
  C   C11       1.0  0.33561608012011374  0.2774302369965209  0.04261259602868983  1.0000
  C   C12       1.0  0.4201949358476184  0.291341051182745  0.058691580785062314  1.0000
  C   C13       1.0  0.5799463594066554  0.4888253223164283  0.286978281155625  1.0000
  H   H1        1.0  0.7390911713534921  0.34203650099912664  0.11727689391338325  1.0000
  H   H2        1.0  0.592352727553817  0.26082085989817916  0.023393864578370675  1.0000
  H   H3        1.0  0.41884165294015757  0.5224257241155592  0.32581641854405796  1.0000
  H   H4        1.0  0.21607995002182073  0.33932522323145276  0.11416294277075756  1.0000
  H   H5        1.0  0.3119648156326624  0.20921112448269777  0.9637546452171026  1.0000
  H   H6        1.0  0.45985285034985307  0.23240832567318656  0.9905673825726017  1.0000
  H   H7        1.0  0.562551864532913  0.4492621231073808  0.39982430485506737  1.0000
  H   H8        1.0  0.5639578044813816  0.6046125151535788  0.26225107040748014  1.0000
  C   C14       1.0  0.9962289714016275  0.1557058699501865  0.39185979872158533  1.0000
  C   C15       1.0  0.9860882646802199  0.2403499021688944  0.26010456005820637  1.0000
  C   C16       1.0  0.9839791712994551  0.17660608760390822  0.1294204486097621  1.0000
  C   C17       1.0  0.9926246043355202  0.02672751850377408  0.12724893736433773  1.0000
  C   C18       1.0  0.0005695838998667221  0.9406156810527919  0.25815301871793817  1.0000
  C   C19       1.0  0.0014161336045530623  0.0027982397370611665  0.3911794418444457  1.0000
  C   C20       1.0  0.9891280083996901  0.9580137432480291  0.9864742606220451  1.0000
  C   C21       1.0  0.9042318474812358  0.9204815804421258  0.9556952588742581  1.0000
  N   N3        1.0  0.8372250854784451  0.8908568158844132  0.9314115942975786  1.0000
  H   H9        1.0  0.06579858582092668  0.23015004860277477  0.7235632923619437  1.0000
  H   H10       1.0  0.981567306179926  0.35704929488926856  0.2578098007401768  1.0000
  H   H11       1.0  0.9763685383433559  0.24450680087555887  0.029510609489678655  1.0000
  H   H12       1.0  0.004113595369164001  0.8240957488116831  0.256197541310766  1.0000
  H   H13       1.0  0.04505992433747715  0.7027549740770268  0.6165102538624435  1.0000
  H   H14       1.0  0.026961036565303017  0.8583486339232959  0.9914807521926613  1.0000
  H   H15       1.0  0.013628589158069413  0.033285263376027864  0.8962768243733331  1.0000
  C   C22       1.0  0.0002601165412756678  0.5829246917805974  0.9676435962755972  1.0000
  C   C23       1.0  0.06414975087493535  0.5130080613130423  0.045199040597560414  1.0000
  C   C24       1.0  0.12255330219738758  0.43289496667766936  0.975709061963423  1.0000
  C   C25       1.0  0.1186332086322938  0.4199384315944495  0.8264819078357761  1.0000
  C   C26       1.0  0.055991519188141485  0.4922744731369397  0.7473469867937885  1.0000
  C   C27       1.0  0.9973849823508926  0.5755793778178079  0.8153955804199131  1.0000
  C   C28       1.0  0.1809803944769599  0.3328434623314698  0.7548930873183869  1.0000
  N   N4        1.0  0.2492788706459168  0.28153916964566483  0.821922083030143  1.0000
  C   C29       1.0  0.2884978080394236  0.2088454143561653  0.7220498851024337  1.0000
  C   C30       1.0  0.24378996268192551  0.2166263969146096  0.597187136498782  1.0000
  N   N5        1.0  0.17616880150877123  0.29454448185465765  0.6180007661959137  1.0000
  H   H16       1.0  0.9141643361772561  0.7661323819161416  0.23540965304848152  1.0000
  H   H17       1.0  0.06788729529176285  0.5172510456759973  0.16128992975252943  1.0000
  H   H18       1.0  0.17027389548234506  0.3791244342289044  0.039743933129860805  1.0000
  H   H19       1.0  0.05394103943781259  0.48839870197589647  0.6312761500142834  1.0000
  H   H20       1.0  0.8700544562228225  0.6586774884966955  0.5315249769872499  1.0000
  H   H21       1.0  0.34611769175109397  0.15318222282736002  0.7395751763524581  1.0000
  H   H22       1.0  0.2592208747437379  0.16825690416254374  0.49829239738510367  1.0000
  H   H23       1.0  0.129953594394433  0.3170204508152717  0.5429873579242832  1.0000
  Zn  Zn1       1.0  0.9090507053415198  0.5804428123871757  0.3928960116271767  1.0000
  Zn  Zn2       1.0  0.08858654765282667  0.5780606692506727  0.39014266528900843  1.0000
  C   C31       1.0  0.9978914306604814  0.571221886985493  0.6551569806716018  1.0000
  C   C32       1.0  0.9997477935231147  0.5872833872773713  0.12788180639019342  1.0000
  C   C33       1.0  0.00045093575588284456  0.8427296083526218  0.38555609903720023  1.0000
  C   C34       1.0  0.9971882162923846  0.31577393317040725  0.3974827673118764  1.0000
  O   O1        1.0  0.06770873120477328  0.5878359019748294  0.18061433796665072  1.0000
  O   O2        1.0  0.06619403786280875  0.5688602962781628  0.6003343082918775  1.0000
  O   O3        1.0  0.06825994704215343  0.788106214147964  0.3826297017822653  1.0000
  O   O4        1.0  0.06564276119224122  0.3685899961734336  0.3983188371795292  1.0000
  O   O5        1.0  0.9319944305353683  0.7899134862789592  0.38471984066864406  1.0000
  O   O6        1.0  0.9299285322246167  0.5706693019635378  0.6024243688229629  1.0000
  O   O7        1.0  0.9314432311989804  0.5896448724344054  0.18270266310401187  1.0000
  O   O8        1.0  0.9293772607528996  0.3703989553791487  0.4004072705456121  1.0000
