data_image0
_chemical_formula_structural       NC8NH4C7NH5C6NH7Zn2C4O8
_chemical_formula_sum              "N4 C25 H16 Zn2 O8"
_cell_length_a       14.927258825633057
_cell_length_b       9.275154477615127
_cell_length_c       9.274774538082514
_cell_angle_alpha    85.29330631285735
_cell_angle_beta     90.34966621466518
_cell_angle_gamma    89.43370909507247

_space_group_name_H-M_alt    "P 1"
_space_group_IT_number       1

loop_
  _space_group_symop_operation_xyz
  'x, y, z'

loop_
  _atom_site_type_symbol
  _atom_site_label
  _atom_site_symmetry_multiplicity
  _atom_site_fract_x
  _atom_site_fract_y
  _atom_site_fract_z
  _atom_site_occupancy
  N   N1        1.0  0.8277812681993579  0.5916841961134318  0.4143675659853683  1.0000
  C   C1        1.0  0.7502548440509699  0.5916841695849111  0.41436757554432796  1.0000
  C   C2        1.0  0.6538222025190386  0.5916841688154013  0.41436763069183336  1.0000
  C   C3        1.0  0.6069652772285897  0.5041751846615152  0.32416889274826866  1.0000
  C   C4        1.0  0.5132539661132378  0.5041750951022308  0.32416886389258637  1.0000
  C   C5        1.0  0.4660062044473212  0.5916842226091232  0.41436754297734596  1.0000
  C   C6        1.0  0.5128631292622315  0.6791932180163793  0.5045661727603232  1.0000
  C   C7        1.0  0.6065745073691606  0.6791933075726473  0.5045662016219257  1.0000
  C   C8        1.0  0.36957356309012007  0.5916841254942662  0.4143674875849708  1.0000
  N   N2        1.0  0.2920471382914636  0.5916842065644627  0.4143674995232238  1.0000
  H   H1        1.0  0.642813433906512  0.43608805988318017  0.25398923045539346  1.0000
  H   H2        1.0  0.4777097785430038  0.43608803536847934  0.25398932771073857  1.0000
  H   H3        1.0  0.47701497258430914  0.7472803427947146  0.5747458350531984  1.0000
  H   H4        1.0  0.6421186284233561  0.7472803560560455  0.5747458459584409  1.0000
  C   C9        1.0  0.06250441972514365  0.1683094130264695  0.41269752909574686  1.0000
  C   C10       1.0  0.03742530371315578  0.25259563818138964  0.28545286227364547  1.0000
  C   C11       1.0  0.0050854438226830565  0.18760570735953608  0.16494853571270407  1.0000
  C   C12       1.0  0.9972943826941384  0.037438884575464515  0.1702696762424103  1.0000
  C   C13       1.0  0.023192629819872586  0.9519702206750577  0.2946139021270686  1.0000
  C   C14       1.0  0.057332698488835154  0.015047761635226033  0.4160500504931399  1.0000
  C   C15       1.0  0.9788085964179873  0.2754870888192762  0.03617023889982396  1.0000
  N   N3        1.0  0.9576892893262975  0.3461275264631174  0.932665474526321  1.0000
  H   H5        1.0  0.08123708426006579  0.24189821243718262  0.7669447314854851  1.0000
  H   H6        1.0  0.04106736600478  0.36959229606031174  0.2811707798146901  1.0000
  H   H7        1.0  0.9719618298687707  0.9861181424739763  0.07765453303813041  1.0000
  H   H8        1.0  0.01848802164083807  0.8355037300225993  0.29448689510932025  1.0000
  H   H9        1.0  0.07374296766399224  0.7142123153706936  0.6534057522912193  1.0000
  C   C16       1.0  0.05828831813540925  0.5953660258574744  0.9905720530822779  1.0000
  C   C17       1.0  0.12124615850593368  0.680445504495131  0.057645409455924446  1.0000
  C   C18       1.0  0.18829554491359765  0.7536488192641573  0.9771703180977954  1.0000
  C   C19       1.0  0.19293172458771338  0.7421046588232905  0.8281471958859132  1.0000
  C   C20       1.0  0.13024189813555392  0.6602011766285647  0.7593838515864677  1.0000
  C   C21       1.0  0.061548787326582095  0.5879910870996047  0.8381754796926618  1.0000
  N   N4        1.0  0.25228304086778386  0.8385277211352415  0.047248125376953214  1.0000
  H   H10       1.0  0.9261035570400288  0.3135322739794323  0.11537652165399016  1.0000
  H   H11       1.0  0.11959183925024264  0.6872832573124503  0.17369261154942017  1.0000
  H   H12       1.0  0.2447038695461003  0.7978074988240138  0.76483696309033  1.0000
  H   H13       1.0  0.1342611172863499  0.6561908225013388  0.6431949235369667  1.0000
  H   H14       1.0  0.9697396037180782  0.4025552018487902  0.5713595147311143  1.0000
  H   H15       1.0  0.24962639743599999  0.8475687869727817  0.15865384463586873  1.0000
  H   H16       1.0  0.30276908827480464  0.8930968075688352  0.9882220885048558  1.0000
  Zn  Zn1       1.0  0.9617584339652143  0.5916802556519627  0.41437587404730536  1.0000
  Zn  Zn2       1.0  0.15807010349698736  0.59167620809751  0.41437099536400823  1.0000
  C   C22       1.0  0.06096557576390872  0.583641607333304  0.6779375444496318  1.0000
  C   C23       1.0  0.05886509484973357  0.5997166742444482  0.15080947375969367  1.0000
  C   C24       1.0  0.058283526451580185  0.855046209459819  0.40966533266705835  1.0000
  C   C25       1.0  0.0615470880503186  0.3283103392881086  0.41908175562824007  1.0000
  O   O1        1.0  0.1335579603013563  0.6011689657677926  0.2045847395879863  1.0000
  O   O2        1.0  0.13526873018906269  0.58218515979069  0.6241581560655451  1.0000
  O   O3        1.0  0.13310194293709143  0.8013477953514074  0.4075264529409928  1.0000
  O   O4        1.0  0.13572468008621197  0.3820063414634618  0.42121633454603136  1.0000
  O   O5        1.0  0.9841037903844128  0.8013501222890277  0.4075305348593619  1.0000
  O   O6        1.0  0.9862705667565498  0.5821892195611511  0.6241621678920222  1.0000
  O   O7        1.0  0.9845597905607627  0.6011729903947389  0.20458701608648022  1.0000
  O   O8        1.0  0.986726510821157  0.38201035483703816  0.42121871920511333  1.0000
