data_image0
_chemical_formula_structural       NC14NH8C12H10C12H10Zn2C4O8
_chemical_formula_sum              "N2 C42 H28 Zn2 O8"
_cell_length_a       17.45760127107867
_cell_length_b       14.38812564980172
_cell_length_c       14.389300134226545
_cell_angle_alpha    85.2703182299558
_cell_angle_beta     86.9942696228219
_cell_angle_gamma    91.08635631298789

_space_group_name_H-M_alt    "P 1"
_space_group_IT_number       1

loop_
  _space_group_symop_operation_xyz
  'x, y, z'

loop_
  _atom_site_type_symbol
  _atom_site_label
  _atom_site_symmetry_multiplicity
  _atom_site_fract_x
  _atom_site_fract_y
  _atom_site_fract_z
  _atom_site_occupancy
  N   N1        1.0  0.737517519743394  0.05972437943303065  0.9595256499762714  1.0000
  C   C1        1.0  0.6760718009540235  0.03399151919482123  0.9844693171296663  1.0000
  C   C2        1.0  0.5996308381356978  0.0019806294921469463  0.0154910286602995  1.0000
  C   C3        1.0  0.5409536193958615  0.004970580850657903  0.9525636103006168  1.0000
  C   C4        1.0  0.4659667576794038  0.9741098074628505  0.9823565465322052  1.0000
  C   C5        1.0  0.4509493866919885  0.9402588193797824  0.07624481078879408  1.0000
  C   C6        1.0  0.5096147957279566  0.937325122617629  0.13881077771289974  1.0000
  C   C7        1.0  0.5838140721044783  0.9680931316158018  0.10862830476942065  1.0000
  C   C8        1.0  0.403688629078754  0.9771957578508059  0.9157649201240718  1.0000
  C   C9        1.0  0.3297200135086895  0.005397476422456018  0.9433507398882459  1.0000
  C   C10       1.0  0.2710403030809107  0.008239794439614848  0.880428712356506  1.0000
  C   C11       1.0  0.285835668899926  0.982882070323321  0.7895055355412908  1.0000
  C   C12       1.0  0.3590204176304713  0.9548095996402042  0.7615220553940667  1.0000
  C   C13       1.0  0.41768701054223867  0.9519444799085146  0.8240854592818061  1.0000
  C   C14       1.0  0.1956552782937141  0.03748140081280636  0.9091613347768481  1.0000
  N   N2        1.0  0.1350585643949396  0.060987664767645236  0.9322649275230562  1.0000
  H   H1        1.0  0.5535467860248747  0.03245680217390202  0.880862852268264  1.0000
  H   H2        1.0  0.39410294990590833  0.914907846953475  0.1009762987348758  1.0000
  H   H3        1.0  0.4975547148197768  0.9108977710983602  0.21081763096661355  1.0000
  H   H4        1.0  0.6287861570381766  0.9654644583875795  0.15782167787461363  1.0000
  H   H5        1.0  0.31796143260651705  0.026321800259749163  0.013242299480358264  1.0000
  H   H6        1.0  0.2408514607198741  0.984811820016845  0.7403382699427079  1.0000
  H   H7        1.0  0.3702829650765123  0.9349760241336232  0.6912440033944014  1.0000
  H   H8        1.0  0.47369736897906567  0.9288017949931503  0.8011661343830809  1.0000
  C   C15       1.0  0.9315305484152276  0.7883124129369988  0.9359951757507815  1.0000
  C   C16       1.0  0.8932493081202113  0.820400199884942  0.8564260020223806  1.0000
  C   C17       1.0  0.8648719099975414  0.7573171271198361  0.7972623641047756  1.0000
  C   C18       1.0  0.8742534273485776  0.6616740930961562  0.8166132282609815  1.0000
  C   C19       1.0  0.9122717675011416  0.6278461890045873  0.8957980631198463  1.0000
  C   C20       1.0  0.9221888608127773  0.526057468670596  0.9164924016414746  1.0000
  C   C21       1.0  0.9416652209180056  0.46917230787960706  0.8443772676010936  1.0000
  C   C22       1.0  0.9510302374285206  0.3733952230902401  0.863837260340528  1.0000
  C   C23       1.0  0.9410527378112443  0.33239216082393175  0.9558026475362802  1.0000
  C   C24       1.0  0.9215250083588515  0.3891786114038075  0.02796399438407971  1.0000
  C   C25       1.0  0.9122214808760726  0.4849633775856328  0.008511644196097066  1.0000
  C   C26       1.0  0.9407783542119047  0.6918498629066092  0.9551406080862349  1.0000
  H   H9        1.0  0.020658285672862542  0.867679061931624  0.12103912267597873  1.0000
  H   H10       1.0  0.8852044656761443  0.8942374022554012  0.8398621235443673  1.0000
  H   H11       1.0  0.8352874750958297  0.7826523655127755  0.7362736049331097  1.0000
  H   H12       1.0  0.8508729263354131  0.6140759984218555  0.7703218212784655  1.0000
  H   H13       1.0  0.9506731611107309  0.4989581891543505  0.7729522183773345  1.0000
  H   H14       1.0  0.9662833511506633  0.331565445259673  0.8067570172443101  1.0000
  H   H15       1.0  0.9772264885330966  0.10577464820808273  0.9171941193099578  1.0000
  H   H16       1.0  0.9132172354582612  0.3595989192471068  0.09954135571087785  1.0000
  H   H17       1.0  0.8962026901914814  0.5267138553788893  0.06539833427967447  1.0000
  H   H18       1.0  0.9711002995933001  0.6664482192518626  0.015563164899404463  1.0000
  C   C27       1.0  0.9356171904615378  0.07195371836077477  0.6722564150461232  1.0000
  C   C28       1.0  0.9783389843313607  0.1269649638716528  0.6018474318824631  1.0000
  C   C29       1.0  0.9796251927942898  0.10407182963825724  0.509253450520071  1.0000
  C   C30       1.0  0.9382721686633049  0.025655079298182892  0.48503731708810927  1.0000
  C   C31       1.0  0.8956116508892549  0.9706575442995866  0.555535051544815  1.0000
  C   C32       1.0  0.8942737009815531  0.9935921060806479  0.6481217817541307  1.0000
  C   C33       1.0  0.9396608911756055  0.0012860201058324592  0.3866438306638684  1.0000
  C   C34       1.0  0.9356171302321352  0.07137719508463092  0.3129179425854367  1.0000
  C   C35       1.0  0.936966091833142  0.04875086392036887  0.21954144540766984  1.0000
  C   C36       1.0  0.9424373823968392  0.9548402127104867  0.2005252899371308  1.0000
  C   C37       1.0  0.9464326255555341  0.884980694083826  0.2733088267087691  1.0000
  C   C38       1.0  0.9450392377150515  0.9078223033230676  0.36578436483317267  1.0000
  H   H19       1.0  0.8901500450147367  0.05676190830860281  0.9070121306036969  1.0000
  H   H20       1.0  0.010993615659972141  0.18765333691452477  0.6182801814808931  1.0000
  H   H21       1.0  0.01385369142196579  0.14708810461816993  0.4567432212231363  1.0000
  H   H22       1.0  0.8623959546294737  0.9104980839008106  0.5388924858167179  1.0000
  H   H23       1.0  0.8606505258357621  0.9499712600240398  0.7007208250950783  1.0000
  H   H24       1.0  0.9303622045994652  0.1434493197018909  0.32843196537780034  1.0000
  H   H25       1.0  0.9306110932732063  0.1494513026656512  0.9965805831828836  1.0000
  H   H26       1.0  0.9436437610556806  0.9352389763909218  0.1294220033151281  1.0000
  H   H27       1.0  0.9508415183921988  0.8128219135466398  0.25795815409300826  1.0000
  H   H28       1.0  0.9491999094577314  0.8524999402700629  0.4209227451866521  1.0000
  Zn  Zn1       1.0  0.8522392452420967  0.06008623027690247  0.9516640750073397  1.0000
  Zn  Zn2       1.0  0.020336702066648955  0.06061791764453803  0.9401338249128834  1.0000
  C   C39       1.0  0.9366448329171555  0.04944614673997138  0.11595860057722111  1.0000
  C   C40       1.0  0.9359329706932108  0.0712591719930961  0.7758393074474161  1.0000
  C   C41       1.0  0.9392397523988438  0.22970694569950104  0.9483455731930852  1.0000
  C   C42       1.0  0.9333379744946093  0.8909972577288504  0.9434523479266825  1.0000
  O   O1        1.0  0.9998309875078913  0.07122380690596447  0.8062268554230567  1.0000
  O   O2        1.0  0.00032888342951342556  0.049884362739841974  0.07681956588439609  1.0000
  O   O3        1.0  0.0024234561682525504  0.19544719380941172  0.9414709544364641  1.0000
  O   O4        1.0  0.9977363573526501  0.9256609852441802  0.941575401177787  1.0000
  O   O5        1.0  0.8748395325926887  0.19504316249703754  0.95022250267228  1.0000
  O   O6        1.0  0.8727449792074563  0.049481446551961274  0.08557110495492641  1.0000
  O   O7        1.0  0.872247080010484  0.0708209059341547  0.8149772729676232  1.0000
  O   O8        1.0  0.8701524499083382  0.9252580746843617  0.9503258883453998  1.0000
