data_image0
_chemical_formula_structural       NC10NC3NH7C12ClH9C13NH9Zn2C4O8
_chemical_formula_sum              "N4 C42 H25 Cl1 Zn2 O8"
_cell_length_a       19.210446455230148
_cell_length_b       10.299768534541528
_cell_length_c       10.298528502251457
_cell_angle_alpha    85.5429176668528
_cell_angle_beta     89.98780616926322
_cell_angle_gamma    89.96529235611058

_space_group_name_H-M_alt    "P 1"
_space_group_IT_number       1

loop_
  _space_group_symop_operation_xyz
  'x, y, z'

loop_
  _atom_site_type_symbol
  _atom_site_label
  _atom_site_symmetry_multiplicity
  _atom_site_fract_x
  _atom_site_fract_y
  _atom_site_fract_z
  _atom_site_occupancy
  N   N1        1.0  0.6557466396438777  0.42065943777346554  0.5672410879257673  1.0000
  C   C1        1.0  0.5955182851235529  0.42286681405860865  0.5674724136683027  1.0000
  C   C2        1.0  0.5207140871017926  0.4256035565162253  0.567758997539735  1.0000
  C   C3        1.0  0.48511337764203094  0.5418256846571909  0.5828804849191385  1.0000
  C   C4        1.0  0.4124479115754327  0.5419772366985607  0.5828278914458133  1.0000
  C   C5        1.0  0.375547394406449  0.42631247427909064  0.567845539188992  1.0000
  C   C6        1.0  0.2982251483127211  0.4249560870695237  0.5676948370808699  1.0000
  C   C7        1.0  0.26048027677949404  0.5285465993895706  0.5043324129783102  1.0000
  C   C8        1.0  0.1877018003775466  0.5271444433977588  0.5042232305396583  1.0000
  C   C9        1.0  0.15166680708403443  0.42240929644016667  0.5674254866668411  1.0000
  C   C10       1.0  0.07673717488967471  0.4211072969565301  0.5672885531956797  1.0000
  N   N2        1.0  0.0164992324074262  0.42006044515160657  0.567178493561979  1.0000
  C   C11       1.0  0.1886880321543173  0.3189444823312584  0.6307629077971031  1.0000
  C   C12       1.0  0.2614683334500637  0.32007235941375134  0.6309223235847303  1.0000
  C   C13       1.0  0.4137581221348587  0.311910452328201  0.5530123744823527  1.0000
  N   N3        1.0  0.48452828001660236  0.3143553049916894  0.553178122813269  1.0000
  H   H1        1.0  0.5132220097908903  0.6312526777957704  0.5949364218749031  1.0000
  H   H2        1.0  0.3851867710407765  0.6319855801938499  0.5962787594897274  1.0000
  H   H3        1.0  0.2872145914653806  0.6098161315027877  0.4533411316974132  1.0000
  H   H4        1.0  0.1595623486523802  0.6075858150334623  0.45456244720536976  1.0000
  H   H5        1.0  0.16131406970904122  0.23753977432695872  0.6803241292575499  1.0000
  H   H6        1.0  0.2889629197176851  0.23974965519193733  0.6820210147360262  1.0000
  H   H7        1.0  0.3874849948564658  0.22103922684594912  0.539515195418538  1.0000
  C   C14       1.0  0.8360606079980862  0.038994668159343826  0.5672076808594786  1.0000
  C   C15       1.0  0.8406488244605292  0.04859920399751183  0.43072111902934046  1.0000
  C   C16       1.0  0.8430406303243141  0.9363264178540711  0.36156967083467  1.0000
  C   C17       1.0  0.8407817722894632  0.8133112605385783  0.43073658782766877  1.0000
  C   C18       1.0  0.8361919182743838  0.8017151984028498  0.567223087884589  1.0000
  C   C19       1.0  0.8338575521961316  0.9151142330646015  0.6346943089855914  1.0000
  C   C20       1.0  0.8478955063863716  0.9475408823694779  0.2171782663336794  1.0000
  C   C21       1.0  0.8082965668420329  0.04117205545742841  0.14271214583074654  1.0000
  C   C22       1.0  0.8129281357748387  0.05153152844628761  0.0068148274771735505  1.0000
  C   C23       1.0  0.8570914671933494  0.9687826505907925  0.9436915746950677  1.0000
  C   C24       1.0  0.8966790392478619  0.8754642552416959  0.016646290177384282  1.0000
  C   C25       1.0  0.8921710860123941  0.8647123207869987  0.15255823215172692  1.0000
  Cl  Cl1       1.0  0.8628248979782408  0.9820263227087868  0.7731845454427293  1.0000
  H   H8        1.0  0.8342765553432534  0.3627886779182983  0.6192125323208646  1.0000
  H   H9        1.0  0.8433339467423764  0.1436250650769353  0.377981556705383  1.0000
  H   H10       1.0  0.8416503062561095  0.7264940549198297  0.37778375908273  1.0000
  H   H11       1.0  0.8303172494291288  0.9069365882434135  0.7399874086978395  1.0000
  H   H12       1.0  0.8344706846264612  0.4698427623615806  0.6192357303903001  1.0000
  H   H13       1.0  0.7730999079713816  0.10519050097735104  0.1894674875572886  1.0000
  H   H14       1.0  0.7820234219312127  0.12371585939398466  0.9507015067916135  1.0000
  H   H15       1.0  0.9310994355618839  0.811401058585165  0.9682013967069033  1.0000
  H   H16       1.0  0.9239591498953446  0.7928203409469831  0.20717691001771565  1.0000
  C   C26       1.0  0.8361361763469302  0.4204814112202502  0.18579853305275318  1.0000
  C   C27       1.0  0.7637727279092462  0.4404633033802061  0.18332139655849478  1.0000
  C   C28       1.0  0.7271127419991362  0.4504480468996827  0.06491971680150609  1.0000
  C   C29       1.0  0.7637519029385116  0.4401984812404005  0.9480616911801842  1.0000
  C   C30       1.0  0.8361163441203987  0.4202284669565708  0.9486322508008186  1.0000
  C   C31       1.0  0.8718451081573922  0.4104950478453855  0.06796758800074554  1.0000
  C   C32       1.0  0.650610021255726  0.47156720300536037  0.06330855691222848  1.0000
  C   C33       1.0  0.6198912551031868  0.5595483630182057  0.14423171994464412  1.0000
  C   C34       1.0  0.5478793144523513  0.5793807831699482  0.1425956556917911  1.0000
  C   C35       1.0  0.5056279598562362  0.5115930730474778  0.0602525563175178  1.0000
  C   C36       1.0  0.5356597379910054  0.423849385608851  0.9794335245442854  1.0000
  C   C37       1.0  0.6076642319756022  0.40392261415133013  0.9808329779410937  1.0000
  C   C38       1.0  0.4314916004467469  0.5320612644557656  0.058688891770150235  1.0000
  N   N4        1.0  0.3718909666268684  0.5485164331314702  0.057431845943376025  1.0000
  H   H17       1.0  0.9728169129997286  0.3819152279244389  0.3978666769551671  1.0000
  H   H18       1.0  0.7356614032812685  0.4465177408599994  0.2738420191638675  1.0000
  H   H19       1.0  0.7359029921718198  0.4495918389092015  0.856362748494166  1.0000
  H   H20       1.0  0.9276170174567466  0.39509933005496745  0.06914188600626268  1.0000
  H   H21       1.0  0.9729259869549589  0.3833048355029381  0.7423224652780012  1.0000
  H   H22       1.0  0.6516523706564444  0.6142633544449094  0.20753034303922147  1.0000
  H   H23       1.0  0.5251982099940573  0.6478080563726238  0.20530802251347535  1.0000
  H   H24       1.0  0.5034177544160923  0.37058533928234216  0.9155632856081932  1.0000
  H   H25       1.0  0.6296616849689267  0.33436629967087356  0.9186674868646438  1.0000
  Zn  Zn1       1.0  0.759852043599611  0.42048311493472723  0.5672305244845766  1.0000
  Zn  Zn2       1.0  0.9123938104133582  0.42022618201706535  0.5671996939035062  1.0000
  C   C39       1.0  0.8361176471442296  0.4151026781362572  0.8044402638535104  1.0000
  C   C40       1.0  0.8361298728988625  0.4256082545715289  0.32999008171358163  1.0000
  C   C41       1.0  0.8361636436168437  0.6575465399834717  0.5620443907646726  1.0000
  C   C42       1.0  0.8360838241040002  0.18316283250132792  0.5723860240286656  1.0000
  O   O1        1.0  0.8940165619564725  0.42722569964388274  0.3783703824905913  1.0000
  O   O2        1.0  0.8940066293630944  0.4132892473352221  0.7560361894659426  1.0000
  O   O3        1.0  0.8940429916925328  0.6090657327646043  0.5602998071407708  1.0000
  O   O4        1.0  0.8939801475789934  0.2314492236245964  0.5741066674395581  1.0000
  O   O5        1.0  0.7782656543789577  0.6092600734162918  0.5603235509522133  1.0000
  O   O6        1.0  0.7782292923167498  0.41348514829899097  0.7560598640548277  1.0000
  O   O7        1.0  0.7782392249892354  0.42742155586977626  0.3783924954815088  1.0000
  O   O8        1.0  0.7782028106047786  0.23164507052948877  0.5741288778103701  1.0000
