data_image0
_chemical_formula_structural       NC10NC2NH7C10IC2H9C10SC3H12Zn2C4O8
_chemical_formula_sum              "N3 C41 H28 I1 S1 Zn2 O8"
_cell_length_a       18.145345255705053
_cell_length_b       10.299770258652044
_cell_length_c       10.299154459856256
_cell_angle_alpha    85.57273194020131
_cell_angle_beta     90.51545987917855
_cell_angle_gamma    91.04748074238529

_space_group_name_H-M_alt    "P 1"
_space_group_IT_number       1

loop_
  _space_group_symop_operation_xyz
  'x, y, z'

loop_
  _atom_site_type_symbol
  _atom_site_label
  _atom_site_symmetry_multiplicity
  _atom_site_fract_x
  _atom_site_fract_y
  _atom_site_fract_z
  _atom_site_occupancy
  N   N1        1.0  0.6946964234542087  0.4422551411888527  0.5774213842172486  1.0000
  C   C1        1.0  0.6367113955198231  0.3991954318560138  0.5574834384588911  1.0000
  C   C2        1.0  0.5646589841573182  0.3457144361183353  0.5327196989283045  1.0000
  C   C3        1.0  0.5506548594118102  0.22870360646971258  0.47999547998436226  1.0000
  C   C4        1.0  0.474895391754191  0.21491358839301625  0.4741080957130524  1.0000
  C   C5        1.0  0.4460554509826987  0.3247468185607061  0.5235155903317019  1.0000
  C   C6        1.0  0.36654896379358554  0.3524925153405476  0.5363073097062642  1.0000
  C   C7        1.0  0.31340978299064  0.25099390533972815  0.5392884620759781  1.0000
  C   C8        1.0  0.2385694162576655  0.2773202537518855  0.5514018929376252  1.0000
  C   C9        1.0  0.21572994793516906  0.40526278019480816  0.5605129672181788  1.0000
  C   C10       1.0  0.1386584745247032  0.43224742980177333  0.5729094951482003  1.0000
  N   N2        1.0  0.0766993465468817  0.4539409494324229  0.5828753024441153  1.0000
  C   C11       1.0  0.2680367395232247  0.5069073212226152  0.5574396631429792  1.0000
  C   C12       1.0  0.34292375435909284  0.4808475819431715  0.5454392044899611  1.0000
  N   N3        1.0  0.5014439390525914  0.4041625592997218  0.5591125501297234  1.0000
  H   H1        1.0  0.5907528102153311  0.16111128138135336  0.44922819414216525  1.0000
  H   H2        1.0  0.44473732138943195  0.13423768346779785  0.43644022085012657  1.0000
  H   H3        1.0  0.3295031869311026  0.15094475360958606  0.5339079401926141  1.0000
  H   H4        1.0  0.1985501198078755  0.1978059246950552  0.5539377684990006  1.0000
  H   H5        1.0  0.2509383918886345  0.6064273461998865  0.5639428639376496  1.0000
  H   H6        1.0  0.3819250002665341  0.5616989638274803  0.5414717220836429  1.0000
  H   H7        1.0  0.4970168399158597  0.49266310254745727  0.6012668223035131  1.0000
  C   C13       1.0  0.8856319511998277  0.0667307427544859  0.58014431842375  1.0000
  C   C14       1.0  0.8911368238396488  0.07643455240302188  0.4438236589607336  1.0000
  C   C15       1.0  0.8939968202264631  0.964214428072821  0.3747590431578631  1.0000
  C   C16       1.0  0.8912772480829645  0.8411510566383854  0.4438432804556909  1.0000
  C   C17       1.0  0.8857708622224199  0.8294554877614915  0.5801637503010917  1.0000
  C   C18       1.0  0.8829794533967057  0.9428031203739746  0.647550958384081  1.0000
  C   C19       1.0  0.8998209517932532  0.975533597570072  0.23054498565738069  1.0000
  C   C20       1.0  0.9470038533113211  0.8941288672727343  0.16727030319477065  1.0000
  C   C21       1.0  0.9524113705719567  0.9049922230690036  0.0315237578471812  1.0000
  C   C22       1.0  0.9108507675989735  0.9969698531041051  0.9574105554780457  1.0000
  I   I1        1.0  0.9191189529928473  0.013039190339403818  0.75265536396005  1.0000
  C   C23       1.0  0.8638035486877965  0.07828416218358392  0.019168359909310425  1.0000
  C   C24       1.0  0.8582483323188503  0.06784163195185844  0.154894266371586  1.0000
  H   H8        1.0  0.8835008622466712  0.390485843151462  0.6320841892352693  1.0000
  H   H9        1.0  0.8942300423278371  0.17152873814094452  0.3911754128917291  1.0000
  H   H10       1.0  0.892447560673158  0.7543426288912525  0.3909269699872493  1.0000
  H   H11       1.0  0.8787320266598776  0.9345488237261611  0.7527160112628402  1.0000
  H   H12       1.0  0.8837053961453119  0.49754602122920355  0.6321126243056987  1.0000
  H   H13       1.0  0.9804033765374737  0.8232943732906066  0.2228272352567178  1.0000
  H   H14       1.0  0.9890584194653242  0.8420967198616357  0.9840487657945518  1.0000
  H   H15       1.0  0.8313796642677436  0.149387407554338  0.9620621536245504  1.0000
  H   H16       1.0  0.8207608645864136  0.13073150628935548  0.20056683533861763  1.0000
  C   C25       1.0  0.8857978651990533  0.44802453113880675  0.19877700920119182  1.0000
  C   C26       1.0  0.8130507300771369  0.399068295802743  0.2006223923542585  1.0000
  C   C27       1.0  0.7760678874507795  0.3743186318256633  0.08440802274187953  1.0000
  C   C28       1.0  0.8128111557053426  0.3991824576145939  0.9653265597802103  1.0000
  C   C29       1.0  0.885604930614543  0.44816173862739284  0.9615310823798273  1.0000
  C   C30       1.0  0.9216501558374226  0.47228379898270517  0.07872457487488194  1.0000
  C   C31       1.0  0.6991148831896231  0.32252012483980397  0.08739656098079118  1.0000
  C   C32       1.0  0.6773252740361894  0.22419526116200553  0.18251726619223874  1.0000
  C   C33       1.0  0.6048954730904595  0.17548735740054133  0.18509693597011223  1.0000
  C   C34       1.0  0.5533881444814794  0.22406598501148078  0.09276383998651361  1.0000
  S   S1        1.0  0.46041881504704696  0.16169935098412938  0.09652465514487774  1.0000
  C   C35       1.0  0.47939391569721956  0.034277712503764324  0.9891570966068423  1.0000
  C   C36       1.0  0.5743946799878538  0.3221099631722375  0.9981217329412337  1.0000
  C   C37       1.0  0.6467870233532397  0.37099605850434636  0.9951786216056333  1.0000
  H   H17       1.0  0.9137923496024302  0.46678877821452086  0.5255481417910786  1.0000
  H   H18       1.0  0.7846312474679593  0.3817496194933403  0.2925267191730925  1.0000
  H   H19       1.0  0.7849136793755348  0.3786103728067127  0.8755818392098718  1.0000
  H   H20       1.0  0.9777627504327229  0.5100408902272513  0.0765857603479092  1.0000
  H   H21       1.0  0.023158335963447962  0.5398341914175387  0.747135963292096  1.0000
  H   H22       1.0  0.7165256221236821  0.1838170815753395  0.25381823159118366  1.0000
  H   H23       1.0  0.5889755723571505  0.09954752941004474  0.2585675615625489  1.0000
  H   H24       1.0  0.42799475915322505  0.9772563445185232  0.9740858665532298  1.0000
  H   H25       1.0  0.5217990260459738  0.9680483636613127  0.03370215494799056  1.0000
  H   H26       1.0  0.4989167915458882  0.07806992783201094  0.8934479993088984  1.0000
  H   H27       1.0  0.5346770173009012  0.3605717490530206  0.9267852638688222  1.0000
  H   H28       1.0  0.661604999153106  0.4478551039237673  0.9218820990552308  1.0000
  Zn  Zn1       1.0  0.8049342166482039  0.44562392339969464  0.579002773493867  1.0000
  Zn  Zn2       1.0  0.9664615482241952  0.4505614928656419  0.5813045734757118  1.0000
  C   C38       1.0  0.8856388331872735  0.44296208488667843  0.8173540366927158  1.0000
  C   C39       1.0  0.885758695824777  0.4532250239326667  0.34295346292330064  1.0000
  C   C40       1.0  0.8857421272398069  0.6852832496937082  0.5749847221261408  1.0000
  C   C41       1.0  0.8856553463525564  0.21090229715695585  0.5853228459048299  1.0000
  O   O1        1.0  0.9470443297193436  0.45683847298276997  0.39221391881362133  1.0000
  O   O2        1.0  0.9469487063869545  0.44309515702785257  0.7698402198496861  1.0000
  O   O3        1.0  0.9470312909622935  0.6387725371623436  0.5741252717927734  1.0000
  O   O4        1.0  0.946961690051988  0.261161100436091  0.5879287687085867  1.0000
  O   O5        1.0  0.824434019699062  0.6350243141457077  0.5723785774686696  1.0000
  O   O6        1.0  0.8243514354220616  0.43934849429636064  0.7680934563183062  1.0000
  O   O7        1.0  0.8244470591901335  0.45309176471614254  0.3904655938479449  1.0000
  O   O8        1.0  0.8243644194934459  0.2574143828981146  0.5861805411125358  1.0000
