data_image0
_chemical_formula_structural       NC12NC2H8C6NCH9C6NCOH5Zn2C4O8
_chemical_formula_sum              "N4 C32 H22 O9 Zn2"
_cell_length_a       19.240039667572717
_cell_length_b       9.273386996610926
_cell_length_c       9.27373355559583
_cell_angle_alpha    86.07967468279998
_cell_angle_beta     90.0110552776814
_cell_angle_gamma    89.39858615406628

_space_group_name_H-M_alt    "P 1"
_space_group_IT_number       1

loop_
  _space_group_symop_operation_xyz
  'x, y, z'

loop_
  _atom_site_type_symbol
  _atom_site_label
  _atom_site_symmetry_multiplicity
  _atom_site_fract_x
  _atom_site_fract_y
  _atom_site_fract_z
  _atom_site_occupancy
  N   N1        1.0  0.6464278285376005  0.5617731168834936  0.4076913003830964  1.0000
  C   C1        1.0  0.5862794592448134  0.5617732091989391  0.40769120930363734  1.0000
  C   C2        1.0  0.5114614214385897  0.5617733378515384  0.4076910567206616  1.0000
  C   C3        1.0  0.4753544545375721  0.4913930247775901  0.5225670640729735  1.0000
  C   C4        1.0  0.4026843333229225  0.4912708820789724  0.5226633024759508  1.0000
  C   C5        1.0  0.3651291859712467  0.5617734379670158  0.40769080388747003  1.0000
  C   C6        1.0  0.40194971596425727  0.6322762038866686  0.2927185208519832  1.0000
  C   C7        1.0  0.4746210326421315  0.6321538010405374  0.29281489562153795  1.0000
  C   C8        1.0  0.2879240959696052  0.561773349449538  0.4076906981425965  1.0000
  C   C9        1.0  0.251374626319986  0.43645539780082854  0.4543595081336367  1.0000
  C   C10       1.0  0.17870333321845816  0.43657306120124084  0.45425796902002213  1.0000
  C   C11       1.0  0.1415918097749936  0.5617732066822376  0.4076907659688669  1.0000
  C   C12       1.0  0.0667737732699763  0.5617730832910812  0.4076910421211368  1.0000
  N   N2        1.0  0.006625456656267102  0.5617730404236705  0.4076912734850847  1.0000
  C   C13       1.0  0.1774277967597081  0.6869734357670787  0.3611235040867691  1.0000
  C   C14       1.0  0.25009788724090504  0.6870912973200296  0.3610217842126153  1.0000
  H   H1        1.0  0.5033532930869884  0.4369111206983687  0.6122582292595946  1.0000
  H   H2        1.0  0.37587056174434  0.4376888187370431  0.6135909543662875  1.0000
  H   H3        1.0  0.3745769566004884  0.6858582966745149  0.20179081248470368  1.0000
  H   H4        1.0  0.5020519661311373  0.6866355970263962  0.20312403667527823  1.0000
  H   H5        1.0  0.2789703051167404  0.33778763612735263  0.4891073886447215  1.0000
  H   H6        1.0  0.1514858857411943  0.33891645949805715  0.49015055702493204  1.0000
  H   H7        1.0  0.1492154209277077  0.7846300103865791  0.3252309322730561  1.0000
  H   H8        1.0  0.276688686814454  0.7857591464142983  0.3262738538747869  1.0000
  C   C15       1.0  0.8286672986066718  0.1381267099929373  0.4083994748389275  1.0000
  C   C16       1.0  0.8408658976631429  0.2202028027515119  0.2780891441331501  1.0000
  C   C17       1.0  0.8465203873903144  0.1543003213092935  0.14777075937187623  1.0000
  C   C18       1.0  0.8400617607357358  0.003963786817312354  0.14443076696270166  1.0000
  C   C19       1.0  0.829087972356356  0.9209199179413954  0.2742884285648913  1.0000
  C   C20       1.0  0.8243927021232867  0.9854084894235523  0.40699557059249347  1.0000
  N   N3        1.0  0.8451285940972642  0.9329959848508358  0.011421830370676567  1.0000
  C   C21       1.0  0.8567013750472311  0.009382039674983958  0.8707820905839818  1.0000
  H   H9        1.0  0.8428763579712636  0.40281259381437057  0.6450118409529542  1.0000
  H   H10       1.0  0.8444108269469399  0.33682970603082696  0.27632099047090675  1.0000
  H   H11       1.0  0.8552815083239813  0.22185106109694794  0.04987517820856935  1.0000
  H   H12       1.0  0.825807293864579  0.8044944311700113  0.27201485936718584  1.0000
  H   H13       1.0  0.8499972425382866  0.8578164522365738  0.7580190854793447  1.0000
  H   H14       1.0  0.8402149433013141  0.8206609594771843  0.01441039554633927  1.0000
  H   H15       1.0  0.8136134887331722  0.08768667714159517  0.845741545719767  1.0000
  H   H16       1.0  0.9070077929910247  0.0669362787751395  0.8710146436158075  1.0000
  H   H17       1.0  0.8584500819412164  0.9310291191452456  0.7854613623048281  1.0000
  C   C22       1.0  0.8265131683198317  0.5572223060779935  0.9844780350135482  1.0000
  C   C23       1.0  0.7626745336971867  0.5489420019167456  0.05844323389139583  1.0000
  C   C24       1.0  0.6994089935506954  0.5523529654956296  0.9834881128914646  1.0000
  C   C25       1.0  0.6999399034554957  0.5687336513892333  0.8321132352444955  1.0000
  C   C26       1.0  0.7627443158216632  0.5748612185368598  0.7569476111546187  1.0000
  C   C27       1.0  0.826546844282638  0.5663128911492807  0.8309170044960554  1.0000
  N   N4        1.0  0.6353481182448567  0.5472930850753166  0.06351099893758905  1.0000
  C   C28       1.0  0.5730652230728793  0.48086001694586233  0.016838671093185605  1.0000
  O   O1        1.0  0.5730849172243557  0.40451346931586807  0.9096143451778755  1.0000
  H   H18       1.0  0.9897905103398238  0.657396277311789  0.08062545352596853  1.0000
  H   H19       1.0  0.6518906504416725  0.5783389577573256  0.7714827186352857  1.0000
  H   H20       1.0  0.9370957087676951  0.6276841685271113  0.545709046190475  1.0000
  H   H21       1.0  0.634905682893414  0.585652032880247  0.16686643678810567  1.0000
  H   H22       1.0  0.5254993782985955  0.4929589234776528  0.07723947583172963  1.0000
  Zn  Zn1       1.0  0.7503731122491403  0.5617693325019599  0.40769960919158943  1.0000
  Zn  Zn2       1.0  0.9026802515532025  0.5617651832821874  0.4076947461747491  1.0000
  C   C29       1.0  0.82656792428615  0.5588473730404875  0.6709314191623119  1.0000
  C   C30       1.0  0.8264870935276738  0.5646889644900717  0.14446307458908936  1.0000
  C   C31       1.0  0.8251968975090525  0.8251925318379536  0.4015178318815049  1.0000
  C   C32       1.0  0.8278580770805051  0.2983420732457229  0.4138767415802833  1.0000
  O   O2        1.0  0.8842781399525041  0.5671869748244373  0.19815368029125804  1.0000
  O   O3        1.0  0.8843744779199773  0.5563451207567849  0.6172367094751836  1.0000
  O   O4        1.0  0.883266577349609  0.771422220995593  0.39968332913941895  1.0000
  O   O5        1.0  0.8853859884943976  0.35210988374660734  0.41570695255123935  1.0000
  O   O6        1.0  0.767667323332985  0.7714246320404458  0.3996874028091757  1.0000
  O   O7        1.0  0.7687752151526593  0.5563492642514247  0.6172407034286302  1.0000
  O   O8        1.0  0.7686788774160983  0.5671910494367786  0.19815594158275296  1.0000
  O   O9        1.0  0.7697867260115067  0.3521139492008756  0.4157093219125947  1.0000
