data_image0
_chemical_formula_structural       NC8NH4C10H6C6F3H5Zn2C4O8
_chemical_formula_sum              "N2 C28 H15 F3 Zn2 O8"
_cell_length_a       13.859017981522156
_cell_length_b       9.275150299802176
_cell_length_c       9.272721663655245
_cell_angle_alpha    85.5566990303468
_cell_angle_beta     90.5161758670597
_cell_angle_gamma    89.4839203727508

_space_group_name_H-M_alt    "P 1"
_space_group_IT_number       1

loop_
  _space_group_symop_operation_xyz
  'x, y, z'

loop_
  _atom_site_type_symbol
  _atom_site_label
  _atom_site_symmetry_multiplicity
  _atom_site_fract_x
  _atom_site_fract_y
  _atom_site_fract_z
  _atom_site_occupancy
  N   N1        1.0  0.88948321195287  0.5702274397131639  0.4005436861623921  1.0000
  C   C1        1.0  0.8168036239680029  0.5628544691177162  0.3392504229326958  1.0000
  C   C2        1.0  0.7263945313033082  0.553683830785701  0.2630095768826266  1.0000
  C   C3        1.0  0.7254237300495031  0.5358001989575412  0.11433618932289734  1.0000
  C   C4        1.0  0.6375984902526474  0.52689517941389  0.040296524687549296  1.0000
  C   C5        1.0  0.5505584421615602  0.5358019207999403  0.11433593117243944  1.0000
  C   C6        1.0  0.5511642874078408  0.5536848035246804  0.263009387512146  1.0000
  C   C7        1.0  0.6391735837373878  0.5626246118358114  0.33733494191136315  1.0000
  C   C8        1.0  0.4615638002771025  0.5628553719966463  0.33925017730364226  1.0000
  N   N2        1.0  0.38953429382441696  0.5702277528360207  0.4005435907501866  1.0000
  H   H1        1.0  0.7924090077827234  0.5287628567020892  0.05583478145448106  1.0000
  H   H2        1.0  0.6369894942524981  0.51308110235576  0.9254527285257533  1.0000
  H   H3        1.0  0.48295271674680673  0.5287659536694591  0.055834343790431167  1.0000
  H   H4        1.0  0.6397838113084117  0.5764665483874637  0.45241222440091367  1.0000
  C   C9        1.0  0.14207374121999997  0.14653540313878957  0.4029576083470443  1.0000
  C   C10       1.0  0.1921619893783948  0.22798534376316495  0.2938673703489867  1.0000
  C   C11       1.0  0.23394203604540387  0.16120305571006677  0.17923331106857576  1.0000
  C   C12       1.0  0.22605591000126385  0.011996786154275131  0.17221295093390765  1.0000
  C   C13       1.0  0.17807032179309504  0.929099429170134  0.2806551370802386  1.0000
  C   C14       1.0  0.13695311758418915  0.9939087531519539  0.3981421973910101  1.0000
  C   C15       1.0  0.2840270489251786  0.24638136581871486  0.0676488360522769  1.0000
  C   C16       1.0  0.32596089192738903  0.3177207084277949  0.9742293731421195  1.0000
  C   C17       1.0  0.3750634745897188  0.40126404283327766  0.8648392562981311  1.0000
  C   C18       1.0  0.416989231577817  0.47259800213513703  0.7714377012423812  1.0000
  H   H5        1.0  0.09769285495626034  0.4101230633201843  0.6319338240723518  1.0000
  H   H6        1.0  0.19681136540064315  0.3444460071158133  0.29609495247233303  1.0000
  H   H7        1.0  0.25786876477979526  0.9593620375461765  0.0835102744907974  1.0000
  H   H8        1.0  0.17508213712657317  0.8130650042082195  0.27442976859063983  1.0000
  H   H9        1.0  0.07630945616321028  0.865328947888405  0.7407400220363737  1.0000
  H   H10       1.0  0.4538035440515035  0.5352352752454406  0.6894234214265906  1.0000
  C   C19       1.0  0.1369746269771559  0.5678819408944211  0.9771199742099359  1.0000
  C   C20       1.0  0.17875370876799565  0.44986830703473185  0.06051294645024629  1.0000
  C   C21       1.0  0.22893792469608565  0.3404368307495571  0.9952298033987853  1.0000
  C   C22       1.0  0.2343984742858629  0.3470808289963654  0.8440422272466792  1.0000
  C   C23       1.0  0.1920656980082116  0.4620905040661137  0.7596980239083676  1.0000
  C   C24       1.0  0.14205228418889293  0.5725622644114375  0.823979804063819  1.0000
  F   F1        1.0  0.30324412876973483  0.254814734587298  0.21829666246842946  1.0000
  F   F2        1.0  0.3482764171811268  0.15320246636832735  0.01752122556188262  1.0000
  F   F3        1.0  0.20079174554987178  0.10902737949659369  0.10992791516267397  1.0000
  H   H11       1.0  0.07373630259468004  0.9114560814945121  0.05138693136418348  1.0000
  H   H12       1.0  0.17396679695399286  0.4447424322416098  0.17738771002424047  1.0000
  H   H13       1.0  0.27057436150764214  0.2623251094446406  0.7906160059328222  1.0000
  H   H14       1.0  0.1961975685992483  0.46255195979284874  0.6430407832840968  1.0000
  H   H15       1.0  0.9674282087780749  0.815914640763355  0.7013060791601617  1.0000
  Zn  Zn1       1.0  0.03378723166081876  0.5702237232520937  0.40055200347494013  1.0000
  Zn  Zn2       1.0  0.2452304186942041  0.5702197624837513  0.4005471380908106  1.0000
  C   C25       1.0  0.14112505969983305  0.5659297253175123  0.663937844097185  1.0000
  C   C26       1.0  0.13789488945586048  0.5745155816265135  0.13716142859482322  1.0000
  C   C27       1.0  0.1378816305003574  0.8337054185258479  0.39330646922663615  1.0000
  C   C28       1.0  0.1411382574406177  0.3067381553835351  0.40779289019279613  1.0000
  O   O1        1.0  0.21844536352126023  0.5767340944538186  0.1908709920653784  1.0000
  O   O2        1.0  0.22105507621911635  0.5637071156151634  0.6102241790206949  1.0000
  O   O3        1.0  0.21843489341643976  0.7799393826731884  0.3916874205503871  1.0000
  O   O4        1.0  0.221065473462095  0.3605018371208628  0.40940764236461713  1.0000
  O   O5        1.0  0.057952104737690746  0.7799416486178633  0.39169149919520113  1.0000
  O   O6        1.0  0.06057227659984776  0.563711114597361  0.6102281709321531  1.0000
  O   O7        1.0  0.05796255387556595  0.5767380335766159  0.19087325065566807  1.0000
  O   O8        1.0  0.06058266452300456  0.36050576652147126  0.4094100091200439  1.0000
