data_image0
_chemical_formula_structural       NC8NC6H8C12SCH12C12OCH12Zn2C4O8
_chemical_formula_sum              "N2 C44 H32 S1 O9 Zn2"
_cell_length_a       17.457602349358154
_cell_length_b       10.299776766347527
_cell_length_c       10.299794127170987
_cell_angle_alpha    85.57877721711455
_cell_angle_beta     92.86889786892418
_cell_angle_gamma    91.66964631390691

_space_group_name_H-M_alt    "P 1"
_space_group_IT_number       1

loop_
  _space_group_symop_operation_xyz
  'x, y, z'

loop_
  _atom_site_type_symbol
  _atom_site_label
  _atom_site_symmetry_multiplicity
  _atom_site_fract_x
  _atom_site_fract_y
  _atom_site_fract_z
  _atom_site_occupancy
  N   N1        1.0  0.72224263044378  0.45239561335272516  0.6265799640660017  1.0000
  C   C1        1.0  0.6611741298583381  0.40646840358197944  0.6159646179392833  1.0000
  C   C2        1.0  0.5852023303651862  0.34934067165950555  0.6027686688565923  1.0000
  C   C3        1.0  0.526660998708737  0.3895234575252131  0.6776627131232278  1.0000
  C   C4        1.0  0.4521268384316155  0.33451411675764486  0.6650811783736483  1.0000
  C   C5        1.0  0.3899938847576534  0.37694129026586776  0.7443968112886422  1.0000
  C   C6        1.0  0.3154475032271698  0.39539293839854817  0.6886361721678558  1.0000
  C   C7        1.0  0.256906196288966  0.43539183481115296  0.7636381640545841  1.0000
  C   C8        1.0  0.1809216949085664  0.4544486734774764  0.705662177581333  1.0000
  N   N2        1.0  0.1198430735059633  0.46976399226664634  0.6590496354753004  1.0000
  C   C9        1.0  0.2724190275345719  0.45718236739148205  0.8949092878850454  1.0000
  C   C10       1.0  0.34618060495385583  0.4391198098754905  0.9510575069306673  1.0000
  C   C11       1.0  0.4047102417446306  0.39930109727368307  0.8765132139213138  1.0000
  C   C12       1.0  0.4374228814223889  0.23864416805726843  0.5761727495057027  1.0000
  C   C13       1.0  0.4959524149138771  0.19874017241258943  0.5016786893652634  1.0000
  C   C14       1.0  0.5697017508816726  0.2538620468829651  0.514810146605716  1.0000
  H   H1        1.0  0.5389862516216065  0.4647354578633587  0.7442903256767859  1.0000
  H   H2        1.0  0.3031122679237017  0.3803931915018857  0.5866167781324476  1.0000
  H   H3        1.0  0.2275482032861088  0.4880815950407029  0.9537422666768897  1.0000
  H   H4        1.0  0.3580018590929115  0.4556770704159825  0.05270366453783726  1.0000
  H   H5        1.0  0.46119556996197447  0.3843231310946882  0.9226172938224279  1.0000
  H   H6        1.0  0.3809475494570587  0.1933066016211215  0.5655212903170108  1.0000
  H   H7        1.0  0.48414084135937224  0.12464425626881102  0.4338528197265443  1.0000
  H   H8        1.0  0.6145727493176358  0.22209329175188386  0.4564882640710457  1.0000
  C   C15       1.0  0.9211188563528856  0.07971796940886453  0.6428194126543947  1.0000
  C   C16       1.0  0.9257197399105072  0.0683970249227146  0.7797019699854941  1.0000
  C   C17       1.0  0.9279771791587625  0.9455187661584065  0.8490607775037833  1.0000
  C   C18       1.0  0.9255730400284135  0.8331028446920795  0.7797051794190399  1.0000
  C   C19       1.0  0.9209742055192309  0.8424319309572624  0.6428220400782593  1.0000
  C   C20       1.0  0.9187724252060767  0.9661796703340789  0.5751453550269361  1.0000
  C   C21       1.0  0.932835940104101  0.934606021068824  0.9938663881289482  1.0000
  C   C22       1.0  0.8889227395954525  0.8392489457951683  0.06431911542190916  1.0000
  C   C23       1.0  0.8935184437394074  0.8292142369961929  0.20059669201612806  1.0000
  C   C24       1.0  0.941835942466901  0.9142502012435355  0.268212489147023  1.0000
  C   C25       1.0  0.9859321326523918  0.009041883992772391  0.19914769931658527  1.0000
  C   C26       1.0  0.9814489257660599  0.019431392724109434  0.06286889524236815  1.0000
  S   S1        1.0  0.9478174652122133  0.9009174472669008  0.44308227809870054  1.0000
  C   C27       1.0  0.8707228389768437  0.013617250615569624  0.4563141210121654  1.0000
  H   H9        1.0  0.9193958936190748  0.41148656358938296  0.5906634095451532  1.0000
  H   H10       1.0  0.9265003197161217  0.1552776588856564  0.83272130629556  1.0000
  H   H11       1.0  0.9283540236542845  0.7382259972407417  0.8326917506310759  1.0000
  H   H12       1.0  0.9152235637128476  0.9741448322698939  0.46954632510722755  1.0000
  H   H13       1.0  0.9191835381287468  0.518531294808516  0.5906651734534605  1.0000
  H   H14       1.0  0.8503055357520246  0.7735842044380232  0.014053786978468926  1.0000
  H   H15       1.0  0.859214019016734  0.7556697092005931  0.253513866389003  1.0000
  H   H16       1.0  0.023732705062703436  0.07472729210944751  0.25093519060621117  1.0000
  H   H17       1.0  0.01672154714149054  0.09264967608481522  0.0114437573410544  1.0000
  H   H18       1.0  0.8860844179827098  0.11060372106466511  0.4086934817562882  1.0000
  H   H19       1.0  0.8618258539083065  0.0239387426880675  0.5608613861066126  1.0000
  H   H20       1.0  0.8167406341914902  0.9757143454719069  0.40978580576089796  1.0000
  C   C28       1.0  0.9210724168586065  0.46096260926367827  0.2614713946431828  1.0000
  C   C29       1.0  0.8459041726326678  0.40855696184399787  0.258138568354199  1.0000
  C   C30       1.0  0.8077947120737999  0.3821042711954061  0.13930120852449712  1.0000
  C   C31       1.0  0.8458519718565674  0.4087811456014628  0.0228294180694486  1.0000
  C   C32       1.0  0.9210206455532314  0.46118731920361533  0.024170017605413593  1.0000
  C   C33       1.0  0.958210734433282  0.48698175221596607  0.14397637889282944  1.0000
  C   C34       1.0  0.7282731655579762  0.3266550658692746  0.13683014333887922  1.0000
  C   C35       1.0  0.6733416256485437  0.37292199448017693  0.041196810747228474  1.0000
  C   C36       1.0  0.5986037386840392  0.32072778853051864  0.03914375132779125  1.0000
  C   C37       1.0  0.5777109399016023  0.2218824085737312  0.13212241086669252  1.0000
  C   C38       1.0  0.6318858707016295  0.17417784926251614  0.228556511466526  1.0000
  C   C39       1.0  0.7067279242569943  0.22701614382143886  0.23016671391294594  1.0000
  O   O1        1.0  0.6138463776246025  0.0748181497914384  0.3239031275930313  1.0000
  C   C40       1.0  0.5403186888775361  0.012333406811606105  0.333934645650233  1.0000
  H   H21       1.0  0.9497249571978674  0.48087354445763036  0.590199735893955  1.0000
  H   H22       1.0  0.8164332771153806  0.38984096612645885  0.3480085502540289  1.0000
  H   H23       1.0  0.8170967675848126  0.3869308375503011  0.9311492345685285  1.0000
  H   H24       1.0  0.016200198275351244  0.5274096801218768  0.14577914929502378  1.0000
  H   H25       1.0  0.949647675181047  0.48121693342040706  0.6972222083915622  1.0000
  H   H26       1.0  0.6879174186693942  0.4506238773246442  0.9690698796130718  1.0000
  H   H27       1.0  0.5566504452887626  0.35729007247772643  0.965380524961795  1.0000
  H   H28       1.0  0.5194336643860272  0.1833029185788142  0.12819102589172626  1.0000
  H   H29       1.0  0.7483433655493554  0.1886891030990421  0.3037285505826477  1.0000
  H   H30       1.0  0.5245151041525449  0.963187905306939  0.2437826135783494  1.0000
  H   H31       1.0  0.5423041934452347  0.9379452168682454  0.4177672735000908  1.0000
  H   H32       1.0  0.49660869371017924  0.08468146409750799  0.35064357459455836  1.0000
  Zn  Zn1       1.0  0.8369815298529103  0.4574042718994429  0.6359575079225763  1.0000
  Zn  Zn2       1.0  0.0051041611445643495  0.4647446892259223  0.6496827235635332  1.0000
  C   C41       1.0  0.921029679208337  0.4559711672972939  0.8800035018383104  1.0000
  C   C42       1.0  0.9210578473635704  0.4661795126125159  0.40563700699222127  1.0000
  C   C43       1.0  0.9209979296143227  0.698261064936124  0.6376462954410652  1.0000
  C   C44       1.0  0.9210895398803418  0.22388805221512276  0.6479942779357569  1.0000
  O   O2        1.0  0.9848546211793597  0.4707103375155575  0.45922895125253516  1.0000
  O   O3        1.0  0.9848340926612513  0.4570105694845519  0.8368283048394406  1.0000
  O   O4        1.0  0.9848075942939263  0.6526626888477765  0.641123075744749  1.0000
  O   O5        1.0  0.9848810621826699  0.27505822490891396  0.654934078294108  1.0000
  O   O6        1.0  0.857204571442802  0.6470907337129388  0.6307061485014287  1.0000
  O   O7        1.0  0.8572310695153679  0.45144017460476427  0.826411308359257  1.0000
  O   O8        1.0  0.8572515981991204  0.4651398969228966  0.4488103934559031  1.0000
  O   O9        1.0  0.8572780391944426  0.26948777505615973  0.644515617860022  1.0000
