data_image0
_chemical_formula_structural       NC9NC3NH7C8NH7C6NCOCH7Zn2C4O8
_chemical_formula_sum              "N5 C32 H21 O9 Zn2"
_cell_length_a       16.053384444249904
_cell_length_b       9.274263428431858
_cell_length_c       10.300272075376753
_cell_angle_alpha    85.50073118393561
_cell_angle_beta     89.79678474651607
_cell_angle_gamma    89.79185309571561

_space_group_name_H-M_alt    "P 1"
_space_group_IT_number       1

loop_
  _space_group_symop_operation_xyz
  'x, y, z'

loop_
  _atom_site_type_symbol
  _atom_site_label
  _atom_site_symmetry_multiplicity
  _atom_site_fract_x
  _atom_site_fract_y
  _atom_site_fract_z
  _atom_site_occupancy
  N   N1        1.0  0.7941846885823388  0.5596588659999258  0.5635838519407375  1.0000
  C   C1        1.0  0.7432911397505165  0.536574736861748  0.4887566701076982  1.0000
  C   C2        1.0  0.6800443995404218  0.5078924484259292  0.39580307330210496  1.0000
  C   C3        1.0  0.6935874444536373  0.4945289948523413  0.2650879722281734  1.0000
  C   C4        1.0  0.6167920035919718  0.4664223861118309  0.212856578067963  1.0000
  C   C5        1.0  0.5596758131128823  0.4642025435397863  0.31452250988173125  1.0000
  C   C6        1.0  0.4688595593000378  0.4377523287149545  0.30429388904316634  1.0000
  C   C7        1.0  0.4132520374032997  0.48515034880852315  0.3981629455850432  1.0000
  C   C8        1.0  0.3275481396757193  0.46006482215016076  0.3883656955020285  1.0000
  C   C9        1.0  0.27117243311467293  0.5093996472172986  0.48460521357887454  1.0000
  N   N2        1.0  0.2258629857547364  0.5490578901138257  0.5619667141118487  1.0000
  C   C10       1.0  0.2967249594582074  0.38745690996451354  0.2847131800764895  1.0000
  C   C11       1.0  0.3513247407265065  0.3401916439575703  0.19105568983483412  1.0000
  C   C12       1.0  0.4368215559554733  0.3650932779012096  0.20045650631565803  1.0000
  N   N3        1.0  0.5990152247339217  0.489671682380539  0.42605276678191495  1.0000
  H   H1        1.0  0.752385198729415  0.5041377528329865  0.21346928643911434  1.0000
  H   H2        1.0  0.6044436465946555  0.45116475739095985  0.11169844301654908  1.0000
  H   H3        1.0  0.4359265080063655  0.5433767323145218  0.47791728356879676  1.0000
  H   H4        1.0  0.2305791840804353  0.3675077497808903  0.27629439914570586  1.0000
  H   H5        1.0  0.3273712911688332  0.28378855203488196  0.11106631365788622  1.0000
  H   H6        1.0  0.4777011127566996  0.32575930524776964  0.12723984202501937  1.0000
  H   H7        1.0  0.5728610533738583  0.49226624846499006  0.5188036957290785  1.0000
  C   C13       1.0  0.0073919454112132445  0.13083947556603448  0.5630611049754766  1.0000
  C   C14       1.0  0.9966295438726953  0.2145101519120665  0.44441802235652705  1.0000
  C   C15       1.0  0.9940368949916175  0.14970872622650444  0.32681868224361055  1.0000
  C   C16       1.0  0.002819621707339069  0.9997119357489109  0.32495109422940516  1.0000
  C   C17       1.0  0.011346615739585618  0.9145918653908073  0.44280649846944087  1.0000
  C   C18       1.0  0.012663617526662785  0.977866068375953  0.5625006680209954  1.0000
  C   C19       1.0  0.9987816301618886  0.929873087098379  0.1982593050187811  1.0000
  C   C20       1.0  0.9123585651152594  0.8930704198868317  0.16972102331946148  1.0000
  N   N4        1.0  0.8441466824392581  0.8640215100570803  0.14720495372473863  1.0000
  H   H8        1.0  0.0792640343698281  0.20722352249493212  0.8621926337955275  1.0000
  H   H9        1.0  0.9920250244347509  0.33124296318910434  0.44230834431737714  1.0000
  H   H10       1.0  0.9859561551051818  0.21687042831631345  0.23685256304662805  1.0000
  H   H11       1.0  0.014943253823917816  0.7980146500134974  0.44108244387475093  1.0000
  H   H12       1.0  0.05781097525851697  0.679182506663475  0.7656688584671205  1.0000
  H   H13       1.0  0.03726523152794847  0.8298107687515399  0.20314071853656324  1.0000
  H   H14       1.0  0.023383023730265018  0.004113694755860211  0.1173515561555245  1.0000
  C   C21       1.0  0.010035523218141494  0.5544990440742071  0.18142802343286135  1.0000
  C   C22       1.0  0.9250001088744721  0.5907095481336724  0.17828574107473338  1.0000
  C   C23       1.0  0.882414120706793  0.6108982875907933  0.05928551958592431  1.0000
  C   C24       1.0  0.9250064816486353  0.5903805269541231  0.943151968169277  1.0000
  C   C25       1.0  0.010020059068290626  0.5542064058913663  0.9441337624577089  1.0000
  C   C26       1.0  0.05215989185723524  0.5369924191318185  0.06377646891682964  1.0000
  N   N5        1.0  0.795046126763984  0.64575542321561  0.05461028249976985  1.0000
  C   C27       1.0  0.7542558887220673  0.7365500036972965  0.14215771248575204  1.0000
  O   O1        1.0  0.7960808394041159  0.8126717434474945  0.21421457081006426  1.0000
  C   C28       1.0  0.6614700297849812  0.7494378582922037  0.14138610584782874  1.0000
  H   H15       1.0  0.8915238072012032  0.600389301726661  0.26854863600132384  1.0000
  H   H16       1.0  0.8914936995678364  0.6040180221892476  0.8519000829932795  1.0000
  H   H17       1.0  0.11775042987295503  0.5091032795506834  0.06538837175396783  1.0000
  H   H18       1.0  0.7600207523367445  0.6106434980296873  0.9778076675174461  1.0000
  H   H19       1.0  0.6331404768874624  0.6423370555307842  0.12918526669031438  1.0000
  H   H20       1.0  0.6388872539445569  0.78852163872251  0.2344912039929057  1.0000
  H   H21       1.0  0.6419368582267159  0.8270081738803818  0.059547623792595816  1.0000
  Zn  Zn1       1.0  0.9187576940215305  0.5565958041531438  0.5631246759629673  1.0000
  Zn  Zn2       1.0  0.1012898835127265  0.5521091981141817  0.562436511665201  1.0000
  C   C29       1.0  0.009985343959482808  0.5485163195452223  0.7999698290304418  1.0000
  C   C30       1.0  0.01006423814349522  0.5601904534037683  0.32559147734001215  1.0000
  C   C31       1.0  0.011662972321879517  0.8177620668548679  0.5574316497168121  1.0000
  C   C32       1.0  0.008386536710033757  0.2909429748471735  0.5681297272706951  1.0000
  O   O2        1.0  0.07934385061285276  0.5603916068226277  0.3737128988192737  1.0000
  O   O3        1.0  0.07924343304272274  0.544908848095168  0.7513257336618275  1.0000
  O   O4        1.0  0.08059720534151071  0.7623282165593632  0.5554744403965093  1.0000
  O   O5        1.0  0.07799001609438028  0.34297225024376243  0.569564094942022  1.0000
  O   O6        1.0  0.9420574991506085  0.7657327535561944  0.5559970929141511  1.0000
  O   O7        1.0  0.9407037376336169  0.5483151178715786  0.751848315790421  1.0000
  O   O8        1.0  0.9408041549780634  0.5637978269388593  0.3742339196459836  1.0000
  O   O9        1.0  0.9394503203900068  0.34637846000729533  0.5700852131393068  1.0000
