data_image0
_chemical_formula_structural       NC12NC2H8C6NCH9C6ClH5Zn2C4O8
_chemical_formula_sum              "N3 C31 H22 Cl1 Zn2 O8"
_cell_length_a       19.240039667572717
_cell_length_b       9.273386996610926
_cell_length_c       10.302974078461048
_cell_angle_alpha    85.46621229036245
_cell_angle_beta     89.99986526728996
_cell_angle_gamma    89.39858615406628

_space_group_name_H-M_alt    "P 1"
_space_group_IT_number       1

loop_
  _space_group_symop_operation_xyz
  'x, y, z'

loop_
  _atom_site_type_symbol
  _atom_site_label
  _atom_site_symmetry_multiplicity
  _atom_site_fract_x
  _atom_site_fract_y
  _atom_site_fract_z
  _atom_site_occupancy
  N   N1        1.0  0.6464912067823338  0.5788743062167743  0.5656242758659304  1.0000
  C   C1        1.0  0.5863428374931721  0.5788743995104015  0.5656241938201785  1.0000
  C   C2        1.0  0.5115247996930217  0.5788745298017222  0.5656240563711294  1.0000
  C   C3        1.0  0.4754132604124711  0.5072604632777956  0.669106098685692  1.0000
  C   C4        1.0  0.4027431353672698  0.5071372869911861  0.6691927916925153  1.0000
  C   C5        1.0  0.3651925642357419  0.5788746326325952  0.5656238286151718  1.0000
  C   C6        1.0  0.40201767044032105  0.6506121859906024  0.46205505971122096  1.0000
  C   C7        1.0  0.4746889832822155  0.6504887480919206  0.46214187555911623  1.0000
  C   C8        1.0  0.28798747423830934  0.5788745452508041  0.5656237333585927  1.0000
  C   C9        1.0  0.25143614704231  0.453055376623372  0.6076637022047588  1.0000
  C   C10       1.0  0.1787648579823169  0.4531741305407217  0.607572234237741  1.0000
  C   C11       1.0  0.1416551880409982  0.578874401755058  0.5656237944575215  1.0000
  C   C12       1.0  0.0668371515249892  0.5788742753980622  0.5656240432196571  1.0000
  N   N2        1.0  0.006688834902071101  0.5788742300458325  0.565624251635795  1.0000
  C   C13       1.0  0.1774930285302001  0.7045747572050755  0.5236753016815008  1.0000
  C   C14       1.0  0.2501631230601266  0.7046937112163086  0.5235836708826591  1.0000
  H   H1        1.0  0.5034085290080091  0.4518152876936532  0.7499012548284305  1.0000
  H   H2        1.0  0.37592574461925343  0.4525786724371827  0.7511017937317497  1.0000
  H   H3        1.0  0.37464853024823364  0.7051708305970783  0.3801460067967035  1.0000
  H   H4        1.0  0.5021234867129103  0.7059338122937182  0.38134699528232097  1.0000
  H   H5        1.0  0.2790304427783078  0.3540144272108014  0.6389651177419613  1.0000
  H   H6        1.0  0.1515459818818047  0.3551320470881254  0.6399048195730941  1.0000
  H   H7        1.0  0.1492820813208035  0.8026168134000973  0.4913427309314224  1.0000
  H   H8        1.0  0.2767553056964154  0.8037347485848048  0.49228221046077336  1.0000
  C   C15       1.0  0.8287306486641235  0.1552202936242253  0.5662622101108041  1.0000
  C   C16       1.0  0.8409344344284437  0.23869590246785166  0.4488766962257018  1.0000
  C   C17       1.0  0.8465941111840383  0.17419302361019873  0.33148392712577324  1.0000
  C   C18       1.0  0.8401356174702995  0.02389236020437968  0.3284752115220311  1.0000
  C   C19       1.0  0.8291566604005395  0.9394538368509924  0.445452954242278  1.0000
  C   C20       1.0  0.8244561080599704  0.002517150804732356  0.5649975519634374  1.0000
  N   N3        1.0  0.845207744951578  0.9543530570008795  0.20865875269944875  1.0000
  C   C21       1.0  0.8567861237481498  0.03224956442662097  0.08196835111645062  1.0000
  H   H9        1.0  0.8429302902088857  0.4173649912595346  0.7794062028965857  1.0000
  H   H10       1.0  0.8444794340895965  0.3553417954886382  0.44728391670357115  1.0000
  H   H11       1.0  0.8553591286297961  0.24279514926842505  0.24329810916570827  1.0000
  H   H12       1.0  0.8258760724030401  0.8230527679185122  0.4434048887728674  1.0000
  H   H13       1.0  0.8500466767782514  0.871155166502626  0.8812048354349468  1.0000
  H   H14       1.0  0.8402939752025537  0.8419859348240668  0.21135089734388468  1.0000
  H   H15       1.0  0.8136992341163176  0.11082313410394873  0.05941145013301563  1.0000
  H   H16       1.0  0.9070925324356961  0.08980130593731483  0.08217783839960346  1.0000
  H   H17       1.0  0.8585382266406615  0.9548129774751053  0.005110150543595089  1.0000
  C   C22       1.0  0.8265933916109519  0.5788687511027003  0.18438737492854274  1.0000
  C   C23       1.0  0.8152594552609117  0.4290275663043773  0.19384470025395517  1.0000
  C   C24       1.0  0.8096359008498285  0.35468045163477835  0.08158037594832912  1.0000
  C   C25       1.0  0.8152594859349106  0.42902764778067026  0.9587368011612312  1.0000
  C   C26       1.0  0.8265933902138012  0.5788686766329711  0.9468723941131176  1.0000
  C   C27       1.0  0.8322051228553756  0.6530588874147301  0.06035143519066688  1.0000
  Cl  Cl1       1.0  0.7954771240545269  0.16749321473770773  0.09489836477026303  1.0000
  H   H18       1.0  0.8308630905715823  0.635311339159923  0.5081279028001449  1.0000
  H   H19       1.0  0.8107516935576459  0.36943222801335746  0.2881313290992318  1.0000
  H   H20       1.0  0.8107517422295301  0.36943220742746125  0.8729303630560445  1.0000
  H   H21       1.0  0.8409461635736596  0.7686209065648961  0.05212933701140687  1.0000
  H   H22       1.0  0.8308629583818584  0.6353113263932033  0.6151002723378443  1.0000
  Zn  Zn1       1.0  0.7504364901631605  0.5788704325997134  0.565631760566103  1.0000
  Zn  Zn2       1.0  0.902743629660784  0.5788663356081118  0.5656273798870908  1.0000
  C   C28       1.0  0.8266208248536118  0.5731213975705853  0.8027549503927478  1.0000
  C   C29       1.0  0.8265609489763055  0.5846171908974136  0.3285043147197999  1.0000
  C   C30       1.0  0.8252605214747304  0.8423600234238784  0.5600631222061407  1.0000
  C   C31       1.0  0.8279212091277481  0.31537683174115894  0.5711962147107275  1.0000
  O   O1        1.0  0.8843498583680662  0.5865385710759861  0.37686962318779593  1.0000
  O   O2        1.0  0.8844295156838582  0.5711958195189438  0.7543859449931205  1.0000
  O   O3        1.0  0.8833302743335175  0.7886094149035188  0.5584105744308641  1.0000
  O   O4        1.0  0.8854490476942342  0.36912498601310917  0.5728448963937545  1.0000
  O   O5        1.0  0.7677310201547504  0.7886117821976848  0.5584142440541031  1.0000
  O   O6        1.0  0.7688302527575702  0.5711999201190405  0.7543895428067031  1.0000
  O   O7        1.0  0.7687505957416549  0.5865426214023495  0.3768716601933255  1.0000
  O   O8        1.0  0.7698497851170358  0.3691290260207434  0.572847030750246  1.0000
