data_image0
_chemical_formula_structural       NC8NC6H8C16H10C15H12Zn2C4O8
_chemical_formula_sum              "N2 C49 H30 Zn2 O8"
_cell_length_a       17.457602349358154
_cell_length_b       10.29914801576943
_cell_length_c       10.299157797200026
_cell_angle_alpha    85.52082761248347
_cell_angle_beta     92.89892803241439
_cell_angle_gamma    91.70309287404056

_space_group_name_H-M_alt    "P 1"
_space_group_IT_number       1

loop_
  _space_group_symop_operation_xyz
  'x, y, z'

loop_
  _atom_site_type_symbol
  _atom_site_label
  _atom_site_symmetry_multiplicity
  _atom_site_fract_x
  _atom_site_fract_y
  _atom_site_fract_z
  _atom_site_occupancy
  N   N1        1.0  0.722312601438386  0.45332825835199486  0.6258025552781572  1.0000
  C   C1        1.0  0.6612256186528412  0.4074019891536416  0.6152046975083996  1.0000
  C   C2        1.0  0.5852308320779819  0.3502754225574747  0.6020305028438813  1.0000
  C   C3        1.0  0.5267254208793509  0.3904204430875291  0.6769178584299851  1.0000
  C   C4        1.0  0.45216916357535897  0.3354121539988475  0.6643572878290098  1.0000
  C   C5        1.0  0.39007420845080765  0.3777993185554878  0.7436658897690769  1.0000
  C   C6        1.0  0.3155171824335722  0.39628438860794835  0.6878903448887488  1.0000
  C   C7        1.0  0.25701176724291624  0.436245438733387  0.762885737867127  1.0000
  C   C8        1.0  0.18101615590863224  0.4553370131334309  0.7048943060117856  1.0000
  N   N2        1.0  0.11992860002519122  0.4706802586678356  0.6582693484611528  1.0000
  C   C9        1.0  0.2725713687735651  0.4579644434598951  0.8941651352792499  1.0000
  C   C10       1.0  0.34634383686185033  0.4398682884528191  0.9503281509976796  1.0000
  C   C11       1.0  0.404837779662362  0.40008718417269945  0.8757904429015549  1.0000
  C   C12       1.0  0.43740653213198205  0.23958175480149116  0.5754766023671221  1.0000
  C   C13       1.0  0.49590035836921165  0.19971532983982201  0.5009891687961314  1.0000
  C   C14       1.0  0.5696719943669405  0.2548358553163379  0.5140996878119362  1.0000
  H   H1        1.0  0.5390957650091223  0.4656031744985832  0.7435232957421141  1.0000
  H   H2        1.0  0.3031462429637573  0.3813404429173645  0.5858637253397634  1.0000
  H   H3        1.0  0.22772854003562748  0.488833931491248  0.9529931337307744  1.0000
  H   H4        1.0  0.3582012012182178  0.45637012876588684  0.05198084478906717  1.0000
  H   H5        1.0  0.4613320015804537  0.3850816145565415  0.9219067328060746  1.0000
  H   H6        1.0  0.3809129033543563  0.19424521393885777  0.5648423843772412  1.0000
  H   H7        1.0  0.4840437043601005  0.1256494797521439  0.43318485825031194  1.0000
  H   H8        1.0  0.6145148617342718  0.22309645664823455  0.4557832101953112  1.0000
  C   C15       1.0  0.9210696725501958  0.08060059856748182  0.6421973530005833  1.0000
  C   C16       1.0  0.9035207603425842  0.0894720317697293  0.5072825616739796  1.0000
  C   C17       1.0  0.8946794311042406  0.9768427823661214  0.4387178856119549  1.0000
  C   C18       1.0  0.9036230832566159  0.8542247986290945  0.5068863025260204  1.0000
  C   C19       1.0  0.921178854013079  0.8433981981638518  0.6418864117754568  1.0000
  C   C20       1.0  0.9297954256535307  0.9570978559014899  0.7087108081658027  1.0000
  C   C21       1.0  0.8761149877730742  0.9872733027188042  0.29599432261746395  1.0000
  C   C22       1.0  0.9123942181190557  0.9078959853501821  0.21373393159870857  1.0000
  C   C23       1.0  0.8948952004658445  0.9178368383629188  0.07940582091744197  1.0000
  C   C24       1.0  0.8409371672883095  0.007047991938333498  0.02551905939413568  1.0000
  C   C25       1.0  0.8045177408032858  0.08639987653820036  0.10648398621595767  1.0000
  C   C26       1.0  0.8219620612932806  0.0766978962071674  0.2408285784894564  1.0000
  C   C27       1.0  0.8229502225023848  0.017159644072164644  0.8872181301225592  1.0000
  C   C28       1.0  0.8078863502648993  0.02562805677419734  0.7713930972040184  1.0000
  C   C29       1.0  0.7902467337227975  0.03554445283311192  0.6357631667239132  1.0000
  C   C30       1.0  0.7751853894733227  0.04401159334558026  0.5199568490808106  1.0000
  H   H9        1.0  0.9277802823151405  0.40466113934229786  0.6941022341815632  1.0000
  H   H10       1.0  0.8977208353902392  0.18428920316711347  0.45489583124319927  1.0000
  H   H11       1.0  0.8958429557177991  0.7670068281419828  0.45483249208626253  1.0000
  H   H12       1.0  0.9433291082382587  0.9495391028680469  0.8127747222700845  1.0000
  H   H13       1.0  0.95383936931758  0.6156362099494839  0.8968314970733023  1.0000
  H   H14       1.0  0.9550224883332737  0.8393412803179241  0.25306649482434596  1.0000
  H   H15       1.0  0.9235843064028254  0.8561844000377932  0.017569749381777907  1.0000
  H   H16       1.0  0.7624993922376588  0.15554594510023567  0.06583125178376115  1.0000
  H   H17       1.0  0.792378390127434  0.13792171976489476  0.30178877079151767  1.0000
  H   H18       1.0  0.7619603165650871  0.051446460552973854  0.4182691420387541  1.0000
  C   C31       1.0  0.9210353282076277  0.46210178324555345  0.26064253519415725  1.0000
  C   C32       1.0  0.8411201680736539  0.44063339255549533  0.2542998728548307  1.0000
  C   C33       1.0  0.8007650839659678  0.4296464598936905  0.13395509213166146  1.0000
  C   C34       1.0  0.8413480964377772  0.44043458987263595  0.019051276946520316  1.0000
  C   C35       1.0  0.9212131789158631  0.46189700013292395  0.023441168627340806  1.0000
  C   C36       1.0  0.9605904331355736  0.4725995076614305  0.14472905151080573  1.0000
  C   C37       1.0  0.7162768639154469  0.40695491974048986  0.12829577389163926  1.0000
  C   C38       1.0  0.6817422660013555  0.3184614399590933  0.04440533424334148  1.0000
  C   C39       1.0  0.6022353244977713  0.2972008072958501  0.039111899854681775  1.0000
  C   C40       1.0  0.5558467783597646  0.3633626868600661  0.11812559546200108  1.0000
  C   C41       1.0  0.5899709002181236  0.452683872153091  0.20100544831575398  1.0000
  C   C42       1.0  0.6694770687559998  0.4739486697959048  0.20644676855549074  1.0000
  C   C43       1.0  0.4701956565163807  0.3428082884043  0.11007596366368168  1.0000
  C   C44       1.0  0.43570428113330156  0.4350784578371467  0.009809386771618463  1.0000
  C   C45       1.0  0.4073575180722639  0.5109528309146434  0.9273637333317337  1.0000
  H   H19       1.0  0.07193192898071346  0.5018301311584645  0.4799739469429818  1.0000
  H   H20       1.0  0.810259144582101  0.43066102788035227  0.3433213087891318  1.0000
  H   H21       1.0  0.8103771498760799  0.43384454168493797  0.925892278657209  1.0000
  H   H22       1.0  0.022192787816404987  0.48915033266615193  0.14883084317623818  1.0000
  H   H23       1.0  0.9519351109718849  0.4701108593641268  0.697657577871384  1.0000
  H   H24       1.0  0.716311843634519  0.2645997704923978  0.9838791926879518  1.0000
  H   H25       1.0  0.5768244115362269  0.22893049031847257  0.9735060392494413  1.0000
  H   H26       1.0  0.5549532321123933  0.5062167821899923  0.2611501320461338  1.0000
  H   H27       1.0  0.6942625096004683  0.5442990973109104  0.2703594324429366  1.0000
  H   H28       1.0  0.4548690634715937  0.24189075389091433  0.08542127719980952  1.0000
  H   H29       1.0  0.4457754882851919  0.35718883401029133  0.2052968081228599  1.0000
  H   H30       1.0  0.3824929891357558  0.5775689514619489  0.8549857155663365  1.0000
  Zn  Zn1       1.0  0.8370559909346608  0.4583321857853069  0.6351792709559754  1.0000
  Zn  Zn2       1.0  0.005185197234301111  0.4656656795863808  0.6489032705000441  1.0000
  C   C46       1.0  0.921177130116579  0.45676150385109954  0.8792578904749296  1.0000
  C   C47       1.0  0.9210658942823928  0.4672380803373617  0.40482492765528266  1.0000
  C   C48       1.0  0.9211530667902292  0.6992144426398719  0.6367692577531483  1.0000
  C   C49       1.0  0.9210899000307756  0.22478357858229317  0.6473136255743184  1.0000
  O   O1        1.0  0.9848803093032121  0.4717392249810484  0.4584220443013567  1.0000
  O   O2        1.0  0.984968892204728  0.45782533160517325  0.8360765984546542  1.0000
  O   O3        1.0  0.9849486009687374  0.6536091080340273  0.6402652411241021  1.0000
  O   O4        1.0  0.9849005431467148  0.27595545536698163  0.654233299562615  1.0000
  O   O5        1.0  0.8573405876479991  0.64804240750356  0.6298492372032443  1.0000
  O   O6        1.0  0.8573608790877084  0.4522601915398563  0.8256605246463831  1.0000
  O   O7        1.0  0.8572722958666072  0.46617404007700824  0.448004408990474  1.0000
  O   O8        1.0  0.8572925297283501  0.2703902611470084  0.6438157616308666  1.0000
