data_image0
_chemical_formula_structural       NC8NH4C7NH3C6IH3Zn2C4O8
_chemical_formula_sum              "N3 C25 H10 I1 Zn2 O8"
_cell_length_a       14.927258825633057
_cell_length_b       9.275154477615127
_cell_length_c       9.27543390334687
_cell_angle_alpha    86.39417635758981
_cell_angle_beta     89.9656238394683
_cell_angle_gamma    89.43370909507247

_space_group_name_H-M_alt    "P 1"
_space_group_IT_number       1

loop_
  _space_group_symop_operation_xyz
  'x, y, z'

loop_
  _atom_site_type_symbol
  _atom_site_label
  _atom_site_symmetry_multiplicity
  _atom_site_fract_x
  _atom_site_fract_y
  _atom_site_fract_z
  _atom_site_occupancy
  N   N1        1.0  0.8345721428366922  0.5610504433321275  0.4167306551210841  1.0000
  C   C1        1.0  0.7570457186473655  0.561050416988282  0.41673066466579756  1.0000
  C   C2        1.0  0.6606130768792512  0.5610504172841988  0.4167307197311158  1.0000
  C   C3        1.0  0.6141424506507289  0.4717988313897863  0.32666640616808107  1.0000
  C   C4        1.0  0.5204311396589588  0.471798741273022  0.32666637735540277  1.0000
  C   C5        1.0  0.47279707918319325  0.5610504693833134  0.41673063214735073  1.0000
  C   C6        1.0  0.519267705399402  0.6503020644414785  0.5067948377109919  1.0000
  C   C7        1.0  0.6129790833827239  0.6503021545553406  0.5067948665295812  1.0000
  C   C8        1.0  0.3763644380632241  0.5610503711982988  0.4167305768375273  1.0000
  N   N2        1.0  0.2988380132134389  0.5610504524991372  0.41673058875798885  1.0000
  H   H1        1.0  0.6502911696017843  0.4023558650060215  0.2565913335606558  1.0000
  H   H2        1.0  0.4851875138217555  0.4023558423702529  0.2565914306710593  1.0000
  H   H3        1.0  0.48311898644834644  0.7197450308252431  0.5768699103184174  1.0000
  H   H4        1.0  0.6482226422406887  0.719745044297259  0.5768699212074075  1.0000
  C   C9        1.0  0.06930244672068753  0.13764339583374485  0.41506310710968264  1.0000
  C   C10       1.0  0.04476828839379854  0.21947130745865048  0.28800807470933915  1.0000
  C   C11       1.0  0.012944518965010142  0.15215328365020261  0.1676833373512885  1.0000
  C   C12       1.0  0.005130668697261419  0.0020892630666950996  0.17299654771439063  1.0000
  C   C13       1.0  0.030496380014730647  0.9190228773953532  0.29715546174305163  1.0000
  C   C14       1.0  0.06411636745786531  0.9844465137480976  0.41841063219978447  1.0000
  C   C15       1.0  0.9872191974063463  0.2375467224925134  0.03909696054936829  1.0000
  N   N3        1.0  0.9665431758227911  0.3061874915527114  0.9357464507048099  1.0000
  H   H5        1.0  0.0865179574118502  0.2180761024380062  0.7687823701754217  1.0000
  H   H6        1.0  0.9801947638046222  0.948979235289748  0.08051943009158456  1.0000
  H   H7        1.0  0.07951010040382411  0.6881966799711363  0.6554125996340938  1.0000
  C   C16       1.0  0.06689420496488374  0.556544721728453  0.9935667303154759  1.0000
  C   C17       1.0  0.14943246313687217  0.5538454373981043  0.06701091652385881  1.0000
  C   C18       1.0  0.23007155787052633  0.5644326075921764  0.9909340187485114  1.0000
  C   C19       1.0  0.22946305977029935  0.5780556817788718  0.840442228286634  1.0000
  C   C20       1.0  0.14845599877869198  0.5785755626589049  0.7654689051166734  1.0000
  C   C21       1.0  0.06652459531239008  0.5655451186634137  0.8399069330842899  1.0000
  I   I1        1.0  0.35279166883392477  0.5625185486588367  0.1037108327234075  1.0000
  H   H8        1.0  0.8528217783034207  0.6419643047792061  0.09139403395896672  1.0000
  H   H9        1.0  0.2918886826221234  0.586869539786186  0.781266131836308  1.0000
  H   H10       1.0  0.9219883560813736  0.6169915960757675  0.5556347941249857  1.0000
  Zn  Zn1       1.0  0.9685492730211579  0.561046663378926  0.41673895080140566  1.0000
  Zn  Zn2       1.0  0.1648609634471343  0.5610425215703606  0.41673407938887475  1.0000
  C   C22       1.0  0.06662764485746117  0.5580999158567783  0.6799078317359097  1.0000
  C   C23       1.0  0.06678472412500636  0.5639910897955029  0.1535653470306277  1.0000
  C   C24       1.0  0.06509453960039768  0.8243216115053814  0.41203542960371786  1.0000
  C   C25       1.0  0.06831777297016561  0.29776766267110677  0.42143781914434175  1.0000
  O   O1        1.0  0.14124728330829361  0.566482296873168  0.20726047086401445  1.0000
  O   O2        1.0  0.14116112320684548  0.555604473113797  0.6262085914906281  1.0000
  O   O3        1.0  0.13992211638294405  0.770581875138828  0.4098997374785962  1.0000
  O   O4        1.0  0.14248622312833037  0.35150490401479256  0.42356921687074145  1.0000
  O   O5        1.0  0.9909239463484103  0.7705842809373962  0.40990381331362813  1.0000
  O   O6        1.0  0.9921629425926644  0.5556086103910609  0.6262125973382269  1.0000
  O   O7        1.0  0.992249103818016  0.5664863654811093  0.20726274396981248  1.0000
  O   O8        1.0  0.9934880436503658  0.35150896345898075  0.423571597975934  1.0000
