data_image0
_chemical_formula_structural       NC8NC6H8C9H10C8NH11Zn2C4O8
_chemical_formula_sum              "N3 C35 H29 Zn2 O8"
_cell_length_a       17.457602349358154
_cell_length_b       9.272676604525723
_cell_length_c       9.275652972338538
_cell_angle_alpha    86.18554014345204
_cell_angle_beta     93.30040864466163
_cell_angle_gamma    92.2282679722568

_space_group_name_H-M_alt    "P 1"
_space_group_IT_number       1

loop_
  _space_group_symop_operation_xyz
  'x, y, z'

loop_
  _atom_site_type_symbol
  _atom_site_label
  _atom_site_symmetry_multiplicity
  _atom_site_fract_x
  _atom_site_fract_y
  _atom_site_fract_z
  _atom_site_occupancy
  N   N1        1.0  0.7245327080307804  0.60330913315445  0.4827811262291737  1.0000
  C   C1        1.0  0.663143956214401  0.5522171329356702  0.47074795265228997  1.0000
  C   C2        1.0  0.5867738417498237  0.48866510433110066  0.45578930996837697  1.0000
  C   C3        1.0  0.5288135567153659  0.5338433295326304  0.5391648505324491  1.0000
  C   C4        1.0  0.4538964252569892  0.4726488244502687  0.5248997916448697  1.0000
  C   C5        1.0  0.39237806558208244  0.5203521870281127  0.6131969650039304  1.0000
  C   C6        1.0  0.3176850890774039  0.540442736898386  0.551380919577354  1.0000
  C   C7        1.0  0.2597242364187352  0.5854174862286865  0.6348753361809816  1.0000
  C   C8        1.0  0.18358655970308294  0.6061641727419773  0.5706026790157643  1.0000
  N   N2        1.0  0.12238474830081243  0.6228374235970602  0.5189275961419748  1.0000
  C   C9        1.0  0.275967887279006  0.6105756145395465  0.7807517177799379  1.0000
  C   C10       1.0  0.3498801377313967  0.5909200733323894  0.8430002063180979  1.0000
  C   C11       1.0  0.4078324845579482  0.5461487932668792  0.760014970920349  1.0000
  C   C12       1.0  0.4382178717925132  0.3655127752210292  0.42566456448705914  1.0000
  C   C13       1.0  0.4961698413849588  0.3206471296846829  0.3427346489910237  1.0000
  C   C14       1.0  0.5703053357368352  0.38197062988656416  0.3576109287918907  1.0000
  H   H1        1.0  0.5418890803287568  0.6178711350714399  0.6135493757713879  1.0000
  H   H2        1.0  0.3047933284277964  0.5230401752252467  0.4380211962357187  1.0000
  H   H3        1.0  0.23154956377578623  0.6453251921020468  0.8462437595905596  1.0000
  H   H4        1.0  0.3622654154094089  0.6100499733387361  0.9559538485480488  1.0000
  H   H5        1.0  0.46444066592186106  0.5298465717739893  0.8111272809160487  1.0000
  H   H6        1.0  0.3814256096159731  0.3150754747507698  0.41359445301136666  1.0000
  H   H7        1.0  0.48360910180715655  0.23785033896207186  0.2670255977218705  1.0000
  H   H8        1.0  0.6147210355533528  0.34625891461511227  0.2926817317361729  1.0000
  C   C15       1.0  0.9212797208625144  0.1894654473655344  0.4988150688525872  1.0000
  C   C16       1.0  0.8910319997762107  0.25288703934817325  0.6154413765581999  1.0000
  C   C17       1.0  0.8678224019027834  0.1684419000292452  0.736229877314022  1.0000
  C   C18       1.0  0.8741122376168426  0.01805313544563459  0.744459499967387  1.0000
  C   C19       1.0  0.9030976745314968  0.9531124094192132  0.626607982974447  1.0000
  C   C20       1.0  0.9256450912624307  0.03667040868976935  0.5029067552532949  1.0000
  C   C21       1.0  0.8482206815146325  0.9341027131023482  0.8805689344818741  1.0000
  C   C22       1.0  0.8093630837373907  0.7860039089238777  0.8626872076306735  1.0000
  C   C23       1.0  0.8906722354217257  0.7978508803633919  0.9310632149263312  1.0000
  H   H9        1.0  0.9373732145360729  0.4874833624596189  0.26408068791954564  1.0000
  H   H10       1.0  0.8869806981550008  0.3692097739367122  0.6149347362033071  1.0000
  H   H11       1.0  0.845445855634674  0.22140275661635214  0.8247625165305313  1.0000
  H   H12       1.0  0.9067654559923822  0.8369011554711757  0.6282796913793182  1.0000
  H   H13       1.0  0.9441393948557458  0.9583749088243311  0.15165460830069177  1.0000
  H   H14       1.0  0.8268555657323597  0.9937909472573601  0.9693811485970776  1.0000
  H   H15       1.0  0.8053564282803094  0.7458135657533209  0.7524395782600408  1.0000
  H   H16       1.0  0.7652072987751685  0.7556168890169493  0.9418305443234335  1.0000
  H   H17       1.0  0.9360335039011397  0.7647279058130156  0.862433372301245  1.0000
  H   H18       1.0  0.8940358396616008  0.7743818251957172  0.05018790716166442  1.0000
  C   C24       1.0  0.9217388739107817  0.6101725663948505  0.07742131504659411  1.0000
  C   C25       1.0  0.8724308325295684  0.7020878239669911  0.139500151679903  1.0000
  C   C26       1.0  0.8292277216905402  0.8027181744347291  0.053323185826253276  1.0000
  C   C27       1.0  0.8342885110189008  0.8099926480201571  0.903028254565529  1.0000
  C   C28       1.0  0.8819065922271915  0.718058636078966  0.8393880808587211  1.0000
  C   C29       1.0  0.925185935462481  0.6159633142465454  0.9243004829690887  1.0000
  C   C30       1.0  0.7758550534027481  0.8987619966106151  0.12144821410172368  1.0000
  C   C31       1.0  0.6965579048237377  0.8244062210397471  0.13472370110853826  1.0000
  N   N3        1.0  0.644992467095296  0.9193353459481451  0.19867183931719534  1.0000
  H   H19       1.0  0.9769043918781962  0.39861262297584465  0.37810580887671413  1.0000
  H   H20       1.0  0.8687584858912495  0.6978951997482377  0.25597653046306235  1.0000
  H   H21       1.0  0.8006481167203885  0.8860209856787893  0.8347275704119612  1.0000
  H   H22       1.0  0.8833245309475172  0.7243220091554794  0.7225240535462105  1.0000
  H   H23       1.0  0.029784437651486643  0.489009778286724  0.6627473041059395  1.0000
  H   H24       1.0  0.8000274225900511  0.9252888842997091  0.23046922369799283  1.0000
  H   H25       1.0  0.770245725506173  0.002605966087831033  0.055083314346607404  1.0000
  H   H26       1.0  0.6724319120365962  0.799040344764933  0.025294805704050738  1.0000
  H   H27       1.0  0.7014447449900802  0.7213564990711645  0.20290975515859008  1.0000
  H   H28       1.0  0.5905202145500906  0.8682322816053887  0.19791436451450006  1.0000
  H   H29       1.0  0.6630063269014699  0.9274378290399351  0.3074598905792618  1.0000
  Zn  Zn1       1.0  0.8393442267630457  0.6089407644358711  0.49322052361757057  1.0000
  Zn  Zn2       1.0  0.0075732024291619284  0.6171940459022013  0.5084999470867905  1.0000
  C   C32       1.0  0.924503023546916  0.6091219480972083  0.7641942815779905  1.0000
  C   C33       1.0  0.9224162526548962  0.617014773441656  0.23752650629550318  1.0000
  C   C34       1.0  0.9247925824742449  0.8764911637963023  0.49638689454135876  1.0000
  C   C35       1.0  0.9221266277055573  0.3496438223355991  0.5053339566247472  1.0000
  O   O1        1.0  0.9864855742550527  0.6224368646754712  0.2970577022408349  1.0000
  O   O2        1.0  0.9881155946270174  0.6099628154569336  0.7162593941614432  1.0000
  O   O3        1.0  0.9883485626046182  0.8258668065094315  0.5000029634245073  1.0000
  O   O4        1.0  0.9862525484854044  0.40653288038658997  0.5133140196972312  1.0000
  O   O5        1.0  0.8606648232984871  0.8196019271365611  0.48840644578543535  1.0000
  O   O6        1.0  0.8604318639345806  0.6036996686761043  0.7046628080080646  1.0000
  O   O7        1.0  0.858801836298227  0.6161736557745676  0.28545938220287526  1.0000
  O   O8        1.0  0.8585688109123105  0.40026966190714813  0.5017158077181172  1.0000
