data_image0
_chemical_formula_structural       NC6NCNCH5C9H8C6NH7Zn2C4O8
_chemical_formula_sum              "N4 C27 H20 Zn2 O8"
_cell_length_a       14.933214217465613
_cell_length_b       9.275152443626249
_cell_length_c       9.274774538082514
_cell_angle_alpha    84.86265069898316
_cell_angle_beta     90.31607823643775
_cell_angle_gamma    90.60755784757023

_space_group_name_H-M_alt    "P 1"
_space_group_IT_number       1

loop_
  _space_group_symop_operation_xyz
  'x, y, z'

loop_
  _atom_site_type_symbol
  _atom_site_label
  _atom_site_symmetry_multiplicity
  _atom_site_fract_x
  _atom_site_fract_y
  _atom_site_fract_z
  _atom_site_occupancy
  N   N1        1.0  0.8470821367831641  0.5935889416363123  0.40167039552730244  1.0000
  C   C1        1.0  0.7695943552973705  0.5945946723534541  0.4006751983391481  1.0000
  C   C2        1.0  0.6731990041669826  0.5958485627866392  0.39943431089611314  1.0000
  C   C3        1.0  0.6251365430869443  0.499215994027592  0.4950739389989945  1.0000
  C   C4        1.0  0.5316058104389745  0.5003086998752173  0.4939924904758504  1.0000
  C   C5        1.0  0.4852350485350705  0.5979786087912844  0.39732621769853393  1.0000
  C   C6        1.0  0.3886542788147671  0.5958507384088243  0.39943222999811034  1.0000
  N   N2        1.0  0.3111642625352413  0.5940756276542766  0.40118873587132686  1.0000
  C   C7        1.0  0.5333992821722049  0.6958313822762927  0.30047905007192677  1.0000
  N   N3        1.0  0.48833770600316273  0.7973479361793745  0.20000589127663204  1.0000
  C   C8        1.0  0.6274079715793147  0.6937637695999852  0.3025255325788372  1.0000
  H   H1        1.0  0.6599464289778282  0.42302771270248907  0.5704793107897437  1.0000
  H   H2        1.0  0.4953362689840262  0.42476132736077304  0.5687634122618708  1.0000
  H   H3        1.0  0.5248699276045826  0.869048683941756  0.12904185869150098  1.0000
  H   H4        1.0  0.41860953788397504  0.8027494821406636  0.19465991936476956  1.0000
  H   H5        1.0  0.6648000761424921  0.7685510126630899  0.22850676655008018  1.0000
  C   C9        1.0  0.07649135023762654  0.17018438408748615  0.40290581727786345  1.0000
  C   C10       1.0  0.043729149963512404  0.2539569043197851  0.2803239999460374  1.0000
  C   C11       1.0  0.019282298030526498  0.18957738423040738  0.15543787893355976  1.0000
  C   C12       1.0  0.02721187177482753  0.04028527742328469  0.15066076493465763  1.0000
  C   C13       1.0  0.058219092588039076  0.9548317915989839  0.27220814107006497  1.0000
  C   C14       1.0  0.08176359297136943  0.01746897888018361  0.3999658234211958  1.0000
  C   C15       1.0  0.0024671171455845626  0.974235955097054  0.02133273924013346  1.0000
  C   C16       1.0  0.9817491302415112  0.9189018365720106  0.9130407929816283  1.0000
  C   C17       1.0  0.9566119393283057  0.851751673269261  0.7816475079933096  1.0000
  H   H6        1.0  0.20624213158324237  0.24946247444245473  0.6910159423135138  1.0000
  H   H7        1.0  0.03901031771361563  0.3704733944296177  0.2798749020260034  1.0000
  H   H8        1.0  0.994990846109955  0.25660546226907144  0.061987359703351785  1.0000
  H   H9        1.0  0.06197433360856322  0.8385607517674004  0.26817795781491394  1.0000
  H   H10       1.0  0.16626179004006925  0.7205418290171048  0.597027883414055  1.0000
  H   H11       1.0  0.9730327459320468  0.7349296773875822  0.7951140382905706  1.0000
  H   H12       1.0  0.8836535637022549  0.8644297492168981  0.7619644916742541  1.0000
  H   H13       1.0  0.9940797267975213  0.9049528237090272  0.6881855971296407  1.0000
  C   C18       1.0  0.07754334827029119  0.5975148076049908  0.9776083885908892  1.0000
  C   C19       1.0  0.14152546166823732  0.6827157139880227  0.043983640459888125  1.0000
  C   C20       1.0  0.2094510455512001  0.7560370082121148  0.9628945318965157  1.0000
  C   C21       1.0  0.21394302833059864  0.7444901867157194  0.813952462677094  1.0000
  C   C22       1.0  0.15026798891661752  0.6624676269149528  0.7458633227041056  1.0000
  C   C23       1.0  0.08071157965479858  0.5901384819296032  0.8252632857561193  1.0000
  N   N4        1.0  0.274459933462295  0.8410382865257171  0.03227465842163224  1.0000
  H   H14       1.0  0.9419353572793286  0.31535887153261344  0.10464617470577342  1.0000
  H   H15       1.0  0.13995611991311563  0.6895561874481635  0.1599817013435807  1.0000
  H   H16       1.0  0.2663816034462452  0.8002835895599781  0.7501742236421727  1.0000
  H   H17       1.0  0.15423616173205476  0.6584588733081576  0.6297000533153136  1.0000
  H   H18       1.0  0.986651955531538  0.4044855415517381  0.5599217759073802  1.0000
  H   H19       1.0  0.27191583537910735  0.8500824577567644  0.14361588858374286  1.0000
  H   H20       1.0  0.32559893874195267  0.8956958489554424  0.9727903819431009  1.0000
  Zn  Zn1       1.0  0.9810062212526452  0.5937254450956162  0.40153975567256595  1.0000
  Zn  Zn2       1.0  0.17724013405818007  0.5939271858266872  0.4013312690271986  1.0000
  C   C24       1.0  0.08007496148238126  0.5857855570738609  0.66505830568874  1.0000
  C   C25       1.0  0.07817354855283498  0.6018688950972046  0.13781285207578375  1.0000
  C   C26       1.0  0.08074091541218656  0.857364169640006  0.39477024549585016  1.0000
  C   C27       1.0  0.07750751716436759  0.33028854851346257  0.4081009953011494  1.0000
  O   O1        1.0  0.15285475758913325  0.6034004323399931  0.19149983575055418  1.0000
  O   O2        1.0  0.15433074339677244  0.5844060516579404  0.6112126737835255  1.0000
  O   O3        1.0  0.15486751133858856  0.8037092017941005  0.39295314870649656  1.0000
  O   O4        1.0  0.15231792234572095  0.3840972933968283  0.4097592526473388  1.0000
  O   O5        1.0  0.005928366000081728  0.8035553374582669  0.3931117721159749  1.0000
  O   O6        1.0  0.005391608551905458  0.5842539212724955  0.6113712142240773  1.0000
  O   O7        1.0  0.0039156160052955516  0.6032482667815247  0.19165664113105496  1.0000
  O   O8        1.0  0.003378781098457348  0.38394511657815666  0.4099161662716331  1.0000
