data_image0
_chemical_formula_structural       NC9NC4H8C6NO2H5C7F3H3Zn2C4O8
_chemical_formula_sum              "N3 C30 H16 O10 F3 Zn2"
_cell_length_a       16.32274767691083
_cell_length_b       9.273392599741051
_cell_length_c       9.272721663655245
_cell_angle_alpha    86.00529282621046
_cell_angle_beta     89.98655041730063
_cell_angle_gamma    88.93063911827517

_space_group_name_H-M_alt    "P 1"
_space_group_IT_number       1

loop_
  _space_group_symop_operation_xyz
  'x, y, z'

loop_
  _atom_site_type_symbol
  _atom_site_label
  _atom_site_symmetry_multiplicity
  _atom_site_fract_x
  _atom_site_fract_y
  _atom_site_fract_z
  _atom_site_occupancy
  N   N1        1.0  0.7540992921274098  0.5594874921299557  0.4012883663824711  1.0000
  C   C1        1.0  0.7017759425394322  0.5064691335673179  0.3408912161451674  1.0000
  C   C2        1.0  0.6367374540675652  0.44061991939312173  0.26587747262150185  1.0000
  C   C3        1.0  0.6483109020518866  0.3505499191830257  0.1632672550464651  1.0000
  C   C4        1.0  0.5689554083205299  0.30659530295418946  0.11319687211995146  1.0000
  C   C5        1.0  0.5100076204847224  0.37092191599500945  0.18648204538269766  1.0000
  C   C6        1.0  0.42007405578279194  0.35392099178362857  0.1671173502139245  1.0000
  C   C7        1.0  0.3644608882285838  0.42889776878076047  0.25252774405120304  1.0000
  C   C8        1.0  0.279755723031081  0.41436796031397827  0.23597744897954165  1.0000
  C   C9        1.0  0.22373009553957673  0.49164965666785077  0.32401266320632915  1.0000
  N   N2        1.0  0.1787044332447418  0.5537714212223923  0.3947780658076288  1.0000
  C   C10       1.0  0.24961071850818986  0.3247401181718743  0.1338793215796399  1.0000
  C   C11       1.0  0.3039019467589279  0.24986265546675598  0.04858243896326586  1.0000
  C   C12       1.0  0.38844840524760454  0.2640010971006428  0.06468677171028214  1.0000
  C   C13       1.0  0.5477400876808249  0.46471718323732647  0.29333330030318283  1.0000
  H   H1        1.0  0.7072264774278826  0.3155259296974593  0.12336447336099376  1.0000
  H   H2        1.0  0.5606771039457941  0.23298120291767635  0.02933346408577719  1.0000
  H   H3        1.0  0.3865571342829259  0.4988674099010412  0.33223266288683156  1.0000
  H   H4        1.0  0.18422173710869183  0.3127705674258452  0.12024556066568515  1.0000
  H   H5        1.0  0.28040950877220605  0.18052716463092278  0.9696001871535774  1.0000
  H   H6        1.0  0.42824351869144556  0.2041039491771135  0.9964551939905407  1.0000
  H   H7        1.0  0.531764880221967  0.42674493072082487  0.40593904191100916  1.0000
  H   H8        1.0  0.5301548457259893  0.5801609118052586  0.2689852501423826  1.0000
  C   C14       1.0  0.9688987518609377  0.13306214456129206  0.3970881865393616  1.0000
  C   C15       1.0  0.9577951962937099  0.21581843672167556  0.2655384147035873  1.0000
  C   C16       1.0  0.9394856011296026  0.15025642108830417  0.13887867036954704  1.0000
  C   C17       1.0  0.9316767979755842  0.9999524606326557  0.14023709842557364  1.0000
  C   C18       1.0  0.9440532444388559  0.9160050184315341  0.27076183731287884  1.0000
  C   C19       1.0  0.9639129554943121  0.9801855551077594  0.3989905447313222  1.0000
  N   N3        1.0  0.9120707985209987  0.9329667321760836  0.009369085480190439  1.0000
  O   O1        1.0  0.9006692663050472  0.015499557606143393  0.8815284679351044  1.0000
  O   O2        1.0  0.9048571225110816  0.7991318858253096  0.009709891315778929  1.0000
  H   H9        1.0  0.9540140977835642  0.21173012208049052  0.7512203310525356  1.0000
  H   H10       1.0  0.9613552046874015  0.33258896381884195  0.2612235842282411  1.0000
  H   H11       1.0  0.9306098894726424  0.21773663370197038  0.03991041558290242  1.0000
  H   H12       1.0  0.9401011201584063  0.7994618374184587  0.2718488530333856  1.0000
  H   H13       1.0  0.9566871201852402  0.6835410111677735  0.6382840155885712  1.0000
  C   C20       1.0  0.9642518443667195  0.5543135908894112  0.9746241397813522  1.0000
  C   C21       1.0  0.9998162700920558  0.4358653102474819  0.05654688403862895  1.0000
  C   C22       1.0  0.042511233661477466  0.3258999777441445  0.9897514485233164  1.0000
  C   C23       1.0  0.04714291421534966  0.3324791338149178  0.8385449307456168  1.0000
  C   C24       1.0  0.011110594417833781  0.4479308788892702  0.7556545855211114  1.0000
  C   C25       1.0  0.9685598799625597  0.5589341641928032  0.8214545997780656  1.0000
  C   C26       1.0  0.07832564336768444  0.19790988017036382  0.07927481529665403  1.0000
  F   F1        1.0  0.10567082493571789  0.23945960183954026  0.21117885242561862  1.0000
  F   F2        1.0  0.1439852803811814  0.1373695264390178  0.009019570229939381  1.0000
  F   F3        1.0  0.01878582235093429  0.0948965263363215  0.10299963520844169  1.0000
  H   H14       1.0  0.07792450371092707  0.24734071480833242  0.7839824752845238  1.0000
  H   H15       1.0  0.014618715690198012  0.44834493218247956  0.6389471738669545  1.0000
  H   H16       1.0  0.820099305628731  0.8041942089093219  0.7029644187200619  1.0000
  Zn  Zn1       1.0  0.8766312352303468  0.5578341317181155  0.3994179524436463  1.0000
  Zn  Zn2       1.0  0.05617262606786477  0.5554130099231674  0.3966602653267881  1.0000
  C   C27       1.0  0.9677775438493776  0.5523146393324918  0.6613726517690401  1.0000
  C   C28       1.0  0.9650282680438553  0.5609342965747158  0.13470568149432882  1.0000
  C   C29       1.0  0.9648219284291648  0.8200299319431006  0.39288530822497547  1.0000
  C   C30       1.0  0.9679838327895911  0.2932172722601336  0.40319309895996924  1.0000
  O   O3        1.0  0.03342390209344703  0.5622311701262666  0.1873839672356652  1.0000
  O   O4        1.0  0.035649675433196304  0.5491790999663275  0.606600927807974  1.0000
  O   O5        1.0  0.03326206773690732  0.7653626050376774  0.3897955157795878  1.0000
  O   O6        1.0  0.03581144791371149  0.34604767560938265  0.40418927211790706  1.0000
  O   O7        1.0  0.896992352115787  0.7671994668596391  0.39188894658601026  1.0000
  O   O8        1.0  0.8993799492178405  0.5510176943200027  0.6086942856263038  1.0000
  O   O9        1.0  0.8971541674094703  0.5640697047569516  0.18947559139351688  1.0000
  O   O10       1.0  0.8995417138370462  0.34788620051334074  0.40628100435538617  1.0000
