data_image0
_chemical_formula_structural       NC9NC5H8C6NCOCH9C7NC2NH8Zn2C4O8
_chemical_formula_sum              "N5 C35 H25 O9 Zn2"
_cell_length_a       17.807436237873137
_cell_length_b       10.300268703208214
_cell_length_c       9.27399911348925
_cell_angle_alpha    85.0628393421283
_cell_angle_beta     89.04204372891122
_cell_angle_gamma    88.37019024828581

_space_group_name_H-M_alt    "P 1"
_space_group_IT_number       1

loop_
  _space_group_symop_operation_xyz
  'x, y, z'

loop_
  _atom_site_type_symbol
  _atom_site_label
  _atom_site_symmetry_multiplicity
  _atom_site_fract_x
  _atom_site_fract_y
  _atom_site_fract_z
  _atom_site_occupancy
  N   N1        1.0  0.71204086480753  0.400040665492821  0.396316158126844  1.0000
  C   C1        1.0  0.6514978796566566  0.3649469960841074  0.3840636839146474  1.0000
  C   C2        1.0  0.5761890604140766  0.32129433620269277  0.3688229363540514  1.0000
  C   C3        1.0  0.5584690966769236  0.25078158030235076  0.2521175041424457  1.0000
  C   C4        1.0  0.4853484216491605  0.20828742933405994  0.23722788330313588  1.0000
  C   C5        1.0  0.4288991778603158  0.23592880050549647  0.33900762706943116  1.0000
  C   C6        1.0  0.3511904472669846  0.19088267057770159  0.32327503754160414  1.0000
  C   C7        1.0  0.2889094917043665  0.2724128688470111  0.35210470515457315  1.0000
  C   C8        1.0  0.2156465059551027  0.2297155723991953  0.33723029066828514  1.0000
  C   C9        1.0  0.15231368380012628  0.313933878525005  0.3664644128330544  1.0000
  N   N2        1.0  0.1014070867217517  0.38163956073272726  0.3899678396106961  1.0000
  C   C10       1.0  0.2040810688159037  0.10523032709805968  0.2934980341139666  1.0000
  C   C11       1.0  0.2655046858669978  0.023686349016071022  0.26465904178741506  1.0000
  C   C12       1.0  0.33864900754876176  0.0659908571718808  0.27930834550552697  1.0000
  C   C13       1.0  0.4473097013841191  0.30693402237013045  0.45595672134957926  1.0000
  C   C14       1.0  0.5204838153044014  0.3492391205257872  0.4706733442966089  1.0000
  H   H1        1.0  0.6011124380426504  0.22891133291335342  0.17241228546560766  1.0000
  H   H2        1.0  0.47272866040752826  0.15531757391925982  0.14506591623226717  1.0000
  H   H3        1.0  0.2972892125320402  0.36962586376332446  0.3841999087577992  1.0000
  H   H4        1.0  0.147658898699382  0.07128661333188636  0.28172241393309294  1.0000
  H   H5        1.0  0.2564305390323168  0.9273036902266871  0.23122963701208324  1.0000
  H   H6        1.0  0.3853678009689371  0.00041205156854395543  0.2581371240694592  1.0000
  H   H7        1.0  0.40537894535952956  0.3282541648513695  0.5371007138079755  1.0000
  H   H8        1.0  0.5336352244397352  0.4034384196976925  0.5616775905733435  1.0000
  C   C15       1.0  0.9068038661578706  0.009488640705758831  0.3931492490105766  1.0000
  C   C16       1.0  0.919929120506895  0.019431076265436824  0.24290016856935281  1.0000
  C   C17       1.0  0.9275668825444802  0.9070898847695288  0.16748118276905125  1.0000
  C   C18       1.0  0.9197590463821063  0.7842793125658264  0.24293894875073518  1.0000
  C   C19       1.0  0.9066512117278057  0.7721812113807213  0.39314714650445537  1.0000
  C   C20       1.0  0.9005253900100465  0.8853775091359107  0.46754237177729596  1.0000
  N   N3        1.0  0.9398361416006911  0.9157370101139686  0.013308940749527712  1.0000
  C   C21       1.0  0.9841800156248002  0.01335724388660474  0.9350314112419548  1.0000
  O   O1        1.0  0.026398597066400235  0.08383476049525385  0.0009934960110729038  1.0000
  C   C22       1.0  0.9847058174572506  0.025486374652015087  0.7733379035297352  1.0000
  H   H9        1.0  0.9007222022461625  0.3332114607800307  0.4499528641559363  1.0000
  H   H10       1.0  0.9227253213311315  0.11460865594322046  0.1841374433317362  1.0000
  H   H11       1.0  0.9246036672030548  0.6981514662219321  0.18377866834280798  1.0000
  H   H12       1.0  0.8904227302798182  0.8768988751102168  0.5834309388416091  1.0000
  H   H13       1.0  0.9005745122534773  0.44026816392529566  0.4497416901050904  1.0000
  H   H14       1.0  0.9193191807620645  0.8417373969051972  0.955650391793113  1.0000
  H   H15       1.0  0.9273290951684807  0.011483797863094157  0.7333531376483379  1.0000
  H   H16       1.0  0.0034610911750430047  0.12359001139223591  0.730946009635392  1.0000
  H   H17       1.0  0.023606524815566566  0.9502340442164539  0.7329721176570319  1.0000
  C   C23       1.0  0.908024451815907  0.3940972021117056  0.9692756532392988  1.0000
  C   C24       1.0  0.9670138237834569  0.32912649996623555  0.04679878472370791  1.0000
  C   C25       1.0  0.02103177142925139  0.25514560951154963  0.9772663325590445  1.0000
  C   C26       1.0  0.017512290756493964  0.24360063117606076  0.8280273902363706  1.0000
  C   C27       1.0  0.9596532124996916  0.3107109550630152  0.7489271731586329  1.0000
  C   C28       1.0  0.9054306382886201  0.3875726301564982  0.8170207141859535  1.0000
  C   C29       1.0  0.07518685185992036  0.16320829226535372  0.7563919727483999  1.0000
  N   N4        1.0  0.1381110903590026  0.11486059346690136  0.8234051397058249  1.0000
  C   C30       1.0  0.1744945320080586  0.04816382623360949  0.7234893317438407  1.0000
  C   C31       1.0  0.13345416656287035  0.05657530366939878  0.5986163418995161  1.0000
  N   N5        1.0  0.07099676659423035  0.1288689824887714  0.6194673000456394  1.0000
  H   H18       1.0  0.8280164062370958  0.5617905200762676  0.23715631011121152  1.0000
  H   H19       1.0  0.9704164109229368  0.33283015733764953  0.1628944373463137  1.0000
  H   H20       1.0  0.06510122176424993  0.2052232620250234  0.041275832316000516  1.0000
  H   H21       1.0  0.9577954668785357  0.3072850043784803  0.632852487024254  1.0000
  H   H22       1.0  0.7881921634293303  0.4664066660902895  0.5331696000477462  1.0000
  H   H23       1.0  0.22765219676827098  0.9962260977070121  0.7409913836530704  1.0000
  H   H24       1.0  0.14788399437180555  0.012531108708574873  0.49968866016032815  1.0000
  H   H25       1.0  0.028489051711996446  0.15056148791600732  0.5444548293306464  1.0000
  Zn  Zn1       1.0  0.8244035196375447  0.39472697477062146  0.3944925184153649  1.0000
  Zn  Zn2       1.0  0.9890443795055802  0.3869425744414602  0.3918033458735078  1.0000
  C   C32       1.0  0.9059202832074372  0.3836325511334243  0.6567788214869389  1.0000
  C   C33       1.0  0.9075294130473573  0.39803855052662723  0.1295171551043801  1.0000
  C   C34       1.0  0.9066938088400605  0.6280605135109938  0.3873956736649482  1.0000
  C   C35       1.0  0.9067558313111163  0.15360902998268378  0.39890038080355583  1.0000
  O   O2        1.0  0.9698436229351259  0.39640149822396076  0.18227514000510908  1.0000
  O   O3        1.0  0.9685646778967203  0.3793604472257958  0.601979401341592  1.0000
  O   O4        1.0  0.9691884627704622  0.57673914633102  0.38445061729856655  1.0000
  O   O5        1.0  0.9692197822098901  0.19902281189777482  0.39980381673864884  1.0000
  O   O6        1.0  0.8442280607494127  0.5826467399722126  0.3864920484603138  1.0000
  O   O7        1.0  0.8436042757954659  0.3852696016912684  0.6040207555362451  1.0000
  O   O8        1.0  0.8448832262026923  0.40231062078965896  0.1843147587799834  1.0000
  O   O9        1.0  0.844259385145128  0.20493192434234023  0.4018435437330996  1.0000
