data_image0
_chemical_formula_structural       NC6NCNCH5C7NH3C6BrH4Zn2C4O8
_chemical_formula_sum              "N4 C25 H12 Br1 Zn2 O8"
_cell_length_a       14.933214217465613
_cell_length_b       9.275154477615127
_cell_length_c       9.27656775626242
_cell_angle_alpha    86.34818767424132
_cell_angle_beta     90.1519400802072
_cell_angle_gamma    89.46799387830556

_space_group_name_H-M_alt    "P 1"
_space_group_IT_number       1

loop_
  _space_group_symop_operation_xyz
  'x, y, z'

loop_
  _atom_site_type_symbol
  _atom_site_label
  _atom_site_symmetry_multiplicity
  _atom_site_fract_x
  _atom_site_fract_y
  _atom_site_fract_z
  _atom_site_occupancy
  N   N1        1.0  0.8304382332196653  0.5632395479677698  0.4159776443842663  1.0000
  C   C1        1.0  0.75293992205522  0.5642263747588587  0.4149914556590142  1.0000
  C   C2        1.0  0.6565314433381609  0.565456694408528  0.41376179967945337  1.0000
  C   C3        1.0  0.609480658179478  0.47064080538756087  0.508535847389334  1.0000
  C   C4        1.0  0.5159384856044058  0.4717129690487125  0.5074641866672758  1.0000
  C   C5        1.0  0.4685451874790581  0.5675466970385312  0.41167278613825575  1.0000
  C   C6        1.0  0.3719866950720569  0.565458830466381  0.413759738157135  1.0000
  N   N2        1.0  0.2945152636588848  0.5637170848221624  0.4155003441493661  1.0000
  C   C7        1.0  0.51568497025838  0.6635598534430815  0.31570212861748265  1.0000
  N   N3        1.0  0.46956058572484977  0.7631679142999125  0.21613829779869764  1.0000
  C   C8        1.0  0.6097153059171306  0.661531113749113  0.31773009042968625  1.0000
  H   H1        1.0  0.6450881825732968  0.39588485306568927  0.5832587673219983  1.0000
  H   H2        1.0  0.4804598730214147  0.3975858741922982  0.5815583976939451  1.0000
  H   H3        1.0  0.5053421503416899  0.8335206965726776  0.14581652038993487  1.0000
  H   H4        1.0  0.3997758670349016  0.7684679132083347  0.21084070979825076  1.0000
  H   H5        1.0  0.6463244399439193  0.7349123664767696  0.24438122659971986  1.0000
  C   C9        1.0  0.0650690503045004  0.14007534151016343  0.41406892037176724  1.0000
  C   C10       1.0  0.04024037784048763  0.2219848026868738  0.28704752316464327  1.0000
  C   C11       1.0  0.008141189302468101  0.15473517390323058  0.1667634684173549  1.0000
  C   C12       1.0  0.0003432512011154461  0.004658650575610992  0.17208435894332186  1.0000
  C   C13       1.0  0.025996197654422733  0.9215140047517427  0.2962089748310761  1.0000
  C   C14       1.0  0.05989310332659483  0.9868703116445295  0.4174215546602673  1.0000
  C   C15       1.0  0.9821181682258167  0.24021022412466578  0.03821205267386695  1.0000
  N   N4        1.0  0.9612028722621305  0.30891658839222913  0.9348896420023337  1.0000
  H   H6        1.0  0.08312526658160846  0.22022846799149476  0.7677470576800257  1.0000
  H   H7        1.0  0.9751958636114185  0.9516006976877053  0.07963899913371167  1.0000
  H   H8        1.0  0.0758485631124195  0.6904371203803228  0.65439200003627  1.0000
  C   C16       1.0  0.06165164739281481  0.5593284421361924  0.9926029378634418  1.0000
  C   C17       1.0  0.9818642859236877  0.5939567282711817  0.0634330331355375  1.0000
  C   C18       1.0  0.9059835749894931  0.6404656797010808  0.9849942296609792  1.0000
  C   C19       1.0  0.9084645361104329  0.6532884646442654  0.8345465108537  1.0000
  C   C20       1.0  0.9865058736325434  0.6171008508832752  0.7619849921662993  1.0000
  C   C21       1.0  0.06331053084587371  0.5676172344941257  0.8388875122084816  1.0000
  Br  Br1       1.0  0.8046009101890494  0.7181027978478551  0.7276597202971049  1.0000
  H   H9        1.0  0.18564152544754894  0.4284954524783906  0.28279194916354605  1.0000
  H   H10       1.0  0.8454443327608687  0.6678935039088898  0.04148253951985614  1.0000
  H   H11       1.0  0.9863199214048912  0.6244657233134159  0.6449638331660195  1.0000
  H   H12       1.0  0.21074186007520002  0.5528804921826694  0.5592823100646869  1.0000
  Zn  Zn1       1.0  0.9643608801702448  0.5633735676005664  0.4158482203273628  1.0000
  Zn  Zn2       1.0  0.1605926975406342  0.5635713526946742  0.4156415544497458  1.0000
  C   C22       1.0  0.06303005253015394  0.5603065182763703  0.6788988519099974  1.0000
  C   C23       1.0  0.061925657183446114  0.5666402247904596  0.15259106924145094  1.0000
  C   C24       1.0  0.06085559899192686  0.8267517736500845  0.41104576884733884  1.0000
  C   C25       1.0  0.06410005450043221  0.30019323782411084  0.4204442223389834  1.0000
  O   O1        1.0  0.13648660784196467  0.5691628940418787  0.20620609411411553  1.0000
  O   O2        1.0  0.1374045165960178  0.5579328715657879  0.6251265533163708  1.0000
  O   O3        1.0  0.13564761692398797  0.7730907986031165  0.4088333006310674  1.0000
  O   O4        1.0  0.1382434402785463  0.3540049761930608  0.422499238870143  1.0000
  O   O5        1.0  0.9867100704680198  0.7729399440361806  0.4089905359699173  1.0000
  O   O6        1.0  0.988466959396977  0.5577837485254871  0.6252837186832985  1.0000
  O   O7        1.0  0.9875490476137527  0.5690137037897154  0.20636152685285983  1.0000
  O   O8        1.0  0.989305880321469  0.35385577668638785  0.42265477960111564  1.0000
