data_image0
_chemical_formula_structural       NC9NC3NH7C6SCNH4C7NC2NH8Zn2C4O8
_chemical_formula_sum              "N6 C32 H19 S1 Zn2 O8"
_cell_length_a       16.053384444249904
_cell_length_b       10.302215558581763
_cell_length_c       9.27399911348925
_cell_angle_alpha    85.06957531056571
_cell_angle_beta     89.45501548333611
_cell_angle_gamma    89.19414689339631

_space_group_name_H-M_alt    "P 1"
_space_group_IT_number       1

loop_
  _space_group_symop_operation_xyz
  'x, y, z'

loop_
  _atom_site_type_symbol
  _atom_site_label
  _atom_site_symmetry_multiplicity
  _atom_site_fract_x
  _atom_site_fract_y
  _atom_site_fract_z
  _atom_site_occupancy
  N   N1        1.0  0.7901743997165976  0.41596452909889486  0.4048008986204896  1.0000
  C   C1        1.0  0.7397011871931041  0.39580325094184937  0.3216142723886024  1.0000
  C   C2        1.0  0.6769766443592122  0.3707524717118287  0.21827620306031403  1.0000
  C   C3        1.0  0.6910913582132786  0.3598051362624064  0.07298077830083116  1.0000
  C   C4        1.0  0.6146616572955227  0.3349352292275025  0.014904153802707933  1.0000
  C   C5        1.0  0.5571769160279435  0.3320945578498111  0.1278995493621542  1.0000
  C   C6        1.0  0.4665586158612634  0.3083678136312866  0.11650857960228556  1.0000
  C   C7        1.0  0.4103125789411453  0.3502596199277965  0.2208799231783971  1.0000
  C   C8        1.0  0.3247967835675715  0.32775784592391943  0.2099695539383779  1.0000
  C   C9        1.0  0.2677619753497265  0.37137359864797564  0.31697719560037707  1.0000
  N   N2        1.0  0.2219227088361293  0.40643452624022713  0.40299458175692565  1.0000
  C   C10       1.0  0.2948009189902116  0.26325219288539703  0.09470306458028332  1.0000
  C   C11       1.0  0.3500376198011652  0.22147814406210256  0.9905669796913572  1.0000
  C   C12       1.0  0.43534893109495  0.24381765525420507  0.001036575149448776  1.0000
  N   N3        1.0  0.5959437205454184  0.3540988334855961  0.2518820602653873  1.0000
  H   H1        1.0  0.7500250814405296  0.3688829566453595  0.01561695295161258  1.0000
  H   H2        1.0  0.6027853536322233  0.3220378110469758  0.9024584158353548  1.0000
  H   H3        1.0  0.4323362526749521  0.40201646770469646  0.30957250029709416  1.0000
  H   H4        1.0  0.2288070888390841  0.24536295041399492  0.08532913475017478  1.0000
  H   H5        1.0  0.3267248534573771  0.1713646397741814  0.9016147051719844  1.0000
  H   H6        1.0  0.4767407799660174  0.2090143087726979  0.9196262678560467  1.0000
  H   H7        1.0  0.5694254536344506  0.3556661346605525  0.35497287672725314  1.0000
  C   C13       1.0  0.00596991871518715  0.029929380308701077  0.4038583210869502  1.0000
  C   C14       1.0  0.08930917924715764  0.023664081114586958  0.44892625162231736  1.0000
  C   C15       1.0  0.13078082819670112  0.9035019655771446  0.4718104258303711  1.0000
  C   C16       1.0  0.08952530311671159  0.7884831490042005  0.44904756040582927  1.0000
  C   C17       1.0  0.006135071423780673  0.7924594206380987  0.403949547701209  1.0000
  C   C18       1.0  0.9648057767994827  0.9136883571537879  0.3816585064542908  1.0000
  S   S1        1.0  0.2372575176357712  0.8970258304296498  0.5287466814079167  1.0000
  C   C19       1.0  0.20914427239983335  0.883371326024123  0.7138197579397452  1.0000
  N   N4        1.0  0.19068820425292002  0.8744205845530605  0.8351510967431867  1.0000
  H   H8        1.0  0.1223248481006387  0.11176898852202831  0.4666977754454314  1.0000
  H   H9        1.0  0.1226891156147931  0.6963023797338018  0.4669023092006788  1.0000
  H   H10       1.0  0.9005310698114064  0.9176705903758963  0.34692056438293584  1.0000
  H   H11       1.0  0.8489807399423913  0.5927475440225729  0.31879639829038786  1.0000
  C   C20       1.0  0.0074920393688597845  0.41448555753626115  0.9800469439136431  1.0000
  C   C21       1.0  0.07287507234792145  0.35087180080886493  0.058250426465128013  1.0000
  C   C22       1.0  0.13274149296884774  0.2781365169195819  0.9893391808422196  1.0000
  C   C23       1.0  0.1288337853127619  0.2665137941628908  0.8400577232129264  1.0000
  C   C24       1.0  0.06470503891341696  0.33229246743614155  0.7602906134174274  1.0000
  C   C25       1.0  0.00461297733049659  0.40790327530778886  0.8277609190693904  1.0000
  C   C26       1.0  0.19275210210180305  0.18745167271476104  0.7690853882695365  1.0000
  N   N5        1.0  0.262505678203367  0.14054706494711944  0.836826902896116  1.0000
  C   C27       1.0  0.3028209249202858  0.07469278445071613  0.7373274006882582  1.0000
  C   C28       1.0  0.2573161988631923  0.08216787124003179  0.6119764848201528  1.0000
  N   N6        1.0  0.18809078610354524  0.1530240984838629  0.6321075305431378  1.0000
  H   H12       1.0  0.9188470814665007  0.580321844007821  0.24701475720060984  1.0000
  H   H13       1.0  0.0766497219081661  0.35465217523463566  0.1743862520787212  1.0000
  H   H14       1.0  0.18158687678329818  0.22922819724503585  0.053856780792026715  1.0000
  H   H15       1.0  0.06264353895611419  0.32882492341250513  0.644193818517111  1.0000
  H   H16       1.0  0.8746453627548513  0.4840509336152535  0.5425513675819436  1.0000
  H   H17       1.0  0.3617430698785127  0.02397647529638514  0.7554433684300679  1.0000
  H   H18       1.0  0.2732976832413314  0.03846147759337449  0.5132117174167492  1.0000
  H   H19       1.0  0.14096478454384442  0.1737440276646416  0.5566016651969039  1.0000
  Zn  Zn1       1.0  0.9147676041491996  0.4132108488423232  0.4042879617887567  1.0000
  Zn  Zn2       1.0  0.0973294385873924  0.4091775372405011  0.4035193140980877  1.0000
  C   C29       1.0  0.005154201987110254  0.403975168673004  0.6675242494764315  1.0000
  C   C30       1.0  0.006944834192763816  0.4184148104608551  0.14028315988028894  1.0000
  C   C31       1.0  0.006119122370006333  0.6483697898702467  0.39818061755491985  1.0000
  C   C32       1.0  0.0059798509150166285  0.17401863014439578  0.4096268688298548  1.0000
  O   O1        1.0  0.07604245065018334  0.4181972186311367  0.19376819926390354  1.0000
  O   O2        1.0  0.07461679487393647  0.4011305940791825  0.6134554086676576  1.0000
  O   O3        1.0  0.07539504124441909  0.5984823504677514  0.395958524334014  1.0000
  O   O4        1.0  0.07526414235327983  0.22084547374700159  0.41126497563782194  1.0000
  O   O5        1.0  0.9368328380839439  0.6015429137136665  0.39654230050373257  1.0000
  O   O6        1.0  0.9360545923089448  0.40419271782215754  0.6140391080640313  1.0000
  O   O7        1.0  0.937480254024526  0.42125931060325494  0.19435016329917842  1.0000
  O   O8        1.0  0.9367019453546747  0.22390755559252984  0.41184704788753207  1.0000
