data_image0
_chemical_formula_structural       NC6NCNCH5C7NH3C6H4Zn2C4O8
_chemical_formula_sum              "N4 C25 H12 Zn2 O8"
_cell_length_a       14.933214217465613
_cell_length_b       9.275154477615127
_cell_length_c       10.681121600428286
_cell_angle_alpha    85.78691594316618
_cell_angle_beta     89.96595612778619
_cell_angle_gamma    89.46799387830556

_space_group_name_H-M_alt    "P 1"
_space_group_IT_number       1

loop_
  _space_group_symop_operation_xyz
  'x, y, z'

loop_
  _atom_site_type_symbol
  _atom_site_label
  _atom_site_symmetry_multiplicity
  _atom_site_fract_x
  _atom_site_fract_y
  _atom_site_fract_z
  _atom_site_occupancy
  N   N1        1.0  0.8335432463997852  0.5787538286427925  0.6233550914450925  1.0000
  C   C1        1.0  0.7560468683702974  0.5797503143939509  0.6224980128295796  1.0000
  C   C2        1.0  0.6596408000346391  0.5809926775781906  0.6214293412685152  1.0000
  C   C3        1.0  0.6124042380362356  0.4852485496522197  0.7037957357707136  1.0000
  C   C4        1.0  0.5188641661390077  0.48633120940591135  0.7028643750033043  1.0000
  C   C5        1.0  0.4716586390764423  0.5831031404891349  0.6196138177405821  1.0000
  C   C6        1.0  0.3750960558095475  0.5809948338270694  0.6214275496371072  1.0000
  N   N2        1.0  0.29762121244670947  0.5792360402858865  0.6229402785253765  1.0000
  C   C7        1.0  0.5189865442995227  0.680056255671454  0.53620747149916  1.0000
  N   N3        1.0  0.4730573255765378  0.7806394676749382  0.4496783639477562  1.0000
  C   C8        1.0  0.6130129047314502  0.6780076536512744  0.537969936084093  1.0000
  H   H1        1.0  0.6478652899699747  0.40976074380026195  0.7687360612105473  1.0000
  H   H2        1.0  0.4832403134961191  0.41147841873959473  0.7672583010117584  1.0000
  H   H3        1.0  0.5089767354989886  0.8516809976717608  0.3885629911204109  1.0000
  H   H4        1.0  0.4032829912605893  0.7859913523833613  0.4450743269386936  1.0000
  H   H5        1.0  0.6497658177826523  0.7521073020863014  0.4742237777159173  1.0000
  C   C9        1.0  0.06817780498056264  0.1556083166688571  0.621696254254867  1.0000
  C   C10       1.0  0.043598120866421786  0.2387618547369186  0.5113042770692009  1.0000
  C   C11       1.0  0.011734714086169001  0.17269031575703525  0.40676760120655  1.0000
  C   C12       1.0  0.003926345933021436  0.02256167839910028  0.41139189001508947  1.0000
  C   C13       1.0  0.029335982330165766  0.9382013274289408  0.5192663274448497  1.0000
  C   C14       1.0  0.06299528614234352  0.002370450328934573  0.6246099675033876  1.0000
  C   C15       1.0  0.9859636805138554  0.2594244282246223  0.2950459128456515  1.0000
  N   N4        1.0  0.9652509179587407  0.3291427560377096  0.20525029216749768  1.0000
  H   H6        1.0  0.08554073856884427  0.23229743781505738  0.9290714660165318  1.0000
  H   H7        1.0  0.9789601704705602  0.9704091567092488  0.3310493156503762  1.0000
  H   H8        1.0  0.07848623458236381  0.7036163158102249  0.8305566550285486  1.0000
  C   C16       1.0  0.06558656302930799  0.5789893524369796  0.2554078638844912  1.0000
  C   C17       1.0  0.001982998874055622  0.4987369983131416  0.1937667417568378  1.0000
  C   C18       1.0  0.001982942399352482  0.49873709070238814  0.06288460217202152  1.0000
  C   C19       1.0  0.06558649220069596  0.5789894230390731  0.9908982998669433  1.0000
  C   C20       1.0  0.1291375614464232  0.6591752722166708  0.05253866027501286  1.0000
  C   C21       1.0  0.12913755012637962  0.6591752498481647  0.1834309588713696  1.0000
  H   H9        1.0  0.9521275226797296  0.43583141025839844  0.24663220079370096  1.0000
  H   H10       1.0  0.9521275035624543  0.43583147810536765  0.018128171818409648  1.0000
  H   H11       1.0  0.17899954767929144  0.7220891495464241  0.9997175592420645  1.0000
  H   H12       1.0  0.1789995028711491  0.7220890989575524  0.2281419265928808  1.0000
  Zn  Zn1       1.0  0.9674661470484271  0.5788891158846845  0.6232426113602318  1.0000
  Zn  Zn2       1.0  0.16369836952690808  0.579088925112113  0.623063001819252  1.0000
  C   C22       1.0  0.06561968547475705  0.5732456879408011  0.8518551125516194  1.0000
  C   C23       1.0  0.06554696281637495  0.5847341743939619  0.39445062783913065  1.0000
  C   C24       1.0  0.06397027967357617  0.8423143582528033  0.6190688884609821  1.0000
  C   C25       1.0  0.06719631225903289  0.31566377180338745  0.6272369127957982  1.0000
  O   O1        1.0  0.14000281687806068  0.5867317257129705  0.44104646706534395  1.0000
  O   O2        1.0  0.14009955442664868  0.5713986995377639  0.805122589605985  1.0000
  O   O3        1.0  0.13876663450337562  0.7886750526303667  0.6171460727289488  1.0000
  O   O4        1.0  0.14133566977744957  0.3694553828659624  0.6290228901430165  1.0000
  O   O5        1.0  0.9898287798334499  0.7885226580642198  0.6172827230911775  1.0000
  O   O6        1.0  0.9911616891508098  0.5712480371835729  0.805259179156893  1.0000
  O   O7        1.0  0.9910649519693616  0.5865810131166772  0.4411815508207319  1.0000
  O   O8        1.0  0.9923978049281983  0.36930465995745837  0.6291580677524784  1.0000
