data_image0
_chemical_formula_structural       NC8NH4C6NCOH7C6ClH5Zn2C4O8
_chemical_formula_sum              "N3 C25 H16 O9 Cl1 Zn2"
_cell_length_a       13.859017124695912
_cell_length_b       9.273730183620392
_cell_length_c       10.302974078461048
_cell_angle_alpha    85.70652844495697
_cell_angle_beta     89.99985762628332
_cell_angle_gamma    90.59428990829208

_space_group_name_H-M_alt    "P 1"
_space_group_IT_number       1

loop_
  _space_group_symop_operation_xyz
  'x, y, z'

loop_
  _atom_site_type_symbol
  _atom_site_label
  _atom_site_symmetry_multiplicity
  _atom_site_fract_x
  _atom_site_fract_y
  _atom_site_fract_z
  _atom_site_occupancy
  N   N1        1.0  0.919546242374687  0.5783034508229028  0.5716014046930873  1.0000
  C   C1        1.0  0.8470331720193491  0.5554440784904779  0.5209618942649044  1.0000
  C   C2        1.0  0.7568312316186416  0.5270103644658914  0.45797285245585484  1.0000
  C   C3        1.0  0.6694083169674838  0.5547303594192894  0.5193792448626897  1.0000
  C   C4        1.0  0.5816009202675042  0.5270115903039928  0.45797233349859295  1.0000
  C   C5        1.0  0.5813987951418664  0.4715653263582311  0.33514018290892644  1.0000
  C   C6        1.0  0.6686398885467407  0.443951871735972  0.2739701597706885  1.0000
  C   C7        1.0  0.7562641377085085  0.471562976872558  0.33514123884929625  1.0000
  C   C8        1.0  0.49179333973260575  0.5554450050549002  0.52096144783028  1.0000
  N   N2        1.0  0.4195973702023638  0.5783037734367489  0.5716012108742783  1.0000
  H   H1        1.0  0.6697059755195767  0.5976479339199072  0.6144542741558073  1.0000
  H   H2        1.0  0.5139520442513109  0.4497486698116488  0.2868066346157887  1.0000
  H   H3        1.0  0.6683429040445057  0.40112196348603835  0.17908767519964416  1.0000
  H   H4        1.0  0.8234082299821583  0.4497442195730936  0.28680858573231593  1.0000
  C   C9        1.0  0.16662890495953553  0.1548030072280252  0.5706354010481363  1.0000
  C   C10       1.0  0.18077886041395042  0.23829029373139576  0.45228977374928214  1.0000
  C   C11       1.0  0.20234819691454553  0.1734828700156612  0.33741104936931365  1.0000
  C   C12       1.0  0.21282668413013806  0.02302751367721068  0.3417713623376515  1.0000
  C   C13       1.0  0.19759472938597122  0.9383703847655408  0.4577819484335627  1.0000
  C   C14       1.0  0.17252388689686726  0.0017931899126375488  0.5725784744196991  1.0000
  N   N3        1.0  0.2186581318242411  0.26325995279652775  0.21932590606010757  1.0000
  C   C15       1.0  0.19455623536770328  0.2223051487208456  0.09178661309139911  1.0000
  O   O1        1.0  0.14495542958617835  0.11040363959000588  0.07602095425304588  1.0000
  H   H5        1.0  0.18175377546378169  0.23143249075660835  0.8896728259593386  1.0000
  H   H6        1.0  0.17648604395990874  0.3551168967009175  0.4494264539924084  1.0000
  H   H7        1.0  0.2337650593460847  0.9705335206910485  0.2559744957256016  1.0000
  H   H8        1.0  0.20380367130466048  0.8220788815090112  0.45706995760258357  1.0000
  H   H9        1.0  0.17857264067089892  0.7029752586084232  0.7872510064294271  1.0000
  H   H10       1.0  0.24371153720349525  0.36903340392673595  0.22645684088968385  1.0000
  H   H11       1.0  0.21696651102498765  0.29091918574766074  0.007388988618552744  1.0000
  C   C16       1.0  0.16957639194864413  0.578298096852814  0.19036442445332022  1.0000
  C   C17       1.0  0.15174990366225405  0.42851114371151205  0.19925448130511003  1.0000
  C   C18       1.0  0.14290493583584607  0.3541909373130582  0.08670869383356417  1.0000
  C   C19       1.0  0.15174994738350112  0.42851122515834317  0.9641465825208311  1.0000
  C   C20       1.0  0.16957638896934868  0.5782980224100416  0.9528494433559657  1.0000
  C   C21       1.0  0.17840275446126538  0.6524613817085505  0.06660935359297881  1.0000
  Cl  Cl1       1.0  0.12063542014263495  0.16707144863917667  0.09931802956857028  1.0000
  H   H12       1.0  0.17629187876536268  0.6347202567813159  0.5143186325677618  1.0000
  H   H13       1.0  0.14465990611014634  0.36893737461692  0.29331549423155057  1.0000
  H   H14       1.0  0.14465997339239944  0.36893735403852945  0.8781145281104128  1.0000
  H   H15       1.0  0.192151033998748  0.7679815757770412  0.05882474988696251  1.0000
  H   H16       1.0  0.17629169507226905  0.6347202440190725  0.6212910020571716  1.0000
  Zn  Zn1       1.0  0.06385017237733592  0.5782996935369629  0.5716088410971434  1.0000
  Zn  Zn2       1.0  0.2752933506857169  0.5782957664294358  0.571604395628976  1.0000
  C   C22       1.0  0.1695342376146487  0.5725528239574356  0.8087102414478773  1.0000
  C   C23       1.0  0.16961160706586553  0.5840444556120112  0.33450312682824385  1.0000
  C   C24       1.0  0.17140462287125624  0.8416939809060344  0.5670377033703256  1.0000
  C   C25       1.0  0.16774113759924125  0.3149015659878781  0.576175730148152  1.0000
  O   O2        1.0  0.24986496601426933  0.585965204124688  0.38287569060321647  1.0000
  O   O3        1.0  0.24976135096814245  0.5706280069037721  0.760333927447497  1.0000
  O   O4        1.0  0.2512706290221356  0.7879628949142753  0.5651816465393167  1.0000
  O   O5        1.0  0.24835561588084598  0.3686303264320893  0.5780278741941914  1.0000
  O   O6        1.0  0.09078783502703769  0.78796513353722  0.5651853625266203  1.0000
  O   O7        1.0  0.08927856902789232  0.5706319782051608  0.7603375781871355  1.0000
  O   O8        1.0  0.08938218378845475  0.5859691251705437  0.3828777803444743  1.0000
  O   O9        1.0  0.08787283357929283  0.3686342371629514  0.5780300612473468  1.0000
