data_image0
_chemical_formula_structural       NC8NC6H8C12SCH10C15H11Zn2C4O8
_chemical_formula_sum              "N2 C46 H29 S1 Zn2 O8"
_cell_length_a       17.457602349358154
_cell_length_b       10.299776766347527
_cell_length_c       10.299157797200024
_cell_angle_alpha    85.54587523225568
_cell_angle_beta     92.89892803241439
_cell_angle_gamma    91.66964631390691

_space_group_name_H-M_alt    "P 1"
_space_group_IT_number       1

loop_
  _space_group_symop_operation_xyz
  'x, y, z'

loop_
  _atom_site_type_symbol
  _atom_site_label
  _atom_site_symmetry_multiplicity
  _atom_site_fract_x
  _atom_site_fract_y
  _atom_site_fract_z
  _atom_site_occupancy
  N   N1        1.0  0.7218289230824231  0.4531688893508839  0.6263999903204575  1.0000
  C   C1        1.0  0.660757224897761  0.4072476563331764  0.6157832531527225  1.0000
  C   C2        1.0  0.5847814504653099  0.3501273541193355  0.6025855748653304  1.0000
  C   C3        1.0  0.5262626787079624  0.390267972428636  0.6774894332902808  1.0000
  C   C4        1.0  0.4517247285680111  0.3352657154363056  0.6649062498492055  1.0000
  C   C5        1.0  0.3896156666826858  0.37764823190326885  0.7442322763300151  1.0000
  C   C6        1.0  0.31505248869789493  0.39613127492079564  0.6884643303032465  1.0000
  C   C7        1.0  0.2565337741752289  0.4360879429992977  0.7634761504938079  1.0000
  C   C8        1.0  0.1805318090242725  0.45517742385638327  0.7054925668141929  1.0000
  N   N2        1.0  0.11943914679563201  0.4705189868818984  0.6588739165740334  1.0000
  C   C9        1.0  0.2720861474610275  0.4578045660642174  0.894764476167274  1.0000
  C   C10       1.0  0.3458646380830744  0.4397103954444477  0.9509200529075718  1.0000
  C   C11       1.0  0.4043718203282926  0.3999336534787714  0.8763659915715081  1.0000
  C   C12       1.0  0.4369939901877935  0.2394458248043119  0.5759861703699862  1.0000
  C   C13       1.0  0.4955010842650814  0.1995837715131774  0.5014823484853805  1.0000
  C   C14       1.0  0.5692543757456724  0.2546982525857291  0.5146155264794858  1.0000
  H   H1        1.0  0.5386080014705946  0.4654424594553004  0.7441257767642235  1.0000
  H   H2        1.0  0.3026865226833484  0.3811889679526983  0.5864315675882046  1.0000
  H   H3        1.0  0.2272330451299531  0.48867066901071854  0.9536051644662444  1.0000
  H   H4        1.0  0.357716510505361  0.45621042619949437  0.05257953028526119  1.0000
  H   H5        1.0  0.4608710362105494  0.38492972934265346  0.922476112977572  1.0000
  H   H6        1.0  0.3805154497451146  0.19411425545392252  0.5653333154080018  1.0000
  H   H7        1.0  0.48366907991677277  0.12552604333496942  0.4336475909059845  1.0000
  H   H8        1.0  0.6141078062188117  0.22296233439509705  0.4562860014120347  1.0000
  C   C15       1.0  0.920710040706554  0.08048210211838035  0.6426415669354635  1.0000
  C   C16       1.0  0.9253521566039751  0.06908408871421458  0.779542061435017  1.0000
  C   C17       1.0  0.9276304884040313  0.9461667788950854  0.8489099577710378  1.0000
  C   C18       1.0  0.9252054576886405  0.8337899066765736  0.7795452712891286  1.0000
  C   C19       1.0  0.9205653906643431  0.8431960621874609  0.6426441947036274  1.0000
  C   C20       1.0  0.9183432244953941  0.9669819055345238  0.5749586412608607  1.0000
  C   C21       1.0  0.932532868304616  0.9351725039747407  0.9937345438060834  1.0000
  C   C22       1.0  0.8886408898628851  0.8397757617371594  0.0641965032646481  1.0000
  C   C23       1.0  0.8932776441117969  0.8296643246421708  0.2004919377502995  1.0000
  C   C24       1.0  0.9416155103541695  0.9146622192009621  0.26811659529385  1.0000
  C   C25       1.0  0.9856908965531044  0.009492787464387534  0.19904275517392622  1.0000
  C   C26       1.0  0.9811666391920689  0.019959025182844977  0.0627460930474264  1.0000
  S   S1        1.0  0.9476497081130071  0.9012310083742301  0.44300929928249844  1.0000
  C   C27       1.0  0.8705590676290277  0.013923361804979432  0.45624287610421227  1.0000
  H   H9        1.0  0.9261487071171313  0.15593487122666436  0.8325683454291799  1.0000
  H   H10       1.0  0.9280024021524126  0.738883226222461  0.8325387858917048  1.0000
  H   H11       1.0  0.9147625540181059  0.9750065228395116  0.46934577358398877  1.0000
  H   H12       1.0  0.8500085448857517  0.7741393212428298  0.013924588023873422  1.0000
  H   H13       1.0  0.8589891593230166  0.756090002916264  0.25341604641991244  1.0000
  H   H14       1.0  0.02350706860941787  0.07514903769565895  0.25083703272597435  1.0000
  H   H15       1.0  0.016423770071109626  0.0932062624133072  0.01131421636668528  1.0000
  H   H16       1.0  0.8859063021455917  0.11093664407885573  0.4086159966125821  1.0000
  H   H17       1.0  0.8616935747275238  0.024185990682929596  0.5608038411319597  1.0000
  H   H18       1.0  0.8165628473888042  0.9760466534754574  0.4097084637559529  1.0000
  C   C28       1.0  0.9205487299579156  0.4619414521576663  0.26124357686227384  1.0000
  C   C29       1.0  0.8406407146625934  0.4404754156473742  0.25489208928417106  1.0000
  C   C30       1.0  0.8002892870870756  0.42948968779010954  0.13454279204620745  1.0000
  C   C31       1.0  0.8408687091897156  0.4402766347648104  0.019643411651935734  1.0000
  C   C32       1.0  0.9207266488194803  0.46173669150113406  0.024042126113093868  1.0000
  C   C33       1.0  0.9601003411658039  0.4724380254145781  0.14533440858970015  1.0000
  C   C34       1.0  0.715808618948363  0.40680063594474114  0.12887414575440315  1.0000
  C   C35       1.0  0.6813034723165737  0.31831686017714644  0.04494732815395808  1.0000
  C   C36       1.0  0.6018036065082386  0.2970585589113497  0.03964515393181501  1.0000
  C   C37       1.0  0.5553930412090743  0.36321318329931973  0.11868604740382094  1.0000
  C   C38       1.0  0.5894874363186368  0.4525245738140511  0.20160261846339367  1.0000
  C   C39       1.0  0.6689865277751272  0.4737870396026953  0.20705268024875625  1.0000
  C   C40       1.0  0.4697487600209906  0.3426610387968032  0.11062796609119531  1.0000
  C   C41       1.0  0.4352266764454578  0.43492109007179375  0.010399319675100663  1.0000
  C   C42       1.0  0.4068546618338371  0.5107871429208916  0.9279848567174955  1.0000
  H   H19       1.0  0.0714321088440029  0.5016654435412895  0.48059132016391826  1.0000
  H   H20       1.0  0.8097830100475049  0.43050414452132285  0.3439094257728877  1.0000
  H   H21       1.0  0.8098999558446258  0.4336873092283031  0.9264817043217076  1.0000
  H   H22       1.0  0.021697187610087543  0.48898703548971745  0.14944300397809143  1.0000
  H   H23       1.0  0.7158909755103168  0.2644610970708425  0.9843990451115433  1.0000
  H   H24       1.0  0.5764154144113627  0.22879572831714845  0.9740112287241849  1.0000
  H   H25       1.0  0.5544519520658882  0.5060516135416464  0.2617693085341779  1.0000
  H   H26       1.0  0.6937485554788101  0.5441297526338627  0.27099426383166403  1.0000
  H   H27       1.0  0.4544557530754902  0.2417545706936228  0.08593179438738852  1.0000
  H   H28       1.0  0.4453238058382338  0.3570400074616076  0.2058547221135887  1.0000
  H   H29       1.0  0.3819679625614241  0.577395958480815  0.855634223546438  1.0000
  Zn  Zn1       1.0  0.8365706472347665  0.4581722680637587  0.6357787630157321  1.0000
  Zn  Zn2       1.0  0.004697412893619689  0.4655049576889181  0.6495057772167818  1.0000
  C   C43       1.0  0.9206923091512094  0.45660175836731665  0.8798567368578258  1.0000
  C   C44       1.0  0.920577586635152  0.46707718601365195  0.4054280807554538  1.0000
  C   C45       1.0  0.9205875556998601  0.6990281102632456  0.6374677718339017  1.0000
  C   C46       1.0  0.9206822830287014  0.22464927132281876  0.6478171103341268  1.0000
  O   O1        1.0  0.9843905036418591  0.4715778370710333  0.4590270477347372  1.0000
  O   O2        1.0  0.9844837171896409  0.45766546946421705  0.8366758821564944  1.0000
  O   O3        1.0  0.984398267669854  0.6534277766450167  0.640945007736861  1.0000
  O   O4        1.0  0.98447589576689  0.2758155367042739  0.6547578200878781  1.0000
  O   O5        1.0  0.8567921069880808  0.647861686547532  0.630526715453448  1.0000
  O   O6        1.0  0.8568775561922521  0.4521009396607647  0.8262575206271453  1.0000
  O   O7        1.0  0.8567843423398082  0.4660132624337749  0.448607124684344  1.0000
  O   O8        1.0  0.8568697344861794  0.27025095275210353  0.64433799441279  1.0000
