data_image0
_chemical_formula_structural       NC12NC2H8C7NH5C6SCH8Zn2C4O8
_chemical_formula_sum              "N3 C32 H21 S1 Zn2 O8"
_cell_length_a       19.240039667572717
_cell_length_b       9.275154477615127
_cell_length_c       10.302812801239593
_cell_angle_alpha    85.78691219350036
_cell_angle_beta     89.99986115562673
_cell_angle_gamma    89.43370810513201

_space_group_name_H-M_alt    "P 1"
_space_group_IT_number       1

loop_
  _space_group_symop_operation_xyz
  'x, y, z'

loop_
  _atom_site_type_symbol
  _atom_site_label
  _atom_site_symmetry_multiplicity
  _atom_site_fract_x
  _atom_site_fract_y
  _atom_site_fract_z
  _atom_site_occupancy
  N   N1        1.0  0.6469609772526336  0.5778878026955101  0.5735783372115788  1.0000
  C   C1        1.0  0.5868126079912297  0.5778878959308462  0.573578255635864  1.0000
  C   C2        1.0  0.5119945702298464  0.5778880261407588  0.5735781188428986  1.0000
  C   C3        1.0  0.475861721771235  0.5063187062937566  0.6766999848044546  1.0000
  C   C4        1.0  0.4031915600777415  0.5061956069687059  0.6767860568785464  1.0000
  C   C5        1.0  0.3656623348031677  0.577888128907377  0.5735778916028804  1.0000
  C   C6        1.0  0.4025087869264891  0.6495808584328739  0.4703699215530359  1.0000
  C   C7        1.0  0.47518006304225713  0.6494574976592056  0.47045611514845187  1.0000
  C   C8        1.0  0.2884572447797427  0.5778880415801779  0.5735777959033559  1.0000
  C   C9        1.0  0.25186848475664203  0.45214748438717944  0.6149827812177359  1.0000
  C   C10       1.0  0.1791972310294702  0.4522661641058631  0.6148919117667954  1.0000
  C   C11       1.0  0.1421249585397392  0.5778878981740878  0.5735778562782969  1.0000
  C   C12       1.0  0.06730692198612938  0.577887771896046  0.5735781044059669  1.0000
  N   N2        1.0  0.0071586053497109  0.577887726572158  0.5735783125962466  1.0000
  C   C13       1.0  0.178000196505591  0.703509716425363  0.5322637482187278  1.0000
  C   C14       1.0  0.250670326427873  0.703628596112909  0.5321727169442942  1.0000
  H   H1        1.0  0.5038404923092415  0.4509081745855714  0.7572162951399727  1.0000
  H   H2        1.0  0.37635793498115483  0.45167108241301435  0.7584207094722193  1.0000
  H   H3        1.0  0.37515588109191456  0.7041054130222595  0.388735218235109  1.0000
  H   H4        1.0  0.5026310644973369  0.7048679180546454  0.38994008012048803  1.0000
  H   H5        1.0  0.2794333146005759  0.3531684154043925  0.6457843293674322  1.0000
  H   H6        1.0  0.15194918615976347  0.3542853370362498  0.6467296921495427  1.0000
  H   H7        1.0  0.1498184180572792  0.8014905162544325  0.5004259822837778  1.0000
  H   H8        1.0  0.2772919749823943  0.8026077529966669  0.5013711243535677  1.0000
  C   C15       1.0  0.8290743820316367  0.15449848354665105  0.5720759709700978  1.0000
  C   C16       1.0  0.8099966740773645  0.23767757051949318  0.45760773986826925  1.0000
  C   C17       1.0  0.7852656490582557  0.17163914847426098  0.34920306267613493  1.0000
  C   C18       1.0  0.7792051244094033  0.0215186243946901  0.3539899164706388  1.0000
  C   C19       1.0  0.7989270062038771  0.9371318623110235  0.46584893523221155  1.0000
  C   C20       1.0  0.825051930409421  0.0012660021102737205  0.575091871372029  1.0000
  C   C21       1.0  0.7652632661419955  0.25840004787047155  0.23335519100258953  1.0000
  N   N3        1.0  0.7491868985909017  0.32813990494412226  0.14024317634246541  1.0000
  H   H9        1.0  0.8425507510756134  0.2311695398417364  0.8907537754003286  1.0000
  H   H10       1.0  0.812835124083481  0.35463697049216814  0.4537556142471691  1.0000
  H   H11       1.0  0.759827437805506  0.9693920509485913  0.27067411375224326  1.0000
  H   H12       1.0  0.7952773457960638  0.8206642666937054  0.4657346810891214  1.0000
  H   H13       1.0  0.8370753453597969  0.7024957555428389  0.788615064554203  1.0000
  C   C22       1.0  0.8270631751342876  0.5778822394279515  0.19233544120729662  1.0000
  C   C23       1.0  0.8029406642511268  0.7216624203112887  0.1816502547116794  1.0000
  C   C24       1.0  0.7907598904671296  0.7929902459068336  0.059357300668018594  1.0000
  C   C25       1.0  0.8029406023116136  0.7216622689631447  0.9464990844833987  1.0000
  C   C26       1.0  0.8270631300984583  0.5778822297117077  0.9548323448022367  1.0000
  C   C27       1.0  0.8389851544908634  0.5066821659101843  0.07829290575886483  1.0000
  S   S1        1.0  0.7600820522534083  0.9767974394682848  0.04720062963433391  1.0000
  C   C28       1.0  0.668898452930822  0.9264237427247254  0.05053336987175672  1.0000
  H   H14       1.0  0.8361280442971855  0.5236799753015995  0.5236764697102629  1.0000
  H   H15       1.0  0.7933582519225865  0.7787723184076091  0.26797271081678975  1.0000
  H   H16       1.0  0.7933581137579763  0.7787721107181459  0.8526223970950082  1.0000
  H   H17       1.0  0.8575793583290384  0.39576858138774373  0.08562841077228334  1.0000
  H   H18       1.0  0.8361267537256529  0.5236792267723132  0.6306608815304601  1.0000
  H   H19       1.0  0.6568785963952031  0.8622841926639555  0.9666586094660978  1.0000
  H   H20       1.0  0.6568788871497994  0.8622856497557614  0.14289330668913713  1.0000
  H   H21       1.0  0.6362582766369612  0.025939552764771452  0.04395130763763744  1.0000
  Zn  Zn1       1.0  0.7509062594807704  0.5778839314988623  0.573585802459291  1.0000
  Zn  Zn2       1.0  0.9032133977597078  0.577879837066873  0.5735814010136115  1.0000
  C   C29       1.0  0.8270888746864759  0.5721384956208828  0.8106836593988366  1.0000
  C   C30       1.0  0.8270324371014978  0.5836270920677555  0.3364836779313707  1.0000
  C   C31       1.0  0.8258086791662798  0.8412088973415403  0.5693482328214752  1.0000
  C   C32       1.0  0.8283125888785947  0.31455495812708345  0.5778191675574873  1.0000
  O   O1        1.0  0.8848219162382803  0.5855472732681029  0.38485945025807516  1.0000
  O   O2        1.0  0.8848969945229761  0.5702141191701284  0.7623041688748793  1.0000
  O   O3        1.0  0.8838624412815801  0.7874918714401441  0.5674241097873622  1.0000
  O   O4        1.0  0.8858564174585779  0.36826953131333384  0.5797394120399157  1.0000
  O   O5        1.0  0.7682631878069415  0.7874942372553679  0.5674277914276658  1.0000
  O   O6        1.0  0.7692977328164777  0.5702182172083339  0.762307787461106  1.0000
  O   O7        1.0  0.7692226548167626  0.5855513210639385  0.38486150775783523  1.0000
  O   O8        1.0  0.7702571560831996  0.3682735687968899  0.5797415668400314  1.0000
