data_image0
_chemical_formula_structural       NC9NC5H8C6NO2H5C7NC2NH7Zn2C4O8
_chemical_formula_sum              "N5 C33 H20 O10 Zn2"
_cell_length_a       17.807436237873137
_cell_length_b       9.273392599741051
_cell_length_c       9.27399911348925
_cell_angle_alpha    85.18319751875556
_cell_angle_beta     89.04204372891122
_cell_angle_gamma    87.79638846343423

_space_group_name_H-M_alt    "P 1"
_space_group_IT_number       1

loop_
  _space_group_symop_operation_xyz
  'x, y, z'

loop_
  _atom_site_type_symbol
  _atom_site_label
  _atom_site_symmetry_multiplicity
  _atom_site_fract_x
  _atom_site_fract_y
  _atom_site_fract_z
  _atom_site_occupancy
  N   N1        1.0  0.703900356126135  0.5552977160480164  0.3998131692304212  1.0000
  C   C1        1.0  0.643561422419998  0.5163123456767182  0.3874730383132359  1.0000
  C   C2        1.0  0.5685064207025009  0.4678188383905662  0.3721232554652598  1.0000
  C   C3        1.0  0.5511964519859951  0.3894865935443429  0.2552416970193203  1.0000
  C   C4        1.0  0.47832285835621713  0.34228006763738383  0.24024593460752922  1.0000
  C   C5        1.0  0.4217128943629291  0.37298671960183816  0.3420947207840108  1.0000
  C   C6        1.0  0.3442660835986278  0.322945213865403  0.3262496153697434  1.0000
  C   C7        1.0  0.2815110723152255  0.41351667673970693  0.35528292850219767  1.0000
  C   C8        1.0  0.2084963491493083  0.36608447760187945  0.3403018650281686  1.0000
  C   C9        1.0  0.1446738413237317  0.45964214517205454  0.36974634704812304  1.0000
  N   N2        1.0  0.0933735708990207  0.5348560268088969  0.3934188885724228  1.0000
  C   C10       1.0  0.1976547289998987  0.2277944818392339  0.2962586701591432  1.0000
  C   C11       1.0  0.2595524818942243  0.13720771104444163  0.26721599789399364  1.0000
  C   C12       1.0  0.332450824852375  0.18420356376140945  0.2819709694961876  1.0000
  C   C13       1.0  0.43971055943250337  0.45186604226399485  0.45922117137629526  1.0000
  C   C14       1.0  0.51263869119863  0.49886255040864863  0.4740434636811048  1.0000
  H   H1        1.0  0.5939669574713953  0.3651910522419486  0.1754818510021181  1.0000
  H   H2        1.0  0.46601108928830126  0.2834361374740897  0.14795165982795888  1.0000
  H   H3        1.0  0.28932555011206057  0.5215100748531176  0.38762094999708396  1.0000
  H   H4        1.0  0.1414299239338378  0.1900865910644085  0.28439826562388437  1.0000
  H   H5        1.0  0.2510387501174407  0.030136728910506564  0.23354584923436894  1.0000
  H   H6        1.0  0.3795509249370547  0.11135241801263619  0.26063594580993765  1.0000
  H   H7        1.0  0.397655837862316  0.47555047495525304  0.5404184171271309  1.0000
  H   H8        1.0  0.5254749595839064  0.5590722630913832  0.5651830885619631  1.0000
  C   C15       1.0  0.9009342144784732  0.12143555252619483  0.39567074218751985  1.0000
  C   C16       1.0  0.8917614902559969  0.20639964957742482  0.2639783996739107  1.0000
  C   C17       1.0  0.8759422308297247  0.14322920948730888  0.13717917809535884  1.0000
  C   C18       1.0  0.8687700122757366  0.9931789216387636  0.13853678388785462  1.0000
  C   C19       1.0  0.8791180342972981  0.9069934442160064  0.26920337620681667  1.0000
  C   C20       1.0  0.8963469142438001  0.9687066064450732  0.3975736718139933  1.0000
  N   N3        1.0  0.8517941019593188  0.9286882373679325  0.007524460315433194  1.0000
  O   O1        1.0  0.8423195901938765  0.013387938025830392  0.8795451150406927  1.0000
  O   O2        1.0  0.845175518725851  0.7951003797660249  0.00786353822312913  1.0000
  H   H9        1.0  0.8845617678815135  0.1957224535121822  0.7501737209469361  1.0000
  H   H10       1.0  0.8950596777319514  0.32310566645650707  0.2596600292642002  1.0000
  H   H11       1.0  0.8685624033430556  0.2123886319195849  0.03810351251798628  1.0000
  H   H12       1.0  0.8754850230326814  0.790573121565394  0.2702903989745058  1.0000
  H   H13       1.0  0.8878810971103963  0.6690028741888998  0.6371185421494172  1.0000
  C   C21       1.0  0.89991850128446  0.548695154243992  0.9727578188044932  1.0000
  C   C22       1.0  0.9592856441110195  0.47651954738666175  0.050118666954989566  1.0000
  C   C23       1.0  0.013733752177041316  0.39433457034181996  0.9804014258754398  1.0000
  C   C24       1.0  0.01028139955183515  0.3815093154191789  0.8311336465922219  1.0000
  C   C25       1.0  0.9520321096478439  0.45606181666947787  0.7522010571795823  1.0000
  C   C26       1.0  0.8973626247513996  0.541447042021085  0.8204865827241146  1.0000
  C   C27       1.0  0.06842340031537297  0.2922018944439688  0.7592974257213632  1.0000
  N   N4        1.0  0.13162875555020048  0.23849269343948132  0.8261898301583144  1.0000
  C   C28       1.0  0.1684000042294848  0.16439961007235596  0.7261074275099486  1.0000
  C   C29       1.0  0.12731073041557783  0.17374387554043655  0.6012554477910554  1.0000
  N   N5        1.0  0.06443298028530008  0.2540545381688682  0.6222869805474609  1.0000
  H   H14       1.0  0.8189354062343379  0.7349847677210326  0.24105733879186528  1.0000
  H   H15       1.0  0.9626666964081708  0.48063392062792515  0.16622357054527814  1.0000
  H   H16       1.0  0.058093475011351085  0.33887610049928973  0.044286229966205674  1.0000
  H   H17       1.0  0.9501942841489937  0.45225594630708055  0.6361178137312051  1.0000
  H   H18       1.0  0.7796657709537502  0.6290233525216904  0.5368323796512757  1.0000
  H   H19       1.0  0.22185965988209302  0.10670226417011831  0.7434797497492998  1.0000
  H   H20       1.0  0.1419966523225493  0.12481541402061991  0.5022177527910952  1.0000
  Zn  Zn1       1.0  0.816293907305463  0.549394765335429  0.3979762570219971  1.0000
  Zn  Zn2       1.0  0.9809800294148184  0.54074711648411  0.3952676406632154  1.0000
  C   C30       1.0  0.8978751791815497  0.5370700292266186  0.660234848525183  1.0000
  C   C31       1.0  0.8994005456237238  0.5530735771990989  0.13300916534016838  1.0000
  C   C32       1.0  0.8972274832748616  0.8086037503491312  0.39146223103957967  1.0000
  C   C33       1.0  0.9000481944867215  0.2815381251178636  0.40178185681098055  1.0000
  O   O3        1.0  0.9617242741196373  0.5512549845180839  0.18576306122389918  1.0000
  O   O4        1.0  0.9605444139342717  0.5323241717568893  0.6054247575506464  1.0000
  O   O5        1.0  0.9600205442768343  0.7515911169829582  0.3883889845460804  1.0000
  O   O6        1.0  0.9622480878512776  0.33198805348818006  0.4027987269508986  1.0000
  O   O7        1.0  0.8350257926697278  0.7581538312840126  0.3904451716510431  1.0000
  O   O8        1.0  0.835549653171579  0.5388886199693196  0.6074808715871289  1.0000
  O   O9        1.0  0.8367295189112459  0.557819397293225  0.1878174397609249  1.0000
  O   O10       1.0  0.8372533323694066  0.3385524550198096  0.40485321368222005  1.0000
