data_image0
_chemical_formula_structural       NC12NC2H8C12H10C12H9Zn2C4O8
_chemical_formula_sum              "N2 C42 H27 Zn2 O8"
_cell_length_a       19.240039667572717
_cell_length_b       14.388199552941785
_cell_length_c       14.389300134226547
_cell_angle_alpha    82.75983295492937
_cell_angle_beta     90.2220102004637
_cell_angle_gamma    92.40759244295023

_space_group_name_H-M_alt    "P 1"
_space_group_IT_number       1

loop_
  _space_group_symop_operation_xyz
  'x, y, z'

loop_
  _atom_site_type_symbol
  _atom_site_label
  _atom_site_symmetry_multiplicity
  _atom_site_fract_x
  _atom_site_fract_y
  _atom_site_fract_z
  _atom_site_occupancy
  N   N1        1.0  0.6848653476022045  0.06294637801732406  0.9634132951265253  1.0000
  C   C1        1.0  0.6247169805835673  0.06294644074253665  0.9634132358248225  1.0000
  C   C2        1.0  0.5498989459286598  0.06294652904246999  0.9634131365596297  1.0000
  C   C3        1.0  0.5120900443173378  0.013558177770278458  0.03806462715342751  1.0000
  C   C4        1.0  0.43941689715884547  0.013476023073708543  0.03812736480789336  1.0000
  C   C5        1.0  0.4035667128196193  0.06294660238154791  0.9634129724289151  1.0000
  C   C6        1.0  0.4420922112954858  0.11241730981582097  0.8886987190553215  1.0000
  C   C7        1.0  0.5147604955365683  0.11233498250734274  0.8887615458794003  1.0000
  C   C8        1.0  0.3263616205020383  0.06294654889684105  0.9634129041909412  1.0000
  C   C9        1.0  0.28667104075300104  0.9804522652062538  0.9940430184717153  1.0000
  C   C10       1.0  0.21400265643587787  0.9805317116500878  0.993976860360123  1.0000
  C   C11       1.0  0.1800293307392231  0.06294645441035217  0.9634129485841456  1.0000
  C   C12       1.0  0.10521129130276619  0.06294636524399366  0.9634131278967522  1.0000
  N   N2        1.0  0.0450629737655794  0.06294632959533474  0.9634132779378293  1.0000
  C   C13       1.0  0.2190035175468723  0.1453612531606973  0.9328489984284081  1.0000
  C   C14       1.0  0.29167652170420544  0.1454408337340574  0.9327827225771474  1.0000
  H   H1        1.0  0.5387719391833958  0.9752999200274527  0.09634843151479167  1.0000
  H   H2        1.0  0.4113098382313287  0.9757559026672296  0.09720950654326932  1.0000
  H   H3        1.0  0.4160127399868124  0.1501374511757958  0.8296165406348717  1.0000
  H   H4        1.0  0.54350837018602  0.15059315991968725  0.8304779402776604  1.0000
  H   H5        1.0  0.3117922003360669  0.9155701247183589  0.016865849675830047  1.0000
  H   H6        1.0  0.1843371010320614  0.9162627235452143  0.017538214383060025  1.0000
  H   H7        1.0  0.19323924896684838  0.20963022322633962  0.9092876549809323  1.0000
  H   H8        1.0  0.32074184267054884  0.210323032365036  0.9099598588153921  1.0000
  C   C15       1.0  0.856375966244399  0.7894860039659113  0.9651977774668359  1.0000
  C   C16       1.0  0.7868710298395993  0.8101424692702481  0.9802537480382096  1.0000
  C   C17       1.0  0.7352129924186551  0.7385429763325729  0.9915797785197342  1.0000
  C   C18       1.0  0.7521292221376839  0.645664698137054  0.9880358706587492  1.0000
  C   C19       1.0  0.8212506446227882  0.6232207848207683  0.9729823644747253  1.0000
  C   C20       1.0  0.8730914230311134  0.6957622197273612  0.9616618735352549  1.0000
  C   C21       1.0  0.8392715240678644  0.5244010954665658  0.9690852860163477  1.0000
  C   C22       1.0  0.8089778510237697  0.4515254295499974  0.03216213863569273  1.0000
  C   C23       1.0  0.8259540872045353  0.3585444319377337  0.028520913094845498  1.0000
  C   C24       1.0  0.8735588330481154  0.3363992460815781  0.9616368920609601  1.0000
  C   C25       1.0  0.9038167892159218  0.40916581312820893  0.89853792459697  1.0000
  C   C26       1.0  0.8868808778536147  0.5021567510637799  0.9022307685483983  1.0000
  H   H9        1.0  0.018129241259565942  0.8954401522963583  0.9301823472017408  1.0000
  H   H10       1.0  0.7723796280896669  0.8816141325512362  0.9832783169181173  1.0000
  H   H11       1.0  0.6817922907145576  0.755141403221935  0.00289866050011356  1.0000
  H   H12       1.0  0.7109998241059798  0.5915255013413944  0.9958233168796253  1.0000
  H   H13       1.0  0.9266277050635117  0.6789111191025449  0.9513713696700057  1.0000
  H   H14       1.0  0.7727907843819241  0.466541178819746  0.08521540426181284  1.0000
  H   H15       1.0  0.8018905384662178  0.304040155113359  0.07828729154741543  1.0000
  H   H16       1.0  0.9516845717445637  0.14976629180368356  0.8875734270023108  1.0000
  H   H17       1.0  0.9405133653794959  0.39434762169884446  0.8460210813203037  1.0000
  H   H18       1.0  0.9103783857539222  0.5565940958775883  0.8518796031927565  1.0000
  C   C27       1.0  0.8645387523311227  0.07460724815532772  0.6892162488269374  1.0000
  C   C28       1.0  0.9041103472166313  0.12977157756675092  0.6193139314818858  1.0000
  C   C29       1.0  0.9049156780434479  0.1067538326056805  0.5278191276233299  1.0000
  C   C30       1.0  0.8662161586913228  0.028056426942094197  0.5042238015914029  1.0000
  C   C31       1.0  0.8267002964104548  0.9729056844607833  0.5742184753745505  1.0000
  C   C32       1.0  0.8258487385478543  0.9959652403211988  0.6657006435922721  1.0000
  C   C33       1.0  0.8670911599249365  0.0035546607559733294  0.4070017030981754  1.0000
  C   C34       1.0  0.8645296319925646  0.07402769044426871  0.3299032273814586  1.0000
  C   C35       1.0  0.8653960134999215  0.05127795244695286  0.23761843958429285  1.0000
  C   C36       1.0  0.8688763445899544  0.9568555083848633  0.22312466059886904  1.0000
  C   C37       1.0  0.8713975574966288  0.8866155094035679  0.29926722288391105  1.0000
  C   C38       1.0  0.8704943104146627  0.9095818005502465  0.39063849379563687  1.0000
  H   H19       1.0  0.8231059867134951  0.05948072067688771  0.9215185133554535  1.0000
  H   H20       1.0  0.9346502229047233  0.19067507711486154  0.6353109341014249  1.0000
  H   H21       1.0  0.9366036077894204  0.1498871862244866  0.4757615712365064  1.0000
  H   H22       1.0  0.7956604050677989  0.912535673929389  0.5579497508050044  1.0000
  H   H23       1.0  0.7946997336073428  0.9522221996258774  0.7179153015459423  1.0000
  H   H24       1.0  0.8609019219769065  0.14649596596319903  0.3418739744041688  1.0000
  H   H25       1.0  0.8696611132465702  0.9371472438170517  0.15296971936367743  1.0000
  H   H26       1.0  0.8742573871942646  0.8140628245336223  0.28740551815396453  1.0000
  H   H27       1.0  0.8733939992474781  0.8539549474378418  0.44850540980967746  1.0000
  Zn  Zn1       1.0  0.7888105412944217  0.06294364884731761  0.9634186904693427  1.0000
  Zn  Zn2       1.0  0.9411175721055052  0.06294113854093863  0.9634155525729771  1.0000
  C   C39       1.0  0.8651158816362046  0.051977921283483886  0.13398282115738058  1.0000
  C   C40       1.0  0.8648139320101029  0.07390803714910832  0.7928515058479044  1.0000
  C   C41       1.0  0.8703014980630122  0.23317926369624464  0.9585890695937882  1.0000
  C   C42       1.0  0.8596282285386346  0.8927055738061135  0.968245314479026  1.0000
  O   O1        1.0  0.9227058816235146  0.07366836028587254  0.8276312804597739  1.0000
  O   O2        1.0  0.9228214217720812  0.052215001807804695  0.09920040073652825  1.0000
  O   O3        1.0  0.9270080949676254  0.19853733611963095  0.9575686991207932  1.0000
  O   O4        1.0  0.9185191565557451  0.9273460356147717  0.969262912021629  1.0000
  O   O5        1.0  0.811408904869291  0.19853875177556432  0.9575713310168437  1.0000
  O   O6        1.0  0.8072222667435165  0.05221753839605082  0.09920297556120239  1.0000
  O   O7        1.0  0.8071067238667078  0.07367091218074527  0.8276327328615898  1.0000
  O   O8        1.0  0.8029199986962728  0.9273485778709981  0.9692644344734778  1.0000
