data_image0
_chemical_formula_structural       NC12NC2H8C7OC4NC3H8C7OC4NC3H9Zn2C4O8
_chemical_formula_sum              "N4 C46 H25 O10 Zn2"
_cell_length_a       19.240039667572717
_cell_length_b       10.299371701877257
_cell_length_c       10.299375074045736
_cell_angle_alpha    85.55924318392921
_cell_angle_beta     89.99323599274587
_cell_angle_gamma    90.00851160782973

_space_group_name_H-M_alt    "P 1"
_space_group_IT_number       1

loop_
  _space_group_symop_operation_xyz
  'x, y, z'

loop_
  _atom_site_type_symbol
  _atom_site_label
  _atom_site_symmetry_multiplicity
  _atom_site_fract_x
  _atom_site_fract_y
  _atom_site_fract_z
  _atom_site_occupancy
  N   N1        1.0  0.654680688192149  0.4218263583326644  0.5679334324240548  1.0000
  C   C1        1.0  0.594532319386725  0.42182644234552147  0.5679333505157728  1.0000
  C   C2        1.0  0.519714282263567  0.42182655968410976  0.5679332132500605  1.0000
  C   C3        1.0  0.4832289053712625  0.3573214778778202  0.6713250520874294  1.0000
  C   C4        1.0  0.41055814298433113  0.35721056313967225  0.6714115554081779  1.0000
  C   C5        1.0  0.3733820473479894  0.4218266523367246  0.5679329855936797  1.0000
  C   C6        1.0  0.4105816301014276  0.48644292844620945  0.46445461040120345  1.0000
  C   C7        1.0  0.4832523042517517  0.4863317781609685  0.4645412361369703  1.0000
  C   C8        1.0  0.2961769569081411  0.4218265737118547  0.5679328901432374  1.0000
  C   C9        1.0  0.2589774964618299  0.3085494042365753  0.6097615077830358  1.0000
  C   C10       1.0  0.1863068223501801  0.30865633977375867  0.6096702197081245  1.0000
  C   C11       1.0  0.1498446699708239  0.42182644451524665  0.5679329510060973  1.0000
  C   C12       1.0  0.0750266327911077  0.42182633067674913  0.5679331996341102  1.0000
  N   N2        1.0  0.014878315922585894  0.42182628977319925  0.5679334080471738  1.0000
  C   C13       1.0  0.1863300284574528  0.5349966251048506  0.5261956294403674  1.0000
  C   C14       1.0  0.2590007389724173  0.5351037408258434  0.5261041788334452  1.0000
  H   H1        1.0  0.5109346987435689  0.3073799808491129  0.752050626862079  1.0000
  H   H2        1.0  0.3834557565514891  0.30806672585786554  0.753252998734721  1.0000
  H   H3        1.0  0.3834974857515067  0.5355867928000213  0.38261311623441285  1.0000
  H   H4        1.0  0.5109762823171197  0.536273174821128  0.3838159371314409  1.0000
  H   H5        1.0  0.28606171282682036  0.2193817965075946  0.6408958766392214  1.0000
  H   H6        1.0  0.15858292773326005  0.2203875187161157  0.6418379525876492  1.0000
  H   H7        1.0  0.1586240996237123  0.623265421619984  0.4940279111024028  1.0000
  H   H8        1.0  0.2861030014337619  0.6242714277488484  0.4949697652344626  1.0000
  C   C15       1.0  0.8347464933700495  0.04045594926061779  0.567806405107889  1.0000
  C   C16       1.0  0.838131990914709  0.04984894110744786  0.43113802800976947  1.0000
  C   C17       1.0  0.8390503574121922  0.9374176174244894  0.3621438870563092  1.0000
  C   C18       1.0  0.8381405686047558  0.8145805043527157  0.43145543197077413  1.0000
  C   C19       1.0  0.834819184782349  0.8031867061222685  0.568071623907269  1.0000
  C   C20       1.0  0.8329585032238125  0.9167263389934497  0.6354408193349435  1.0000
  C   C21       1.0  0.8433551369747778  0.9471921886351999  0.21789022286231963  1.0000
  O   O1        1.0  0.8768098995258216  0.8614663100445296  0.16294294861807157  1.0000
  C   C22       1.0  0.8096958726240754  0.05413669806909516  0.13597595615270297  1.0000
  C   C23       1.0  0.8394701461772398  0.09882671991651204  0.01600262246072881  1.0000
  C   C24       1.0  0.8076437313812292  0.1987599791095484  0.9372098386942436  1.0000
  C   C25       1.0  0.8387664919696758  0.2446348853463709  0.8150502999243688  1.0000
  N   N3        1.0  0.8637878049873943  0.2815086737549406  0.7168517455403237  1.0000
  C   C26       1.0  0.7455242099693868  0.25392310195700074  0.9773827139618789  1.0000
  C   C27       1.0  0.7151633310433204  0.20902311650684657  0.09561645358688951  1.0000
  C   C28       1.0  0.7467901904588012  0.1093873361217219  0.17439783948407594  1.0000
  H   H9        1.0  0.8408370843532414  0.14479283536025433  0.3782500552282022  1.0000
  H   H10       1.0  0.8393636753980928  0.7277631902297195  0.37844181992155307  1.0000
  H   H11       1.0  0.8303489122419525  0.9086811368696373  0.7408023967398096  1.0000
  H   H12       1.0  0.8341282427664835  0.47134929750330096  0.6205982330657083  1.0000
  H   H13       1.0  0.8876715587108056  0.05674760348744456  0.9844249193489034  1.0000
  H   H14       1.0  0.7204727910706754  0.3311623005985673  0.9171416935577209  1.0000
  H   H15       1.0  0.6668433147161076  0.2511188578100345  0.12604112115232535  1.0000
  H   H16       1.0  0.7216747984339288  0.07464308298774247  0.26455647489188583  1.0000
  C   C29       1.0  0.8348064773523617  0.4219636930613129  0.18655230533642397  1.0000
  C   C30       1.0  0.8883140905931495  0.5150747678384406  0.17814116999986762  1.0000
  C   C31       1.0  0.9147619998735772  0.5631176451869121  0.056641770617389835  1.0000
  C   C32       1.0  0.8882015379430545  0.5148370318124822  0.9429157711420939  1.0000
  C   C33       1.0  0.8347591760295759  0.42167900826353266  0.9493257624190785  1.0000
  C   C34       1.0  0.8082462897068617  0.3760326928382562  0.07162226921565851  1.0000
  C   C35       1.0  0.9717613099154895  0.6604366543091551  0.04769805315856779  1.0000
  O   O2        1.0  0.01617600182511892  0.6557516224023385  0.9580614807149557  1.0000
  C   C36       1.0  0.9783646032763986  0.7630823162085675  0.14036024416351456  1.0000
  C   C37       1.0  0.044462050383251794  0.8096434019339735  0.1721329812589485  1.0000
  C   C38       1.0  0.0512063559388025  0.9076553722199805  0.2583837949953216  1.0000
  C   C39       1.0  0.11908341555909119  0.954007129133031  0.29118756798705414  1.0000
  N   N4        1.0  0.17364892400126927  0.9912631026381096  0.3175543425057956  1.0000
  C   C40       1.0  0.9918597604705522  0.960506538998942  0.3125956130869312  1.0000
  C   C41       1.0  0.9259940405742163  0.9159571067319193  0.28032262220169346  1.0000
  C   C42       1.0  0.9191115332665898  0.8182151214385021  0.19434746114990187  1.0000
  H   H17       1.0  0.7345621143145663  0.244788547890574  0.40985948155054786  1.0000
  H   H18       1.0  0.9100159349348967  0.5492761313160089  0.2663363092425095  1.0000
  H   H19       1.0  0.9088928189575252  0.5510729461866389  0.8491832073486795  1.0000
  H   H20       1.0  0.7669960604999142  0.3042501883364799  0.07730282093377072  1.0000
  H   H21       1.0  0.8146297474883518  0.385092203814604  0.624392929903955  1.0000
  H   H22       1.0  0.09066350235027863  0.7689232097818541  0.13073815107231535  1.0000
  H   H23       1.0  0.9965034059406417  0.03638465561202686  0.3793011901751364  1.0000
  H   H24       1.0  0.8801389493013524  0.9576559983479506  0.3215689739773173  1.0000
  H   H25       1.0  0.8674845075387881  0.7868215357591871  0.16903323803256717  1.0000
  Zn  Zn1       1.0  0.7586259512350394  0.42182286853715717  0.5679409129590578  1.0000
  Zn  Zn2       1.0  0.9109330699842163  0.42181918209151864  0.5679365232229243  1.0000
  C   C43       1.0  0.834766090715237  0.416559099919535  0.8051434189854738  1.0000
  C   C44       1.0  0.8347945938412817  0.42708458924718257  0.3307341451907684  1.0000
  C   C45       1.0  0.8348021861229108  0.6590163049209792  0.5628460823476487  1.0000
  C   C46       1.0  0.8347584463088425  0.18462582391257773  0.5730315505293893  1.0000
  O   O3        1.0  0.8925903628965431  0.42879614403703753  0.3791212199111256  1.0000
  O   O4        1.0  0.8925679005735687  0.41484376761602076  0.7567526383528038  1.0000
  O   O5        1.0  0.8925962688196681  0.610631026459342  0.5610958252159199  1.0000
  O   O6        1.0  0.8925619426852626  0.23300889452157958  0.5747779356735261  1.0000
  O   O7        1.0  0.7769970265590489  0.6106331561097709  0.5610995005031227  1.0000
  O   O8        1.0  0.7769686584627709  0.41484745760228336  0.7567562449338785  1.0000
  O   O9        1.0  0.7769911209244423  0.42879978934999213  0.37912326500291327  1.0000
  O   O10       1.0  0.776962700703399  0.2330125305093456  0.5747800781344644  1.0000
