data_image0
_chemical_formula_structural       NC12NH6C10H10C10H10Zn2C4O8
_chemical_formula_sum              "N2 C36 H26 Zn2 O8"
_cell_length_a       10.983627670091314
_cell_length_b       15.491143632010285
_cell_length_c       15.491147000629633
_cell_angle_alpha    85.58056798590853
_cell_angle_beta     89.56664005033592
_cell_angle_gamma    89.40309238286487

_space_group_name_H-M_alt    "P 1"
_space_group_IT_number       1

loop_
  _space_group_symop_operation_xyz
  'x, y, z'

loop_
  _atom_site_type_symbol
  _atom_site_label
  _atom_site_symmetry_multiplicity
  _atom_site_fract_x
  _atom_site_fract_y
  _atom_site_fract_z
  _atom_site_occupancy
  N   N1        1.0  0.14474539088664518  0.9040187975973002  0.009908823678105303  1.0000
  C   C1        1.0  0.09073331643986807  0.8779313577079076  0.0706753568620071  1.0000
  C   C2        1.0  0.023296014580888487  0.8453540590552605  0.14655853105820726  1.0000
  C   C3        1.0  0.08827983666220199  0.8138790922258584  0.21987089710067767  1.0000
  C   C4        1.0  0.02725768592813527  0.7818121489915608  0.29456618793683  1.0000
  C   C5        1.0  0.8998131238397427  0.7806722140859287  0.2972259429620916  1.0000
  C   C6        1.0  0.8390770798343156  0.7482412616779058  0.3727673600332674  1.0000
  C   C7        1.0  0.7121009471017957  0.7469058704494476  0.37587640497614805  1.0000
  C   C8        1.0  0.6446680137202327  0.7778221453936486  0.30386372642508497  1.0000
  C   C9        1.0  0.7036462761680041  0.8103145720924788  0.2281808016590472  1.0000
  C   C10       1.0  0.8320623437719321  0.8123195189698064  0.22351037719072622  1.0000
  C   C11       1.0  0.8947164622291519  0.8448826185298711  0.1476583336858346  1.0000
  C   C12       1.0  0.8284891023167151  0.8777037318735632  0.0712062279351744  1.0000
  N   N2        1.0  0.7757030425300492  0.9039102986203976  0.010161932343589865  1.0000
  H   H1        1.0  0.18694986207260803  0.8141301697885007  0.21928382533091206  1.0000
  H   H2        1.0  0.07989148691558447  0.7578311023270783  0.35042199474428215  1.0000
  H   H3        1.0  0.8898366725863391  0.7239297474722378  0.4293964838669222  1.0000
  H   H4        1.0  0.6658181356745234  0.7218218090209824  0.43430387077124344  1.0000
  H   H5        1.0  0.5461925171945982  0.7766202391727722  0.3066612827665173  1.0000
  H   H6        1.0  0.6480925463869643  0.8336952780621664  0.17371847359208215  1.0000
  C   C13       1.0  0.4637529658488726  0.6497659232243966  0.021415397855361614  1.0000
  C   C14       1.0  0.44820009188430476  0.5890104201591765  0.9654545875583301  1.0000
  C   C15       1.0  0.4547710107202958  0.49456611951679547  0.9899713119070437  1.0000
  C   C16       1.0  0.5162004898342661  0.4595288004794459  0.06425896732225511  1.0000
  C   C17       1.0  0.5206642254404593  0.37000583964342626  0.08421394941228466  1.0000
  C   C18       1.0  0.465689557413268  0.3133567060033676  0.030107104987511343  1.0000
  C   C19       1.0  0.4042601693437052  0.348394025023444  0.9558194496124363  1.0000
  C   C20       1.0  0.3997962516486976  0.4379169858940103  0.9358644674421341  1.0000
  C   C21       1.0  0.4722605672936663  0.21891240534371356  0.05462382937636101  1.0000
  C   C22       1.0  0.45670705623003754  0.1581568344731995  0.9986630852506122  1.0000
  H   H7        1.0  0.46527848038685105  0.866978791574403  0.0401371511577272  1.0000
  H   H8        1.0  0.48068720112672875  0.6318480610356475  0.0891054752001953  1.0000
  H   H9        1.0  0.42582505762817346  0.6091243812377359  0.8988299540343063  1.0000
  H   H10       1.0  0.5628299448597207  0.5004538943331719  0.10650444461881114  1.0000
  H   H11       1.0  0.5686004868408472  0.3448089394622542  0.14177830629356358  1.0000
  H   H12       1.0  0.3576305313192214  0.30746899587083376  0.9135739705072856  1.0000
  H   H13       1.0  0.3518601714269086  0.4631139507072047  0.8783001089128055  1.0000
  H   H14       1.0  0.4946358753814462  0.19879844747297198  0.12124839829687939  1.0000
  H   H15       1.0  0.4397722748975268  0.17607462883938169  0.9309730741171975  1.0000
  H   H16       1.0  0.45518053649965734  0.9409440179412178  0.9799415886740814  1.0000
  C   C23       1.0  0.4632822113577435  0.89247833924093  0.7576148481856522  1.0000
  C   C24       1.0  0.45004392213398425  0.9489069191961422  0.6881550617782539  1.0000
  C   C25       1.0  0.4556009522639022  0.924193195247715  0.5975230884893943  1.0000
  C   C26       1.0  0.5139322488214519  0.8479527647563381  0.574225965617172  1.0000
  C   C27       1.0  0.5175713106497228  0.8278663651541148  0.48780194408822064  1.0000
  C   C28       1.0  0.4648595721095837  0.8837295884825886  0.42255543724645883  1.0000
  C   C29       1.0  0.4065283649877982  0.9599700803636241  0.44585262315440843  1.0000
  C   C30       1.0  0.40288921281354734  0.9800564832427578  0.5322765799193105  1.0000
  C   C31       1.0  0.4704167834180999  0.859015929166184  0.3319234623095495  1.0000
  C   C32       1.0  0.4571778584921342  0.9154444478353778  0.2624636126256077  1.0000
  H   H17       1.0  0.4640357283827219  0.873720209197407  0.9777229527781459  1.0000
  H   H18       1.0  0.4774178952976234  0.8242838550254759  0.750217157469528  1.0000
  H   H19       1.0  0.4304269617604335  0.016214383236230926  0.6978884622294648  1.0000
  H   H20       1.0  0.5587925214904933  0.8042148939620294  0.6218805454180343  1.0000
  H   H21       1.0  0.5631065405010538  0.7687778815219725  0.47170386016728405  1.0000
  H   H22       1.0  0.3616680012743499  0.003707951175205841  0.39819804331341  1.0000
  H   H23       1.0  0.35735407330819635  0.03914496359798969  0.5483747286042964  1.0000
  H   H24       1.0  0.4900340169248723  0.7917084650742757  0.322190061978747  1.0000
  H   H25       1.0  0.44304153815161984  0.9836388675051758  0.2698613047891012  1.0000
  H   H26       1.0  0.456423342921112  0.9342023161429931  0.042355579228818385  1.0000
  Zn  Zn1       1.0  0.32682611056453365  0.9039853948891271  0.009986928672984117  1.0000
  Zn  Zn2       1.0  0.5936223087694736  0.9039369362914196  0.010091170289268092  1.0000
  C   C33       1.0  0.458376783831436  0.9076548635114364  0.167190732296988  1.0000
  C   C34       1.0  0.462074532751511  0.9002685631884007  0.8528874032920577  1.0000
  C   C35       1.0  0.4580740700476676  0.06190431141978013  0.999538355745343  1.0000
  C   C36       1.0  0.46237716935588963  0.7460180773725895  0.020539872180631243  1.0000
  O   O1        1.0  0.5629170439162094  0.9028608672641062  0.8849014712715615  1.0000
  O   O2        1.0  0.5600264259028516  0.90502511619761  0.13525556307249342  1.0000
  O   O3        1.0  0.559780605018404  0.029583537042067842  0.9998750420240134  1.0000
  O   O4        1.0  0.5631627744546774  0.778302449696559  0.020281927555991897  1.0000
  O   O5        1.0  0.35728555383492355  0.02961988150126048  0.9997961713661241  1.0000
  O   O6        1.0  0.3575313608543527  0.9050624985815432  0.13517660003753929  1.0000
  O   O7        1.0  0.3604219918629761  0.9028981724691023  0.8848214761106377  1.0000
  O   O8        1.0  0.360667721703016  0.7783397516419178  0.02020199711898174  1.0000
