data_image0
_chemical_formula_structural       NC5NC4H6C12H9C12H10Zn2C4O8
_chemical_formula_sum              "N2 C37 H25 Zn2 O8"
_cell_length_a       13.854160002989762
_cell_length_b       14.994057918209652
_cell_length_c       14.388129018870245
_cell_angle_alpha    83.27612054347796
_cell_angle_beta     90.8946737700517
_cell_angle_gamma    89.99018036314698

_space_group_name_H-M_alt    "P 1"
_space_group_IT_number       1

loop_
  _space_group_symop_operation_xyz
  'x, y, z'

loop_
  _atom_site_type_symbol
  _atom_site_label
  _atom_site_symmetry_multiplicity
  _atom_site_fract_x
  _atom_site_fract_y
  _atom_site_fract_z
  _atom_site_occupancy
  N   N1        1.0  0.892025542710999  0.015864055341422392  0.9704828171658074  1.0000
  C   C1        1.0  0.8190697351717581  0.03292820714794664  0.9322518552622157  1.0000
  C   C2        1.0  0.728311668534308  0.054156491234022  0.8846910747912444  1.0000
  C   C3        1.0  0.6414972308965066  0.03413485585205112  0.9311299958602641  1.0000
  C   C4        1.0  0.5531692559180077  0.054156500674148685  0.8846910597877995  1.0000
  C   C5        1.0  0.46396159478661425  0.03292811374308279  0.9322519145803707  1.0000
  N   N2        1.0  0.39225197211950474  0.01586401606724253  0.9704828171070021  1.0000
  C   C6        1.0  0.5516884833137149  0.09457439351178086  0.7918255273190657  1.0000
  C   C7        1.0  0.6384688564225527  0.11592857265630775  0.7453197213334879  1.0000
  C   C8        1.0  0.6368347230884831  0.156781495765433  0.6450151709204786  1.0000
  C   C9        1.0  0.7267655714012117  0.0945743949383324  0.7918254688646307  1.0000
  H   H1        1.0  0.6426686390756083  0.0027833467219260414  0.0030062080878132664  1.0000
  H   H2        1.0  0.4832284620882628  0.10943521334702644  0.7557938259284023  1.0000
  H   H3        1.0  0.7014313524702226  0.19953445076791107  0.6296164193270282  1.0000
  H   H4        1.0  0.5717228754950145  0.1995344503093836  0.6296164614689816  1.0000
  H   H5        1.0  0.636093451991936  0.1025676527800765  0.598680620925243  1.0000
  H   H6        1.0  0.7940514202600752  0.1094352850498985  0.7557937706203464  1.0000
  C   C10       1.0  0.14218343978935288  0.7538962120578906  0.9704732059733928  1.0000
  C   C11       1.0  0.19900812525684175  0.698960992246716  0.03572212871631075  1.0000
  C   C12       1.0  0.1989604607584725  0.6057358619269716  0.035760757735690436  1.0000
  C   C13       1.0  0.14216955817727106  0.5653933712121944  0.9705228979705205  1.0000
  C   C14       1.0  0.08539939610672075  0.6204277006568498  0.9052766366161847  1.0000
  C   C15       1.0  0.08538434080399628  0.7136509632801654  0.9052874264631643  1.0000
  C   C16       1.0  0.14214708864787706  0.4663185762257634  0.9705305620006633  1.0000
  C   C17       1.0  0.14225839561312026  0.4281396909331218  0.8858350757891047  1.0000
  C   C18       1.0  0.14227743846223845  0.3349153308540895  0.8858342971285482  1.0000
  C   C19       1.0  0.14210347777303967  0.27782466923714594  0.9705005183233839  1.0000
  C   C20       1.0  0.1419517545580078  0.315900230413892  0.05523100593239516  1.0000
  C   C21       1.0  0.1420142075483517  0.40912095882102273  0.05523200044870315  1.0000
  H   H7        1.0  0.24378070749762695  0.7279908191459916  0.08669193364910399  1.0000
  H   H8        1.0  0.24443020308007152  0.5652700917335685  0.08611094761335306  1.0000
  H   H9        1.0  0.039914814117399944  0.5912944893887293  0.8549347982870708  1.0000
  H   H10       1.0  0.040619802982105636  0.7541222497888301  0.8543031973033184  1.0000
  H   H11       1.0  0.14364169862541964  0.4703925151630968  0.8194679866331183  1.0000
  H   H12       1.0  0.1426757707920083  0.3076425535871169  0.8194077335612873  1.0000
  H   H13       1.0  0.1421415729574586  0.07465904198869609  0.8848197213977955  1.0000
  H   H14       1.0  0.14153768012353107  0.2736742464134563  0.1216512728329937  1.0000
  H   H15       1.0  0.14064778934131936  0.436466345072739  0.12159668648518629  1.0000
  C   C22       1.0  0.137696030637644  0.026393101428341385  0.6963877586749971  1.0000
  C   C23       1.0  0.1019281075866254  0.1110218231424582  0.7119309839328979  1.0000
  C   C24       1.0  0.07543995516500557  0.17392765298558643  0.6365482796333624  1.0000
  C   C25       1.0  0.08422713618885957  0.1533298841147084  0.544930498322294  1.0000
  C   C26       1.0  0.11972590537560701  0.0691278660345116  0.5275653733303776  1.0000
  C   C27       1.0  0.12898016460222173  0.047126504808046685  0.43007870343511995  1.0000
  C   C28       1.0  0.16352748524906016  0.11140132757753497  0.35947567569969796  1.0000
  C   C29       1.0  0.17227842650811764  0.09070333541867948  0.2677449324243728  1.0000
  C   C30       1.0  0.14659082819826996  0.005327798927612816  0.2445859956389791  1.0000
  C   C31       1.0  0.11197332766423962  0.9410207344848214  0.31509811902714  1.0000
  C   C32       1.0  0.10329719595243665  0.9616973386928835  0.40683947316151725  1.0000
  C   C33       1.0  0.1463478185664373  0.006021789361361442  0.6039069107546557  1.0000
  H   H16       1.0  0.2210029506964785  0.8295593826933894  0.8142323846576118  1.0000
  H   H17       1.0  0.0943885394238877  0.12865639153627872  0.782322310537908  1.0000
  H   H18       1.0  0.047724742796729336  0.23885008762580193  0.6491966114113953  1.0000
  H   H19       1.0  0.06204679693903658  0.2028192892611509  0.48768109165472134  1.0000
  H   H20       1.0  0.18503398017509373  0.1774196676010293  0.3754325664877699  1.0000
  H   H21       1.0  0.1994220036178842  0.14161519948678225  0.21505341632040786  1.0000
  H   H22       1.0  0.19691352756496638  0.03383307935816671  0.01123114432282857  1.0000
  H   H23       1.0  0.09131013465307469  0.8746966200373164  0.2993938255970052  1.0000
  H   H24       1.0  0.07523525811874544  0.9111456327604671  0.4593955963902603  1.0000
  H   H25       1.0  0.17505697705367443  0.9414699025728666  0.5910983018080316  1.0000
  Zn  Zn1       1.0  0.03638017822345917  0.015861448278726018  0.9704882130068404  1.0000
  Zn  Zn2       1.0  0.24789746327758713  0.015859028497895222  0.9704850866316364  1.0000
  C   C34       1.0  0.14490793429643323  0.005755710736133008  0.1409645843263208  1.0000
  C   C35       1.0  0.13937201828141965  0.025965888084487524  0.8000088069499383  1.0000
  C   C36       1.0  0.14205325052967185  0.17893397279841466  0.9667758377055419  1.0000
  C   C37       1.0  0.14222663084318965  0.8527865523170515  0.9741976032793886  1.0000
  O   O1        1.0  0.22020420298563456  0.025817701212117676  0.8347837906949613  1.0000
  O   O2        1.0  0.22461247051453825  0.005901398390591564  0.10618695900754016  1.0000
  O   O3        1.0  0.22230621094417646  0.145744997861456  0.9655283137613362  1.0000
  O   O4        1.0  0.2225103892429452  0.8859741108129587  0.9754423659570248  1.0000
  O   O5        1.0  0.06176718007755277  0.14574636596564816  0.9655309336776094  1.0000
  O   O6        1.0  0.06407343867235714  0.005903840201922915  0.10618952921129976  1.0000
  O   O7        1.0  0.059665153003790834  0.02582015505929601  0.8347852386804864  1.0000
  O   O8        1.0  0.061971340393603726  0.885976555590417  0.9754438839228479  1.0000
