data_image0
_chemical_formula_structural       NC6NC2H4C7NH3C6ClH4Zn2C4O8
_chemical_formula_sum              "N3 C25 H11 Cl1 Zn2 O8"
_cell_length_a       14.927258858638513
_cell_length_b       9.275154477615127
_cell_length_c       9.276548810779733
_cell_angle_alpha    86.30571482512589
_cell_angle_beta     89.72476428372391
_cell_angle_gamma    89.43371000992973

_space_group_name_H-M_alt    "P 1"
_space_group_IT_number       1

loop_
  _space_group_symop_operation_xyz
  'x, y, z'

loop_
  _atom_site_type_symbol
  _atom_site_label
  _atom_site_symmetry_multiplicity
  _atom_site_fract_x
  _atom_site_fract_y
  _atom_site_fract_z
  _atom_site_occupancy
  N   N1        1.0  0.8386936879678549  0.56343544026264  0.41675120088898066  1.0000
  C   C1        1.0  0.7611671969433818  0.5634354118549088  0.4167512113607297  1.0000
  C   C2        1.0  0.6647346888426146  0.5634355264766651  0.4167511619754942  1.0000
  C   C3        1.0  0.618213207563262  0.5385931681645293  0.2900186161756002  1.0000
  C   C4        1.0  0.5245018964677551  0.538593192577819  0.2900184828688832  1.0000
  C   C5        1.0  0.4769186258865386  0.5634353491297732  0.4167511798939738  1.0000
  C   C6        1.0  0.3804860507942355  0.5634354637544392  0.41675113050282797  1.0000
  N   N2        1.0  0.3029595597697623  0.5634354353467078  0.416751140974577  1.0000
  C   C7        1.0  0.5234400401743552  0.5882777074448189  0.5434837256879574  1.0000
  C   C8        1.0  0.6171513512698618  0.5882776830315295  0.5434838589946744  1.0000
  H   H1        1.0  0.6543224697085119  0.5192644115942701  0.19141342210790557  1.0000
  H   H2        1.0  0.4892188129971986  0.5192646090499491  0.19141341795759614  1.0000
  H   H3        1.0  0.48733084475181176  0.6076064546857295  0.6420890277595541  1.0000
  H   H4        1.0  0.6524344338049464  0.6076063648740649  0.6420890342796701  1.0000
  C   C9        1.0  0.07342833224337203  0.14003091090736985  0.41508367170249594  1.0000
  C   C10       1.0  0.049224922055178394  0.222050212599745  0.2880302891710944  1.0000
  C   C11       1.0  0.01771438056171439  0.15491344041333277  0.1677071143893365  1.0000
  C   C12       1.0  0.009886699029046713  0.004841416011286408  0.17302025586431213  1.0000
  C   C13       1.0  0.034929201345229165  0.921588002893602  0.2971775576147424  1.0000
  C   C14       1.0  0.06823353875696081  0.9868289861039408  0.418431153393618  1.0000
  C   C15       1.0  0.9923237935212466  0.2405005760487171  0.03912240735235861  1.0000
  N   N3        1.0  0.9719168127488437  0.3092970277155733  0.9357732395710996  1.0000
  H   H5        1.0  0.08972304530459813  0.21993078914440467  0.7687983421732456  1.0000
  H   H6        1.0  0.9851915294780182  0.9518706914766959  0.0805443391852696  1.0000
  H   H7        1.0  0.083010311090701  0.6902221422673418  0.6554300436122094  1.0000
  C   C16       1.0  0.0721173246230325  0.559567162346823  0.9935927672850289  1.0000
  C   C17       1.0  0.1469278608612532  0.6143758991915453  0.06291589458739266  1.0000
  C   C18       1.0  0.2166480268930696  0.6799309167744944  0.9829425589722782  1.0000
  C   C19       1.0  0.21260262271524977  0.6917806208024363  0.8325498758016576  1.0000
  C   C20       1.0  0.13975024730285873  0.6359605093425178  0.7615736439914267  1.0000
  C   C21       1.0  0.06954451923400279  0.5672926527961344  0.8399220440397848  1.0000
  Cl  Cl1       1.0  0.3087068551541958  0.7493559590333976  0.07172145805148178  1.0000
  H   H8        1.0  0.9644140654918301  0.3981844127218153  0.28595696321488684  1.0000
  H   H9        1.0  0.26637575858827633  0.7430722833769474  0.7702633744094807  1.0000
  H   H10       1.0  0.13937564450084894  0.6434838025904845  0.6445550928515593  1.0000
  H   H11       1.0  0.9259660930443676  0.5144316695277682  0.5631169961187137  1.0000
  Zn  Zn1       1.0  0.9726707962439056  0.5634316513600321  0.4167594948491158  1.0000
  Zn  Zn2       1.0  0.16898249889215733  0.5634275220866849  0.4167546211371209  1.0000
  C   C22       1.0  0.07006408989066575  0.5600884791551417  0.6799249578439697  1.0000
  C   C23       1.0  0.07159133737279522  0.5667725147708171  0.15358930671656967  1.0000
  C   C24       1.0  0.06922830674537568  0.8267136872422398  0.412056033555946  1.0000
  C   C25       1.0  0.07242706392400655  0.3001455751025077  0.421458300985208  1.0000
  O   O1        1.0  0.14591411790295306  0.5691828395914759  0.2072837325222885  1.0000
  O   O2        1.0  0.14473735726065817  0.5576739288144572  0.6262264138865584  1.0000
  O   O3        1.0  0.14406144296019296  0.7729771699794983  0.40992036825823286  1.0000
  O   O4        1.0  0.14658996548071201  0.3538796077557831  0.42358967014671145  1.0000
  O   O5        1.0  0.9950632626638145  0.772979565693844  0.40992444583361554  1.0000
  O   O6        1.0  0.9957391665668229  0.557678056112924  0.6262304214754164  1.0000
  O   O7        1.0  0.996915932843673  0.5691869008307544  0.20728600739184277  1.0000
  O   O8        1.0  0.9975917801526027  0.3538836596686227  0.42359205301425784  1.0000
