data_image0
_chemical_formula_structural       NC9NC3NH7C7F3H5C7NC2NH8Zn2C4O8
_chemical_formula_sum              "N5 C32 H20 F3 Zn2 O8"
_cell_length_a       16.053384444249904
_cell_length_b       9.272718291674593
_cell_length_c       9.27399911348925
_cell_angle_alpha    85.49165257692455
_cell_angle_beta     89.45501548333611
_cell_angle_gamma    88.75080299671951

_space_group_name_H-M_alt    "P 1"
_space_group_IT_number       1

loop_
  _space_group_symop_operation_xyz
  'x, y, z'

loop_
  _atom_site_type_symbol
  _atom_site_label
  _atom_site_symmetry_multiplicity
  _atom_site_fract_x
  _atom_site_fract_y
  _atom_site_fract_z
  _atom_site_occupancy
  N   N1        1.0  0.7830892266491718  0.5724263092892758  0.4165241534464159  1.0000
  C   C1        1.0  0.7327168966987004  0.5500372426484521  0.3331706050942398  1.0000
  C   C2        1.0  0.6701177024188653  0.5222183930092246  0.22962513179327712  1.0000
  C   C3        1.0  0.6842871943162318  0.5100613947769015  0.08423907029784372  1.0000
  C   C4        1.0  0.6079819369081062  0.4824434034165193  0.02595653932983688  1.0000
  C   C5        1.0  0.5505114097312932  0.4792888424663453  0.13892841599897676  1.0000
  C   C6        1.0  0.4600118329405596  0.45294033155645136  0.12734100440532847  1.0000
  C   C7        1.0  0.4035561786948529  0.4994611143942833  0.2320591845795605  1.0000
  C   C8        1.0  0.3181529772174292  0.474472930917756  0.22096251545330725  1.0000
  C   C9        1.0  0.2608999254276829  0.5229081534627771  0.32833126685577074  1.0000
  N   N2        1.0  0.2148852217934585  0.5618432565964884  0.4146389344283785  1.0000
  C   C10       1.0  0.2884798846489812  0.40283950800976287  0.10516196172231163  1.0000
  C   C11       1.0  0.3439256135531939  0.3564494946546364  0.0006800151896773089  1.0000
  C   C12       1.0  0.4291251428780206  0.3812574855422888  0.011334567104664295  1.0000
  N   N3        1.0  0.5891681097243265  0.5037245548133069  0.26309310782922934  1.0000
  H   H1        1.0  0.7431754941397416  0.5201422995649914  0.026950403329662143  1.0000
  H   H2        1.0  0.5961701690704254  0.46812084147927074  0.9134040192243584  1.0000
  H   H3        1.0  0.4253208726192171  0.5569370097700446  0.321180274350239  1.0000
  H   H4        1.0  0.2225755683072397  0.3829735333068589  0.0956399207327596  1.0000
  H   H5        1.0  0.3208636040917984  0.3007985295537272  0.9113128338213592  1.0000
  H   H6        1.0  0.4706911399908549  0.34260842581361084  0.9296361109973534  1.0000
  H   H7        1.0  0.562642000385215  0.50546504022197  0.3661969005137937  1.0000
  C   C13       1.0  0.0008163800800369298  0.14373490368295205  0.41238545882941313  1.0000
  C   C14       1.0  0.9503638631152572  0.22714797131995515  0.31286735846582503  1.0000
  C   C15       1.0  0.8939777701338473  0.16176352152051265  0.22476264488985231  1.0000
  C   C16       1.0  0.8902622194437485  0.010492831677789478  0.23321645195256102  1.0000
  C   C17       1.0  0.940787505265621  0.9261459648633352  0.329611254580378  1.0000
  C   C18       1.0  0.9971660136759349  0.9905232992808172  0.4187900166236777  1.0000
  C   C19       1.0  0.8420405900188437  0.25288983226474704  0.11606945209310293  1.0000
  F   F1        1.0  0.8204555075722357  0.3843837924523572  0.1686149209476946  1.0000
  F   F2        1.0  0.7694125677305197  0.18353062982252233  0.0862339130884222  1.0000
  F   F3        1.0  0.8874110049753692  0.27765498058187466  0.9894514000436492  1.0000
  H   H8        1.0  0.09869872204054952  0.217331269450344  0.7234237113482636  1.0000
  H   H9        1.0  0.9537121124335377  0.34409291902965733  0.3061355783427002  1.0000
  H   H10       1.0  0.8488498054575395  0.95701633456349  0.16399597203077865  1.0000
  H   H11       1.0  0.9373804419106525  0.8094435613743786  0.33156790372659106  1.0000
  H   H12       1.0  0.1754438216222074  0.8687355661046607  0.5917158071936757  1.0000
  C   C20       1.0  0.00041426674775002644  0.5707839137716026  0.9917579538279542  1.0000
  C   C21       1.0  0.06611560888401202  0.500140940268204  0.06943475632127116  1.0000
  C   C22       1.0  0.1263459807649261  0.4193685256697132  0.9999213103957801  1.0000
  C   C23       1.0  0.122496430640723  0.4064615109298551  0.8505436242679274  1.0000
  C   C24       1.0  0.05803854232100547  0.47950862074045525  0.7713211186154325  1.0000
  C   C25       1.0  0.9975681409926123  0.5634743000499904  0.8394174320169231  1.0000
  C   C26       1.0  0.18681035678439573  0.31866315350039365  0.7789167069690004  1.0000
  N   N4        1.0  0.2567986331604821  0.26657566277231043  0.8462698822988884  1.0000
  C   C27       1.0  0.29744340011958137  0.19344459126322433  0.7462251499699561  1.0000
  C   C28       1.0  0.25190127038287025  0.20174566299926647  0.6209361229030721  1.0000
  N   N5        1.0  0.18232130874674346  0.28043138824556446  0.64165381157573  1.0000
  H   H13       1.0  0.9109395007772058  0.7549448404924599  0.260098782473525  1.0000
  H   H14       1.0  0.06987134228744907  0.5043390399266956  0.185601880948236  1.0000
  H   H15       1.0  0.1754360909847421  0.3650559161240996  0.06403398163242313  1.0000
  H   H16       1.0  0.05599439318642597  0.4756579187353318  0.6551956147316824  1.0000
  H   H17       1.0  0.8672195003907491  0.6480361508963721  0.5548383330474538  1.0000
  H   H18       1.0  0.3566193182623161  0.13712421233744054  0.7639212200350745  1.0000
  H   H19       1.0  0.2681014518800233  0.15320978385694506  0.5218094953119929  1.0000
  H   H20       1.0  0.13509162924796003  0.30344083594069887  0.5663194936127605  1.0000
  Zn  Zn1       1.0  0.9076962098882267  0.5693683518377859  0.4159884179536337  1.0000
  Zn  Zn2       1.0  0.09027822612486558  0.5648893658561929  0.4151863770961668  1.0000
  C   C29       1.0  0.9981290210253057  0.5591121440133837  0.6791482402850864  1.0000
  C   C30       1.0  0.9998474004597941  0.57514734276118  0.15202670142400465  1.0000
  C   C31       1.0  0.9978710448226265  0.8305119738268405  0.41182803505506427  1.0000
  C   C32       1.0  0.00010532156910936065  0.3037457815483666  0.41934697077359995  1.0000
  O   O1        1.0  0.06894610569856385  0.5749057073877617  0.20550993929040962  1.0000
  O   O2        1.0  0.06760584753372756  0.5559532485480383  0.625055848269944  1.0000
  O   O3        1.0  0.06739658940078619  0.7751120534139475  0.4091929066537496  1.0000
  O   O4        1.0  0.06915530184751816  0.35574691529750835  0.4213727730421275  1.0000
  O   O5        1.0  0.9288190718593111  0.7785108039265636  0.4098020222737899  1.0000
  O   O6        1.0  0.9290283227793537  0.5593537319901045  0.6256649000365286  1.0000
  O   O7        1.0  0.9303685870424983  0.5783061555483431  0.2061172554328532  1.0000
  O   O8        1.0  0.9305777828691768  0.3591473522125268  0.42198019731516556  1.0000
