data_image0
_chemical_formula_structural       NC12NC2H8C6H6C12H9Zn2C4O8
_chemical_formula_sum              "N2 C36 H23 Zn2 O8"
_cell_length_a       19.240039667572717
_cell_length_b       10.681118228259551
_cell_length_c       14.388129018870243
_cell_angle_alpha    83.27315070133545
_cell_angle_beta     90.89466623952734
_cell_angle_gamma    89.9983060793227

_space_group_name_H-M_alt    "P 1"
_space_group_IT_number       1

loop_
  _space_group_symop_operation_xyz
  'x, y, z'

loop_
  _atom_site_type_symbol
  _atom_site_label
  _atom_site_symmetry_multiplicity
  _atom_site_fract_x
  _atom_site_fract_y
  _atom_site_fract_z
  _atom_site_occupancy
  N   N1        1.0  0.6424317594182937  0.42606921283383875  0.9704298118773438  1.0000
  C   C1        1.0  0.5822833899120172  0.4260692969933239  0.9704297529895167  1.0000
  C   C2        1.0  0.5074653516166427  0.42606941541497206  0.9704296543084157  1.0000
  C   C3        1.0  0.47186056992727865  0.35989610941972394  0.04475266954659529  1.0000
  C   C4        1.0  0.39919054989087466  0.35978583198789615  0.044814866513046  1.0000
  C   C5        1.0  0.36113311476695314  0.42606951350372246  0.9704294906704223  1.0000
  C   C6        1.0  0.397451359660121  0.49235336778390293  0.8960442546544081  1.0000
  C   C7        1.0  0.47012277721923107  0.4922428585124716  0.8961065396584189  1.0000
  C   C8        1.0  0.2839280235277252  0.4260694413519361  0.9704294220905885  1.0000
  C   C9        1.0  0.2470933872450306  0.31522980411120355  0.0005196224557429948  1.0000
  C   C10       1.0  0.17442193071515238  0.3153364281782096  0.00045398771849136985  1.0000
  C   C11       1.0  0.1375957371177455  0.42606931443012463  0.9704294658645258  1.0000
  C   C12       1.0  0.0627777020515543  0.42606919510636043  0.9704296445799585  1.0000
  N   N2        1.0  0.0026293869493427056  0.42606914765828985  0.970429794375002  1.0000
  C   C13       1.0  0.1737170539318675  0.5368022758527164  0.9404049059988833  1.0000
  C   C14       1.0  0.24638698063656583  0.5369090799133949  0.9403391544061386  1.0000
  H   H1        1.0  0.5002538669139368  0.3086370297151088  0.10278198096153834  1.0000
  H   H2        1.0  0.3727850242036999  0.30925307606296526  0.10364594454359277  1.0000
  H   H3        1.0  0.3696703541319799  0.5428861517670356  0.8372131400786123  1.0000
  H   H4        1.0  0.4971592540119475  0.5435018308399356  0.8380774264616426  1.0000
  H   H5        1.0  0.2744496305995133  0.22804974339380177  0.02291792670860726  1.0000
  H   H6        1.0  0.1469787126431585  0.22898337670563418  0.023594737966442406  1.0000
  H   H7        1.0  0.1457304486785725  0.6231553031004545  0.9172641662079688  1.0000
  H   H8        1.0  0.2732172157223018  0.6240892187160185  0.9179408179771926  1.0000
  C   C15       1.0  0.8225339667925813  0.05831897152364341  0.970433806641416  1.0000
  C   C16       1.0  0.853911013933326  0.9798070485622177  0.044561267822723294  1.0000
  C   C17       1.0  0.8539110028087894  0.8489248126884191  0.04456122514808048  1.0000
  C   C18       1.0  0.8225339555945994  0.7938093733038876  0.9704338469910893  1.0000
  C   C19       1.0  0.791182881240169  0.8723065920966679  0.8963676428226026  1.0000
  C   C20       1.0  0.7911828922739443  0.0031988481519791335  0.8963676807058385  1.0000
  H   H9        1.0  0.7908030959394806  0.36885879095074703  0.8954712589739984  1.0000
  H   H10       1.0  0.8785058646787414  0.01944833440901948  0.10266584142832869  1.0000
  H   H11       1.0  0.8785057790336559  0.7909443067026865  0.10266582494050835  1.0000
  H   H12       1.0  0.766584823543655  0.8327112585496865  0.8382554825545518  1.0000
  H   H13       1.0  0.7665848052366219  0.061135697992994655  0.8382554749648252  1.0000
  H   H14       1.0  0.7908033488831886  0.5069294536814641  0.895471006480439  1.0000
  C   C21       1.0  0.8193326682612244  0.4408498918851373  0.6963341730467276  1.0000
  C   C22       1.0  0.7935865889617304  0.5596516235648523  0.711872997001106  1.0000
  C   C23       1.0  0.7745201993962071  0.6479587770603203  0.6364870211320777  1.0000
  C   C24       1.0  0.7808453141745576  0.6190436456405501  0.5448703110427666  1.0000
  C   C25       1.0  0.8063976309597426  0.5008409201754915  0.5275095651743373  1.0000
  C   C26       1.0  0.813058920115374  0.46995542692611547  0.4300240395142749  1.0000
  C   C27       1.0  0.8379424452689174  0.5601843746970872  0.3594176609434405  1.0000
  C   C28       1.0  0.8442414538945813  0.5311285499020628  0.2676879941124988  1.0000
  C   C29       1.0  0.8257352230125898  0.41127843712615864  0.24453350555936937  1.0000
  C   C30       1.0  0.8008011599405496  0.3210042285158372  0.31504898147071714  1.0000
  C   C31       1.0  0.7945560170152666  0.3500300289260015  0.4067892602644254  1.0000
  C   C32       1.0  0.8255603155288341  0.41225266034308783  0.603854384575954  1.0000
  H   H15       1.0  0.8792977841191775  0.16453487536900413  0.8141890357862653  1.0000
  H   H16       1.0  0.7881595161315293  0.5844070165308373  0.7822634064927669  1.0000
  H   H17       1.0  0.7545704633751963  0.739096838733979  0.6491319765117065  1.0000
  H   H18       1.0  0.7648793737692327  0.6885168328366236  0.48761833073491934  1.0000
  H   H19       1.0  0.8534358650841726  0.6528608699714311  0.37537111183184724  1.0000
  H   H20       1.0  0.8637923028126522  0.6025985863062413  0.21499382385240207  1.0000
  H   H21       1.0  0.7859149422568992  0.2278984873862282  0.2993481437492138  1.0000
  H   H22       1.0  0.7743439244055987  0.27906558218530536  0.459348019018808  1.0000
  H   H23       1.0  0.8462258022587722  0.32163477350448666  0.5910491326059082  1.0000
  Zn  Zn1       1.0  0.7463770860577171  0.42606556031182746  0.970435188950733  1.0000
  Zn  Zn2       1.0  0.8986841680506019  0.4260621740786672  0.9704320350031235  1.0000
  C   C33       1.0  0.824523469973039  0.4118791393041714  0.14091207218890578  1.0000
  C   C34       1.0  0.8205394483938164  0.4402501702109297  0.7999552433440142  1.0000
  C   C35       1.0  0.8224869318857371  0.6549866482606874  0.9667143098393902  1.0000
  C   C36       1.0  0.8225759350906005  0.1971411539879526  0.9741530554581099  1.0000
  O   O1        1.0  0.8787441986918039  0.4400421496663663  0.8347302242189738  1.0000
  O   O2        1.0  0.8819162676235508  0.4120836595341759  0.10613442884787039  1.0000
  O   O3        1.0  0.8802709695296931  0.6083959951934788  0.9654685032887728  1.0000
  O   O4        1.0  0.8803894439961887  0.24372982674191276  0.975396079793469  1.0000
  O   O5        1.0  0.7646717581371407  0.6083979076513653  0.9654711441565549  1.0000
  O   O6        1.0  0.7663170556465272  0.41208707926130667  0.10613701994723901  1.0000
  O   O7        1.0  0.7631449736542901  0.44004558628940876  0.8347316930994839  1.0000
  O   O8        1.0  0.7647902197731585  0.24373325063288878  0.9753976186547484  1.0000
