data_image0
_chemical_formula_structural       NC9NC3NH7C6SCNH4C7F3H5Zn2C4O8
_chemical_formula_sum              "N4 C30 H16 S1 F3 Zn2 O8"
_cell_length_a       16.053384444249904
_cell_length_b       10.302215558581763
_cell_length_c       9.272721663655245
_cell_angle_alpha    85.88255001393937
_cell_angle_beta     90.31938989593549
_cell_angle_gamma    89.19414689339631

_space_group_name_H-M_alt    "P 1"
_space_group_IT_number       1

loop_
  _space_group_symop_operation_xyz
  'x, y, z'

loop_
  _atom_site_type_symbol
  _atom_site_label
  _atom_site_symmetry_multiplicity
  _atom_site_fract_x
  _atom_site_fract_y
  _atom_site_fract_z
  _atom_site_occupancy
  N   N1        1.0  0.7764595061120171  0.3958363474700237  0.4063919132931775  1.0000
  C   C1        1.0  0.7252710877392301  0.3746254225820839  0.32328825547745343  1.0000
  C   C2        1.0  0.6616580848849466  0.3482707262254688  0.22005325314839208  1.0000
  C   C3        1.0  0.6745236059015262  0.33549005680734356  0.07490274268359931  1.0000
  C   C4        1.0  0.5975945850398107  0.30988734040382915  0.01688404246692654  1.0000
  C   C5        1.0  0.5410813336800211  0.30847244204912894  0.12976673903342117  1.0000
  C   C6        1.0  0.4503650984416786  0.2846019668643214  0.1183871303632178  1.0000
  C   C7        1.0  0.3950164052269798  0.32781072811556533  0.2226543763762765  1.0000
  C   C8        1.0  0.3094068067957286  0.3051712873505228  0.21175488888608385  1.0000
  C   C9        1.0  0.2532920081359396  0.3501372597714101  0.3186558036023204  1.0000
  N   N2        1.0  0.2081922852305735  0.3862835525511814  0.40458739800825705  1.0000
  C   C10       1.0  0.2784199263405685  0.23921120468530607  0.09660336365734445  1.0000
  C   C11       1.0  0.3327613061076385  0.19612316939539995  0.9925711416899001  1.0000
  C   C12       1.0  0.4181626308597225  0.21859478567631485  0.003030295015736155  1.0000
  N   N3        1.0  0.580914090995737  0.33204112584945356  0.2536255926490889  1.0000
  H   H1        1.0  0.7329641375511641  0.3438440619031906  0.01759613068645294  1.0000
  H   H2        1.0  0.584751517208216  0.2955710847658078  0.9045504552767598  1.0000
  H   H3        1.0  0.4178026228072865  0.3806866965714035  0.31125849357079693  1.0000
  H   H4        1.0  0.2123455028326834  0.22120368220607722  0.08723878316794687  1.0000
  H   H5        1.0  0.3086837631413815  0.14488726757335393  0.9037075861108823  1.0000
  H   H6        1.0  0.4588545459721262  0.1827642060110335  0.9217011844790903  1.0000
  H   H7        1.0  0.5552821583223956  0.3349092243206335  0.35661358871601556  1.0000
  C   C13       1.0  0.9922469212002075  0.009789305260520242  0.40545027586466015  1.0000
  C   C14       1.0  0.07597365804891898  0.004092672065947322  0.45047325668893023  1.0000
  C   C15       1.0  0.11764205611537237  0.8842193084557651  0.47333460675114214  1.0000
  C   C16       1.0  0.07619082488361584  0.7689132706267012  0.45059444448186864  1.0000
  C   C17       1.0  0.9924128582393007  0.7723204966850129  0.4055414114916045  1.0000
  C   C18       1.0  0.950891914021687  0.893268165410038  0.3832726028134379  1.0000
  S   S1        1.0  0.2246082610555573  0.8784615935308879  0.5302140754248119  1.0000
  C   C19       1.0  0.1980862012406186  0.8671423364909253  0.7151025643524805  1.0000
  N   N4        1.0  0.180673292158396  0.8597225507623768  0.8363128900860638  1.0000
  H   H8        1.0  0.10914211946491757  0.0924218201083189  0.4682270556053949  1.0000
  H   H9        1.0  0.10950814547974397  0.6769577921218065  0.46843138536340745  1.0000
  H   H10       1.0  0.8863185438892177  0.8968120761639222  0.34856930756170956  1.0000
  H   H11       1.0  0.8345264135168405  0.5715341597992115  0.32047319186166234  1.0000
  C   C20       1.0  0.9901252785510319  0.38899784132607795  0.9820615983524498  1.0000
  C   C21       1.0  0.025557562419974866  0.282015638349169  0.0646230437999078  1.0000
  C   C22       1.0  0.06829310488789875  0.18259475170944683  0.9985275505878843  1.0000
  C   C23       1.0  0.0730435844693742  0.1884684419941769  0.8473585962432932  1.0000
  C   C24       1.0  0.03711699243705002  0.2927583783109  0.7638305892331201  1.0000
  C   C25       1.0  0.9945345478577112  0.3931120087950887  0.8289301041350816  1.0000
  C   C26       1.0  0.10392061414308551  0.06702154840047347  0.08871216238809843  1.0000
  F   F1        1.0  0.13198390830387496  0.1041357827559597  0.22083236077380408  1.0000
  F   F2        1.0  0.17031372015213897  0.01184873676367748  0.019308269892950095  1.0000
  F   F3        1.0  0.0427396760933163  0.974919295031371  0.11199233201482774  1.0000
  H   H12       1.0  0.9373865672455918  0.6993405200766118  0.0585386739215108  1.0000
  H   H13       1.0  0.02139690424800711  0.27749502683276295  0.18148551210767394  1.0000
  H   H14       1.0  0.10381822781394301  0.11151745286512393  0.7933129170422074  1.0000
  H   H15       1.0  0.04068685363497315  0.2930946421518008  0.6471611006802562  1.0000
  H   H16       1.0  0.845085391286263  0.6154069994462719  0.7082902994162348  1.0000
  Zn  Zn1       1.0  0.9010483005157598  0.3930761949895749  0.40587948805277185  1.0000
  Zn  Zn2       1.0  0.08360352642384047  0.38903318461076997  0.4051116069935241  1.0000
  C   C27       1.0  0.9936981002796119  0.38716202359323826  0.6688532299580848  1.0000
  C   C28       1.0  0.9909557212507923  0.3949489507422601  0.14213799842496755  1.0000
  C   C29       1.0  0.9923473101962215  0.6281580737035191  0.39977823514275745  1.0000
  C   C30       1.0  0.9923064491015879  0.15395134248470055  0.4112130701915233  1.0000
  O   O1        1.0  0.060513181011752286  0.3954062317771323  0.19556969306788208  1.0000
  O   O2        1.0  0.06269583056817395  0.3836352097433136  0.6148383161600444  1.0000
  O   O3        1.0  0.0616041243882921  0.5782425959853632  0.39755835818621343  1.0000
  O   O4        1.0  0.06160482433701798  0.2007988556772844  0.41284954318966394  1.0000
  O   O5        1.0  0.9230469403054039  0.5813105253041178  0.3981415521110878  1.0000
  O   O6        1.0  0.9241386464207019  0.3867046985904044  0.615421433388146  1.0000
  O   O7        1.0  0.9219559878836631  0.39847566695662423  0.19615107666569376  1.0000
  O   O8        1.0  0.9230476317663667  0.2038682820956328  0.4134310348939805  1.0000
