data_image0
_chemical_formula_structural       NC8NC6H8C7OCH9C6NO2H3Zn2C4O8
_chemical_formula_sum              "N3 C32 H20 O11 Zn2"
_cell_length_a       17.457602349358154
_cell_length_b       10.300832083147542
_cell_length_c       9.273395971720356
_cell_angle_alpha    84.94403115029091
_cell_angle_beta     92.78021970675468
_cell_angle_gamma    91.68357009181102

_space_group_name_H-M_alt    "P 1"
_space_group_IT_number       1

loop_
  _space_group_symop_operation_xyz
  'x, y, z'

loop_
  _atom_site_type_symbol
  _atom_site_label
  _atom_site_symmetry_multiplicity
  _atom_site_fract_x
  _atom_site_fract_y
  _atom_site_fract_z
  _atom_site_occupancy
  N   N1        1.0  0.7239153598912922  0.4671405277538308  0.4727735162474227  1.0000
  C   C1        1.0  0.6628521339085457  0.4213309956169087  0.46099165289582417  1.0000
  C   C2        1.0  0.5868868865172299  0.3643495512075159  0.4463456187576933  1.0000
  C   C3        1.0  0.5282703274500221  0.40372052707105116  0.5295803656650317  1.0000
  C   C4        1.0  0.4537423416805387  0.34885069772194527  0.5156164740616278  1.0000
  C   C5        1.0  0.3915297021943018  0.39041814196219926  0.6037652772109399  1.0000
  C   C6        1.0  0.3170458072416536  0.40947106289491303  0.5417759096936762  1.0000
  C   C7        1.0  0.25842913208093005  0.4486569949188058  0.6251307202266059  1.0000
  C   C8        1.0  0.18250958271753792  0.4683390030137349  0.5606785903678204  1.0000
  N   N2        1.0  0.12148318171969992  0.484156956806174  0.5088592483159983  1.0000
  C   C9        1.0  0.2738035938143164  0.4690277804480045  0.7710400317787516  1.0000
  C   C10       1.0  0.3475023196100168  0.45035973721434486  0.8334600721246803  1.0000
  C   C11       1.0  0.4061068561305705  0.4113490320455542  0.7506139583644551  1.0000
  C   C12       1.0  0.4391212379968158  0.25394759583486765  0.4168253784964677  1.0000
  C   C13       1.0  0.49772560573075464  0.21485107041660756  0.3340351356132847  1.0000
  C   C14       1.0  0.5714681903774601  0.2698274844678161  0.34861026388986893  1.0000
  H   H1        1.0  0.5405339414023254  0.47820775764153606  0.6036126958353467  1.0000
  H   H2        1.0  0.30481836711167865  0.3955745687941499  0.4283794664352645  1.0000
  H   H3        1.0  0.22887358547242015  0.4992893344389029  0.8364253050148363  1.0000
  H   H4        1.0  0.3592163888800883  0.46581767646400973  0.9464410278206354  1.0000
  H   H5        1.0  0.4625405563831907  0.3958739026810296  0.8018679746667075  1.0000
  H   H6        1.0  0.3826512984701614  0.20872805892083582  0.4050031429475589  1.0000
  H   H7        1.0  0.48597711029735996  0.14149279823392513  0.25867041692018455  1.0000
  H   H8        1.0  0.6163977063608624  0.2386909372835411  0.283793451747659  1.0000
  C   C15       1.0  0.9227241967731111  0.09431162945067517  0.490970131596943  1.0000
  C   C16       1.0  0.9015207858809029  0.10419648104297742  0.34245705593326237  1.0000
  C   C17       1.0  0.8899484393549826  0.9919842126770335  0.26802943260951606  1.0000
  C   C18       1.0  0.9014658007328495  0.8689387769502125  0.34207063236943447  1.0000
  C   C19       1.0  0.9226816883950671  0.8569760273571698  0.4906758148425572  1.0000
  C   C20       1.0  0.9330064263030471  0.9701942703337325  0.5643200183564185  1.0000
  C   C21       1.0  0.8694618298060346  0.0038620877554411724  0.10826094095176872  1.0000
  O   O1        1.0  0.9376825950610465  0.01347304570207931  0.03192474535521338  1.0000
  C   C22       1.0  0.9192233761429434  0.024706672568586066  0.8817236456124372  1.0000
  H   H9        1.0  0.8939349421887933  0.1990992341482205  0.284055988439065  1.0000
  H   H10       1.0  0.8938415125838375  0.7826949310962484  0.28340422184728054  1.0000
  H   H11       1.0  0.9493659364014715  0.9618081084433202  0.6788560846506946  1.0000
  H   H12       1.0  0.9635456948939403  0.6272298132911441  0.7706444021228618  1.0000
  H   H13       1.0  0.8341672991490191  0.09184938100431574  0.08092328163555118  1.0000
  H   H14       1.0  0.8341984386420929  0.9167643576259199  0.08059508341819721  1.0000
  H   H15       1.0  0.973331250973265  0.03215637372709247  0.8232251378209432  1.0000
  H   H16       1.0  0.8865787253013255  0.1145004123045821  0.8486553102993151  1.0000
  H   H17       1.0  0.8865924245365269  0.9370223448759482  0.8482988119454051  1.0000
  C   C23       1.0  0.9231392618582304  0.4796518184777834  0.06692432987529016  1.0000
  C   C24       1.0  0.85476393539411  0.5063650823574399  0.13129356813079163  1.0000
  C   C25       1.0  0.7861745653202171  0.5207903619901492  0.04863193267096899  1.0000
  C   C26       1.0  0.7840146634162753  0.5087677987536161  0.8991457926789703  1.0000
  C   C27       1.0  0.8523488710550312  0.48427787257540317  0.8333342967482665  1.0000
  C   C28       1.0  0.9222665780283871  0.4716358352629287  0.9147216077472828  1.0000
  N   N3        1.0  0.7128975171964559  0.5226521271260527  0.8145468008314268  1.0000
  O   O2        1.0  0.64622905860083  0.5477064150924351  0.8792595186644174  1.0000
  O   O3        1.0  0.7104550135600226  0.5118458341688319  0.6813336381184327  1.0000
  H   H18       1.0  0.0910102210867254  0.3413584510873773  0.1986387118829635  1.0000
  H   H19       1.0  0.7345451944079036  0.5401133061864771  0.10232050951286475  1.0000
  H   H20       1.0  0.0367243715971004  0.3823870434081327  0.6536970996233875  1.0000
  Zn  Zn1       1.0  0.8386448369806875  0.4720475403854499  0.48319541505868496  1.0000
  Zn  Zn2       1.0  0.0067536788092683675  0.4792391854980476  0.4984491718655195  1.0000
  C   C29       1.0  0.9224301264535193  0.46797771004805466  0.7544715928496153  1.0000
  C   C30       1.0  0.9229702248425479  0.48331073151165255  0.22717330169410244  1.0000
  C   C31       1.0  0.9226916755608001  0.7128704424966537  0.484978765309648  1.0000
  C   C32       1.0  0.9227086183792619  0.23841643570859894  0.49666620159119124  1.0000
  O   O4        1.0  0.9867099241592149  0.48726222272094494  0.2867430439279832  1.0000
  O   O5        1.0  0.986281148793285  0.46948353536380677  0.706478683925494  1.0000
  O   O6        1.0  0.9864914914537736  0.6672374629247462  0.48886124042352463  1.0000
  O   O7        1.0  0.9864995242454563  0.28950830301879044  0.5043603739875426  1.0000
  O   O8        1.0  0.85889893417721  0.6617784204120369  0.4772842077237098  1.0000
  O   O9        1.0  0.858688591505437  0.4640260537528811  0.6949015736556057  1.0000
  O   O10       1.0  0.8591173687113414  0.48180471226951155  0.27516419815434046  1.0000
  O   O11       1.0  0.8589069686835631  0.2840507822559015  0.4927816364433586  1.0000
