data_image0
_chemical_formula_structural       NC9NC5H8C7F3H5C9H7Zn2C4O8
_chemical_formula_sum              "N2 C34 H20 F3 Zn2 O8"
_cell_length_a       17.807436237873137
_cell_length_b       9.27228830945605
_cell_length_c       9.275155815604963
_cell_angle_alpha    85.75778382987818
_cell_angle_beta     89.76311116066847
_cell_angle_gamma    87.81380667828488

_space_group_name_H-M_alt    "P 1"
_space_group_IT_number       1

loop_
  _space_group_symop_operation_xyz
  'x, y, z'

loop_
  _atom_site_type_symbol
  _atom_site_label
  _atom_site_symmetry_multiplicity
  _atom_site_fract_x
  _atom_site_fract_y
  _atom_site_fract_z
  _atom_site_occupancy
  N   N1        1.0  0.6942030164658627  0.5290807116981413  0.3909700313239042  1.0000
  C   C1        1.0  0.6337809380024607  0.48986122692799233  0.3789382756741241  1.0000
  C   C2        1.0  0.5586225132454509  0.441076506789732  0.36397207772887574  1.0000
  C   C3        1.0  0.5405727446953356  0.3607090656006773  0.24786236750452526  1.0000
  C   C4        1.0  0.4675981409746928  0.31321814883447285  0.23324009813979238  1.0000
  C   C5        1.0  0.4116266678011973  0.34567471485378953  0.33469368586255954  1.0000
  C   C6        1.0  0.334073099398654  0.29533260965942576  0.31924441887116606  1.0000
  C   C7        1.0  0.2715135185241976  0.38645416507565544  0.34756070682044604  1.0000
  C   C8        1.0  0.19839783967186284  0.33873768347359207  0.332954779081174  1.0000
  C   C9        1.0  0.1347738093595549  0.4328543011990569  0.3616594978746033  1.0000
  N   N2        1.0  0.08363310867951608  0.5085175607310022  0.38473731901259667  1.0000
  C   C10       1.0  0.1872596072239864  0.19961264362656903  0.2900059078435837  1.0000
  C   C11       1.0  0.2489618689888214  0.10847561166370757  0.26168038930967286  1.0000
  C   C12       1.0  0.3219596898701883  0.1557516315933274  0.27606382212732034  1.0000
  C   C13       1.0  0.4303657455598102  0.42659373794649263  0.45104384225909355  1.0000
  C   C14       1.0  0.5033937740614642  0.47387155766914196  0.4654944796431783  1.0000
  H   H1        1.0  0.5828431943285471  0.3350429754770241  0.1684138452989927  1.0000
  H   H2        1.0  0.454702690634007  0.2527690334754494  0.14153306885299677  1.0000
  H   H3        1.0  0.2795468382049664  0.495064725751804  0.37904754859000067  1.0000
  H   H4        1.0  0.13095485062578976  0.1616795905657893  0.27844364908989805  1.0000
  H   H5        1.0  0.24022116139083247  0.0007654085133670365  0.22885680900945246  1.0000
  H   H6        1.0  0.3689151460820631  0.08249230868067903  0.25530220153833016  1.0000
  H   H7        1.0  0.3888199195902765  0.4516727617947527  0.5319319019828241  1.0000
  H   H8        1.0  0.5168067663357185  0.5356676906541958  0.5560386792291305  1.0000
  C   C15       1.0  0.8911399458499172  0.09487635422734586  0.3900392767161357  1.0000
  C   C16       1.0  0.9264775343226322  0.17403893274719162  0.27564207854003797  1.0000
  C   C17       1.0  0.9543781851696098  0.10592496668229258  0.156339148815982  1.0000
  C   C18       1.0  0.9466527385049479  0.9570487974344544  0.1472506240700444  1.0000
  C   C19       1.0  0.9140620970351006  0.876074531528367  0.2634383256728474  1.0000
  C   C20       1.0  0.8867034731896398  0.942710589042776  0.3856805494060114  1.0000
  C   C21       1.0  0.9787262757980579  0.8827228152182189  0.0201460273589955  1.0000
  F   F1        1.0  0.9776794556470941  0.9763139146954664  0.8967037678740457  1.0000
  F   F2        1.0  0.9372596188646433  0.7643224911512828  0.9933372720147879  1.0000
  F   F3        1.0  0.05210190908617384  0.8365600456115552  0.050181279497999214  1.0000
  H   H9        1.0  0.7656386186746529  0.1863142743942055  0.6512778421464948  1.0000
  H   H10       1.0  0.9312221340938829  0.29006552612452335  0.27705741490616786  1.0000
  H   H11       1.0  0.9814833687832744  0.1702338694509462  0.07038433199936775  1.0000
  H   H12       1.0  0.9116506462472728  0.7597351174788928  0.26023625807355155  1.0000
  H   H13       1.0  0.8528276794775524  0.8178204301094409  0.7352516446498618  1.0000
  C   C22       1.0  0.8875639844467857  0.5152172267028963  0.9646694609492372  1.0000
  C   C23       1.0  0.8284115184111547  0.5886622899364481  0.033063524286109036  1.0000
  C   C24       1.0  0.7742420086306098  0.6714357481640012  0.9522280697327088  1.0000
  C   C25       1.0  0.7782193893582712  0.6824906344162659  0.8015237428859421  1.0000
  C   C26       1.0  0.8358637598795841  0.6083498016987574  0.7314495036266169  1.0000
  C   C27       1.0  0.8902794002415945  0.5223696552250221  0.8110502977596928  1.0000
  C   C28       1.0  0.7225132829063485  0.768716939714426  0.7183826411611833  1.0000
  C   C29       1.0  0.6758694350797153  0.8409195678588978  0.6487366342524196  1.0000
  C   C30       1.0  0.6192755092351199  0.9285252228018919  0.5642214961382286  1.0000
  H   H14       1.0  0.06258957461287085  0.38953614039701456  0.07543463765107217  1.0000
  H   H15       1.0  0.8250564779951274  0.584838884324455  0.1499296662853244  1.0000
  H   H16       1.0  0.7296144057832853  0.728036180390986  0.0074718538902560664  1.0000
  H   H17       1.0  0.8372166414936282  0.6150647181158649  0.6142460883402937  1.0000
  H   H18       1.0  0.6345236340552172  0.9318666410109633  0.4479567975157357  1.0000
  H   H19       1.0  0.5635788153312656  0.8800742012400743  0.5804077658105178  1.0000
  H   H20       1.0  0.6167904918821787  0.04009452112598622  0.6001835927949863  1.0000
  Zn  Zn1       1.0  0.8065841746282609  0.5231428490008321  0.38917975942573885  1.0000
  Zn  Zn2       1.0  0.9712520319055171  0.5144437561508625  0.3865394988337363  1.0000
  C   C31       1.0  0.8897945566187494  0.5152668508627043  0.6510958240862383  1.0000
  C   C32       1.0  0.8880434390054899  0.5223214819497939  0.12462353742210051  1.0000
  C   C33       1.0  0.8875197534125082  0.7824035313246249  0.3807617947561728  1.0000
  C   C34       1.0  0.8903181953442726  0.2551830707019518  0.3949576534011934  1.0000
  O   O1        1.0  0.9506949749536495  0.5213981765742322  0.17730365392803704  1.0000
  O   O2        1.0  0.9521221185569037  0.5095866535012786  0.5964114016386621  1.0000
  O   O3        1.0  0.9502843486034624  0.7253029585442885  0.3781147660868298  1.0000
  O   O4        1.0  0.9525326883164031  0.3056818839133552  0.3956001822747907  1.0000
  O   O5        1.0  0.8253034620242842  0.7319047242084203  0.38011907687808777  1.0000
  O   O6        1.0  0.8271412226520931  0.5161901529214128  0.5984156266742955  1.0000
  O   O7        1.0  0.8257140738032931  0.5280016110442032  0.17930614659511  1.0000
  O   O8        1.0  0.8275517875636439  0.3122853089712744  0.39760278304034546  1.0000
