data_image0
_chemical_formula_structural       NC5NC4H6C10H6C6OCH7Zn2C4O8
_chemical_formula_sum              "N2 C30 H19 O9 Zn2"
_cell_length_a       13.854160002989762
_cell_length_b       9.275150299802176
_cell_length_c       9.273891588657152
_cell_angle_alpha    85.74891997062389
_cell_angle_beta     89.68013189536481
_cell_angle_gamma    89.48388968248379

_space_group_name_H-M_alt    "P 1"
_space_group_IT_number       1

loop_
  _space_group_symop_operation_xyz
  'x, y, z'

loop_
  _atom_site_type_symbol
  _atom_site_label
  _atom_site_symmetry_multiplicity
  _atom_site_fract_x
  _atom_site_fract_y
  _atom_site_fract_z
  _atom_site_occupancy
  N   N1        1.0  0.9054480028729182  0.5646325449887372  0.40120989112945005  1.0000
  C   C1        1.0  0.8331875882493038  0.5893216381486306  0.3420305346433776  1.0000
  C   C2        1.0  0.7432946186856405  0.620035533734381  0.26840915081205186  1.0000
  C   C3        1.0  0.6556287602218778  0.5911878023668162  0.34028741788071537  1.0000
  C   C4        1.0  0.5681522063160885  0.6200355478604034  0.2684091275621465  1.0000
  C   C5        1.0  0.4780794474232432  0.5893214915974662  0.3420306270847811  1.0000
  N   N2        1.0  0.40567443265714787  0.5646324814657597  0.40120989140264574  1.0000
  C   C6        1.0  0.5683704277729369  0.6783378270366784  0.12466812530825823  1.0000
  C   C7        1.0  0.6559910196227443  0.709335604885295  0.052674251316460426  1.0000
  C   C8        1.0  0.6562186967075265  0.7677754419599176  0.8974448122338554  1.0000
  C   C9        1.0  0.7434475171588031  0.6783378248961669  0.12466803505269387  1.0000
  H   H1        1.0  0.655485834198579  0.5459516339802312  0.4515409446220747  1.0000
  H   H2        1.0  0.5005774431815881  0.6996307881001315  0.0689044214580079  1.0000
  H   H3        1.0  0.7207533721729984  0.8357485387135299  0.873275898306587  1.0000
  H   H4        1.0  0.5910448942563153  0.8357485411784501  0.8732759633698622  1.0000
  H   H5        1.0  0.6570341979798482  0.6765693736479403  0.8264156621955467  1.0000
  H   H6        1.0  0.8114004019112004  0.6996308998575805  0.06890433540854746  1.0000
  C   C10       1.0  0.15810348074881508  0.14094874378884772  0.40362287904285177  1.0000
  C   C11       1.0  0.2092768912534103  0.22201709568351274  0.2945780763063222  1.0000
  C   C12       1.0  0.2521934409007789  0.15483383597988332  0.17999175820504343  1.0000
  C   C13       1.0  0.24437325346565308  0.0056030189012479265  0.17297431888356063  1.0000
  C   C14       1.0  0.19530958230223072  0.9230849823321583  0.2813713401830269  1.0000
  C   C15       1.0  0.15302818698671694  0.9883052559087825  0.39880947161420055  1.0000
  C   C16       1.0  0.3033880245463121  0.23962183366480774  0.06845375695928335  1.0000
  C   C17       1.0  0.34625081033331195  0.3106344034213728  0.9750732022821298  1.0000
  C   C18       1.0  0.3964411444418276  0.393795101067925  0.8657286452820823  1.0000
  C   C19       1.0  0.43929566612622595  0.46480235015736726  0.7723659910008869  1.0000
  H   H7        1.0  0.11146618358768287  0.4053372941566409  0.6325037449291799  1.0000
  H   H8        1.0  0.21390609763572987  0.33848554627846617  0.296804732248358  1.0000
  H   H9        1.0  0.2770653417823272  0.9526580029064856  0.08430858393766938  1.0000
  H   H10       1.0  0.19238127364190277  0.8070287863414082  0.2751485628737394  1.0000
  H   H11       1.0  0.0890104676758605  0.8609237504415258  0.7412646339413222  1.0000
  H   H12       1.0  0.4769255107266095  0.5271527447165958  0.6903858692781641  1.0000
  C   C20       1.0  0.1571699878513595  0.5608059010725951  0.977962546837527  1.0000
  C   C21       1.0  0.23585087315253683  0.6217457226486487  0.046190085346723635  1.0000
  C   C22       1.0  0.30899218811326945  0.6934591110993014  0.9659729781048745  1.0000
  C   C23       1.0  0.30371353347224117  0.7045942040025593  0.8144691118765119  1.0000
  C   C24       1.0  0.22706573386232806  0.6427807779814816  0.7449043381764924  1.0000
  C   C25       1.0  0.15396168860326834  0.5684480728028517  0.8244697758402468  1.0000
  O   O1        1.0  0.38504771231694557  0.7526225376386815  0.040843514933162295  1.0000
  C   C26       1.0  0.4640771692539378  0.8285533721679965  0.9733358256087341  1.0000
  H   H13       1.0  0.9281131456346609  0.47219109201501475  0.08948314179738694  1.0000
  H   H14       1.0  0.3589858413944848  0.7596881023726904  0.7492340199558449  1.0000
  H   H15       1.0  0.2262423703947856  0.6502166801654803  0.6277809222703412  1.0000
  H   H16       1.0  0.0012488212341064129  0.5030679622849688  0.5493985057151782  1.0000
  H   H17       1.0  0.43758270206460637  0.9261877241946639  0.9083856325854459  1.0000
  H   H18       1.0  0.5047521120829608  0.7569482648290026  0.9033299147872672  1.0000
  H   H19       1.0  0.5132798525562066  0.8630396106997612  0.057983475871736134  1.0000
  Zn  Zn1       1.0  0.049802542132891564  0.5646287391208304  0.4012182454258768  1.0000
  Zn  Zn2       1.0  0.2613199204243273  0.5646245877064927  0.4012134413328289  1.0000
  C   C27       1.0  0.15460041452092402  0.5612558558668812  0.6644944518133045  1.0000
  C   C28       1.0  0.15652434635980023  0.5679992926253546  0.13793736601770656  1.0000
  C   C29       1.0  0.15400434976945757  0.8280850073618528  0.39397575713206856  1.0000
  C   C30       1.0  0.15712034902633532  0.30116840839912373  0.40845614739023944  1.0000
  O   O2        1.0  0.23657744360712618  0.5704055907173776  0.19162458934960513  1.0000
  O   O3        1.0  0.23508412130947826  0.5588453147737957  0.6108031735642332  1.0000
  O   O4        1.0  0.23460170372981495  0.7743132426725048  0.39235740514725936  1.0000
  O   O5        1.0  0.23705978935800243  0.35493767216546473  0.4100702496405262  1.0000
  O   O6        1.0  0.07406260101873527  0.7743156546647784  0.3923614371122284  1.0000
  O   O7        1.0  0.07454500850284938  0.5588494595002471  0.6108071188319548  1.0000
  O   O8        1.0  0.07603833773349722  0.5704096695220751  0.19162680201784732  1.0000
  O   O9        1.0  0.07652068313267968  0.35494174162628456  0.4100725704288704  1.0000
