data_image0
_chemical_formula_structural       NC12NC2H8C6OCH8C7F3H5Zn2C4O8
_chemical_formula_sum              "N2 C32 H21 O9 F3 Zn2"
_cell_length_a       17.80743265337812
_cell_length_b       9.273888216677431
_cell_length_c       10.299327507215196
_cell_angle_alpha    85.75245891719182
_cell_angle_beta     91.5153373633688
_cell_angle_gamma    88.85715842325122

_space_group_name_H-M_alt    "P 1"
_space_group_IT_number       1

loop_
  _space_group_symop_operation_xyz
  'x, y, z'

loop_
  _atom_site_type_symbol
  _atom_site_label
  _atom_site_symmetry_multiplicity
  _atom_site_fract_x
  _atom_site_fract_y
  _atom_site_fract_z
  _atom_site_occupancy
  N   N1        1.0  0.6995364728919803  0.5622979308000742  0.6058788974220701  1.0000
  C   C1        1.0  0.6485580645615672  0.5951313255844037  0.5372753899024016  1.0000
  C   C2        1.0  0.5851359206647576  0.6359736849628934  0.4519412676665815  1.0000
  C   C3        1.0  0.596572950301473  0.6959790366956835  0.3254955465104674  1.0000
  C   C4        1.0  0.5350664263208316  0.735151364850809  0.2425525533018964  1.0000
  C   C5        1.0  0.4619671646259907  0.7146109986214069  0.2853962275237767  1.0000
  C   C6        1.0  0.44955396443624124  0.6544736599510006  0.4123097100823241  1.0000
  C   C7        1.0  0.5119177886694634  0.6153049472295151  0.49523620200985613  1.0000
  C   C8        1.0  0.3718924252244323  0.6326957092678385  0.4580100905581172  1.0000
  C   C9        1.0  0.35292650247331153  0.6628714462683651  0.5851436942070138  1.0000
  C   C10       1.0  0.27979704694916996  0.6423772427417187  0.6280280664886391  1.0000
  C   C11       1.0  0.22469186720995518  0.5914248335007892  0.5446159863922098  1.0000
  C   C12       1.0  0.1494287568903344  0.5703165492586642  0.5888995057275275  1.0000
  N   N2        1.0  0.08892254639487682  0.5533469083683955  0.6245004087680115  1.0000
  C   C13       1.0  0.24296717795100264  0.5610614544920156  0.41802480930067354  1.0000
  C   C14       1.0  0.3160437382455812  0.5815721072697535  0.3748845957200977  1.0000
  H   H1        1.0  0.6529589329042023  0.7124449532255515  0.29110631611474735  1.0000
  H   H2        1.0  0.5440381825563205  0.7819118608309714  0.1449091277062593  1.0000
  H   H3        1.0  0.4151679129409563  0.7475291053673327  0.21990094127916215  1.0000
  H   H4        1.0  0.5036524599266642  0.5670060706253706  0.5927506900677635  1.0000
  H   H5        1.0  0.3943759788150801  0.7041516506886334  0.6508379015367955  1.0000
  H   H6        1.0  0.26620979454085125  0.6666254649641322  0.7261086241665657  1.0000
  H   H7        1.0  0.2007934105086757  0.5211885277658015  0.35274766831167237  1.0000
  H   H8        1.0  0.3291114349211074  0.5556186134255752  0.27710239827547656  1.0000
  C   C15       1.0  0.8964394510990901  0.13430972006824285  0.6139684405414201  1.0000
  C   C16       1.0  0.8789161014059139  0.21799313005219467  0.4971294806021813  1.0000
  C   C17       1.0  0.8549998766685831  0.15383529289982836  0.38507997909246594  1.0000
  C   C18       1.0  0.8484681280346767  0.0030038383931374505  0.3894457291977822  1.0000
  C   C19       1.0  0.8667781842616065  0.918107623590979  0.5038241439343798  1.0000
  C   C20       1.0  0.8920267987236582  0.9813238807299773  0.6164223713406416  1.0000
  O   O1        1.0  0.8379311843408103  0.24367476652274764  0.2720809353698135  1.0000
  C   C21       1.0  0.8128772550936649  0.1933444315692383  0.1513660002194217  1.0000
  H   H9        1.0  0.9024987626500992  0.21080594011609222  0.9338552569329713  1.0000
  H   H10       1.0  0.8820901290130476  0.3347963276970862  0.49343179666616893  1.0000
  H   H11       1.0  0.8299387761824641  0.9500057258282  0.3045653923252636  1.0000
  H   H12       1.0  0.8628740089050719  0.801729018567897  0.5032049851785183  1.0000
  H   H13       1.0  0.8992563646965627  0.6821941281649044  0.8311291731044231  1.0000
  H   H14       1.0  0.7589581883897082  0.136457578384364  0.16375503201628683  1.0000
  H   H15       1.0  0.8560203682208131  0.11975035632921638  0.11448686409455289  1.0000
  H   H16       1.0  0.8037529275393522  0.2872506130852734  0.07912768068574527  1.0000
  C   C22       1.0  0.8943047794796712  0.5578737257418478  0.23381743341255132  1.0000
  C   C23       1.0  0.9670182791498451  0.6140222664997641  0.23220625339623877  1.0000
  C   C24       1.0  0.003137976911668618  0.6448074881878241  0.11407808266388009  1.0000
  C   C25       1.0  0.9668301438940887  0.6138736756419052  0.9969593174393707  1.0000
  C   C26       1.0  0.894161510824587  0.5577598994882551  0.9965733896875227  1.0000
  C   C27       1.0  0.8582058857084169  0.5306225692891304  0.11549346406971696  1.0000
  C   C28       1.0  0.08225283624320956  0.7001719237702286  0.11377916551827093  1.0000
  F   F1        1.0  0.09493841349365506  0.7840894110151333  0.21754196422970384  1.0000
  F   F2        1.0  0.13248146677296613  0.5840445838724482  0.1236884082977252  1.0000
  F   F3        1.0  0.09473210530194631  0.7840745885957617  0.999888632795948  1.0000
  H   H17       1.0  0.7576081410548453  0.4494919224319447  0.4442814022661345  1.0000
  H   H18       1.0  0.995726491282874  0.633644272458552  0.32303950679782023  1.0000
  H   H19       1.0  0.9954093316966817  0.6333898793612094  0.9060094953890463  1.0000
  H   H20       1.0  0.8021615020428371  0.48734932613775483  0.1159303210039131  1.0000
  H   H21       1.0  0.8667266533346208  0.5338083997917237  0.6691525012426385  1.0000
  Zn  Zn1       1.0  0.811904904494292  0.5597110075247229  0.6112601393045987  1.0000
  Zn  Zn2       1.0  0.9765541715952761  0.5559220659582789  0.6191297261056887  1.0000
  C   C29       1.0  0.8942168264444943  0.5520360312202137  0.8523794437905047  1.0000
  C   C30       1.0  0.8942440381060418  0.5635988205661853  0.37801064029684106  1.0000
  C   C31       1.0  0.8928580022506042  0.8212210364943496  0.6107830439405004  1.0000
  C   C32       1.0  0.8956028151305099  0.2944120838486024  0.6196071016818119  1.0000
  O   O2        1.0  0.9567072243123383  0.5640760392682393  0.42938964669832447  1.0000
  O   O3        1.0  0.9567186299813912  0.5486820056070536  0.8069728946742274  1.0000
  O   O4        1.0  0.9556205196984671  0.7660523208567402  0.6118820565456533  1.0000
  O   O5        1.0  0.9578052783761672  0.34670573564284757  0.6244803847944518  1.0000
  O   O6        1.0  0.8306537415266798  0.7689273391347049  0.6059094779235052  1.0000
  O   O7        1.0  0.8317518427923049  0.551558756623016  0.8010002518247832  1.0000
  O   O8        1.0  0.8317404377283784  0.5669527402590742  0.42341544226790306  1.0000
  O   O9        1.0  0.8328384918245816  0.3495824263039389  0.6185062777041475  1.0000
