data_image0
_chemical_formula_structural       NC5NC3H4C7NH5C6ClH4Zn2C4O8
_chemical_formula_sum              "N3 C25 H13 Cl1 Zn2 O8"
_cell_length_a       13.859018345313864
_cell_length_b       9.275154477615127
_cell_length_c       9.276548810779733
_cell_angle_alpha    86.30571482512589
_cell_angle_beta     89.72476444669817
_cell_angle_gamma    89.43370600770291

_space_group_name_H-M_alt    "P 1"
_space_group_IT_number       1

loop_
  _space_group_symop_operation_xyz
  'x, y, z'

loop_
  _atom_site_type_symbol
  _atom_site_label
  _atom_site_symmetry_multiplicity
  _atom_site_fract_x
  _atom_site_fract_y
  _atom_site_fract_z
  _atom_site_occupancy
  N   N1        1.0  0.9033394342749008  0.5634353453325038  0.41675121083913336  1.0000
  C   C1        1.0  0.831079070978853  0.5243689380147137  0.46783230490371386  1.0000
  C   C2        1.0  0.7411914148034816  0.4757755603726981  0.5313703914396928  1.0000
  C   C3        1.0  0.6534620680783997  0.5231484154285476  0.4694285392886141  1.0000
  C   C4        1.0  0.5659611126688018  0.4757752688396842  0.5313702647775109  1.0000
  C   C5        1.0  0.47583919241921163  0.5243688244620436  0.4678322071755299  1.0000
  N   N2        1.0  0.4033905321680554  0.5634353108109196  0.4167511417002776  1.0000
  C   C6        1.0  0.5663720166329473  0.3810152582899701  0.6552723758095684  1.0000
  C   C7        1.0  0.6539183822978517  0.33382476349539947  0.7169758610790606  1.0000
  C   C8        1.0  0.7412373575634357  0.3810155552516339  0.6552725805719097  1.0000
  H   H1        1.0  0.6532852236737177  0.5964952485443868  0.37352497281553854  1.0000
  H   H2        1.0  0.4991664225239772  0.34372797121446363  0.7040264128436429  1.0000
  H   H3        1.0  0.6540948042623498  0.2606268394665594  0.8126849174700279  1.0000
  H   H4        1.0  0.8086226792865984  0.3437285049478437  0.7040268401149203  1.0000
  C   C9        1.0  0.1561672113365704  0.14003078940806812  0.41508368443750987  1.0000
  C   C10       1.0  0.1300982243147386  0.22205009383998142  0.2880303016189625  1.0000
  C   C11       1.0  0.09615887895568243  0.15491332522018686  0.16770712646336738  1.0000
  C   C12       1.0  0.08772784685320234  0.004841301704140881  0.17302026784547642  1.0000
  C   C13       1.0  0.11470060246072467  0.9215878857519436  0.2971775698930075  1.0000
  C   C14       1.0  0.15057200789518063  0.9868288651926281  0.4184311660670019  1.0000
  C   C15       1.0  0.06881120857006318  0.24050046372948297  0.0391224191251589  1.0000
  N   N3        1.0  0.046831276288865395  0.3092969177061662  0.9357732511017934  1.0000
  H   H5        1.0  0.17371790605333315  0.2199306658007352  0.768798355101578  1.0000
  H   H6        1.0  0.13405275449103835  0.33897046411326204  0.28375465631606844  1.0000
  H   H7        1.0  0.061129196104319876  0.9518705799647498  0.08054435087345334  1.0000
  H   H8        1.0  0.10963430881879961  0.8051191328183729  0.29705075380281354  1.0000
  H   H9        1.0  0.16648776039441882  0.6902220196834743  0.655430056460903  1.0000
  C   C16       1.0  0.15475515244179427  0.559567040995912  0.9935927800044889  1.0000
  C   C17       1.0  0.23533201674010557  0.6143757693729723  0.0629159081943953  1.0000
  C   C18       1.0  0.31042614972843807  0.679930779064429  0.9829425734064318  1.0000
  C   C19       1.0  0.3060689294776699  0.6917804835502629  0.832549890187817  1.0000
  C   C20       1.0  0.22760115925983304  0.6359603803363646  0.7615736575132757  1.0000
  C   C21       1.0  0.15198403755447848  0.5672925317364339  0.8399220567287222  1.0000
  Cl  Cl1       1.0  0.4095807887038581  0.7493558109033691  0.07172147357780978  1.0000
  H   H10       1.0  0.03875022410033678  0.3981843035616302  0.2859569746565698  1.0000
  H   H11       1.0  0.36398684973342443  0.743072140038295  0.7702633894335973  1.0000
  H   H12       1.0  0.22719768241471033  0.6434836736267328  0.644555106368963  1.0000
  H   H13       1.0  0.9973387169219986  0.5144315647194355  0.563117007104255  1.0000
  Zn  Zn1       1.0  0.047643376145646954  0.5634315412652834  0.4167595063887555  1.0000
  Zn  Zn2       1.0  0.2590866062020192  0.5634273897717896  0.41675463500577736  1.0000
  C   C22       1.0  0.1525436562445783  0.5600883580366323  0.6799249705390709  1.0000
  C   C23       1.0  0.15418862257292607  0.5667723934794413  0.15358931942979015  1.0000
  C   C24       1.0  0.15164345169496227  0.8267135662183306  0.41205604624113135  1.0000
  C   C25       1.0  0.1550887661662428  0.30014545371653756  0.4214583137083432  1.0000
  O   O1        1.0  0.23424013539702582  0.5691827098876463  0.2072837461172643  1.0000
  O   O2        1.0  0.23297267111520512  0.557673799243823  0.6262264274675731  1.0000
  O   O3        1.0  0.23224465795550198  0.7729770404853694  0.4099203818312289  1.0000
  O   O4        1.0  0.23496807669109732  0.35387947797545616  0.4235896837497055  1.0000
  O   O5        1.0  0.07176183350138628  0.7729794530645343  0.4099244576389163  1.0000
  O   O6        1.0  0.07248983546220589  0.5576779434071105  0.6262304332887363  1.0000
  O   O7        1.0  0.07375730581288842  0.5691867879917447  0.2072860192191239  1.0000
  O   O8        1.0  0.07448524681740887  0.35388354675311523  0.423592064849557  1.0000
