data_image0
_chemical_formula_structural       NC9NC5H8C7OH6C6NCH7Zn2C4O8
_chemical_formula_sum              "N3 C32 H21 O9 Zn2"
_cell_length_a       17.807436237873137
_cell_length_b       9.274078303013077
_cell_length_c       9.273390368590327
_cell_angle_alpha    86.34320467180204
_cell_angle_beta     89.39974432744097
_cell_angle_gamma    87.81002060722456

_space_group_name_H-M_alt    "P 1"
_space_group_IT_number       1

loop_
  _space_group_symop_operation_xyz
  'x, y, z'

loop_
  _atom_site_type_symbol
  _atom_site_label
  _atom_site_symmetry_multiplicity
  _atom_site_fract_x
  _atom_site_fract_y
  _atom_site_fract_z
  _atom_site_occupancy
  N   N1        1.0  0.6994824205518803  0.5244093861094505  0.4034953887119388  1.0000
  C   C1        1.0  0.639103290088298  0.4851930137896439  0.3911372767895831  1.0000
  C   C2        1.0  0.5639982879767147  0.4364121651555369  0.3757651275783507  1.0000
  C   C3        1.0  0.5463425543786065  0.3558508651310468  0.25897791962300554  1.0000
  C   C4        1.0  0.4734201337985639  0.30836360118524153  0.24396046002874708  1.0000
  C   C5        1.0  0.4171069508668996  0.3410179201475479  0.34569286973679253  1.0000
  C   C6        1.0  0.3396085282683474  0.2906797984592404  0.32982469153810934  1.0000
  C   C7        1.0  0.2769479517285742  0.3817949151012279  0.3588992619549687  1.0000
  C   C8        1.0  0.2038844167886058  0.33408229150825586  0.3438962751710317  1.0000
  C   C9        1.0  0.140157885831061  0.42819107149067853  0.3733841485055249  1.0000
  N   N2        1.0  0.08893477766353679  0.5038480326678898  0.3970915719136255  1.0000
  C   C10       1.0  0.1928994327775679  0.19496770563503918  0.29978968005609574  1.0000
  C   C11       1.0  0.2547027221556522  0.10383710385993683  0.2707057498416552  1.0000
  C   C12       1.0  0.3276491738195578  0.15110910944154843  0.2854825681519402  1.0000
  C   C13       1.0  0.4354511512964323  0.4221309142620271  0.46272512053689496  1.0000
  C   C14       1.0  0.5084275855760544  0.4694048654271157  0.4775691647583633  1.0000
  H   H1        1.0  0.588880614736067  0.3300301014766004  0.1793089842705664  1.0000
  H   H2        1.0  0.4608356969807472  0.2477590963021954  0.1517434266397375  1.0000
  H   H3        1.0  0.2848684681250044  0.49039284380337467  0.3912897073929243  1.0000
  H   H4        1.0  0.1366359650002308  0.1570378268049642  0.28791177693785985  1.0000
  H   H5        1.0  0.24607922917564506  0.9961359297302274  0.23698590389321608  1.0000
  H   H6        1.0  0.3746791222982335  0.07785935066449846  0.26411149995554783  1.0000
  H   H7        1.0  0.3936329378160248  0.44736820437373886  0.5438288630101747  1.0000
  H   H8        1.0  0.5215333631212441  0.531352830288804  0.5686344267738492  1.0000
  C   C15       1.0  0.896452213695895  0.09052909760510454  0.39896413641615425  1.0000
  C   C16       1.0  0.88194007148894  0.17337716963814853  0.26909133521338746  1.0000
  C   C17       1.0  0.8609343990406882  0.10805386634387505  0.14424856514942896  1.0000
  C   C18       1.0  0.8542411955112292  0.9578150496817615  0.1492020128506506  1.0000
  C   C19       1.0  0.8695993545650681  0.8738352124295132  0.2763784277004384  1.0000
  C   C20       1.0  0.8919722316804702  0.9377169882182712  0.4016352221700208  1.0000
  C   C21       1.0  0.8454713624167349  0.19836271749638068  0.010360505977210725  1.0000
  O   O1        1.0  0.8261736427669052  0.1428719837103385  0.8965542076570077  1.0000
  H   H9        1.0  0.8940916461235978  0.17105197101379743  0.7538766833849719  1.0000
  H   H10       1.0  0.8853017913004823  0.290032269420748  0.265927330787068  1.0000
  H   H11       1.0  0.8378161860400712  0.9048196858629466  0.0543190098427433  1.0000
  H   H12       1.0  0.8656823703144266  0.7575966725327088  0.27567181233298643  1.0000
  H   H13       1.0  0.8936726517638814  0.6412694921600787  0.6399766608635715  1.0000
  H   H14       1.0  0.8506592446538446  0.31438731327510383  0.008760663060362944  1.0000
  C   C22       1.0  0.8942708338411253  0.5096229422281373  0.9770391327697907  1.0000
  C   C23       1.0  0.9633057294420084  0.5031128681570054  0.049497692322169044  1.0000
  C   C24       1.0  0.031065855128345584  0.5100757969292455  0.9730010505084904  1.0000
  C   C25       1.0  0.031512060065526315  0.523848617658413  0.8214080347719674  1.0000
  C   C26       1.0  0.9629480698701285  0.5279018247850172  0.7481246718320778  1.0000
  C   C27       1.0  0.8941536159808151  0.5186231911491341  0.8235601770855623  1.0000
  N   N3        1.0  0.10053352383411628  0.532405382049258  0.739522261802867  1.0000
  C   C28       1.0  0.17472932669906038  0.5286581456139066  0.8052909811367415  1.0000
  H   H15       1.0  0.7760251535397961  0.44659434842325574  0.2646110018131673  1.0000
  H   H16       1.0  0.08284949445373987  0.5060148827680075  0.03326650839337719  1.0000
  H   H17       1.0  0.7196158490057172  0.41580274626580055  0.7305954305382159  1.0000
  H   H18       1.0  0.09804469318523257  0.5420941362173561  0.6267166620406712  1.0000
  H   H19       1.0  0.17911707162079482  0.620934855724352  0.8749710666629977  1.0000
  H   H20       1.0  0.18444107085144787  0.42506243739567007  0.8703691020358529  1.0000
  H   H21       1.0  0.21871082482689982  0.5372381174618939  0.7197106612198998  1.0000
  Zn  Zn1       1.0  0.8118699761868549  0.5184720632706159  0.4016557091968562  1.0000
  Zn  Zn2       1.0  0.9765472643698084  0.5097737230639237  0.3989430637447058  1.0000
  C   C29       1.0  0.8942044690439951  0.5111754369078387  0.6635314905490123  1.0000
  C   C30       1.0  0.8942145601392673  0.5170720760160139  0.13706739997698625  1.0000
  C   C31       1.0  0.8928159602424675  0.7775195984131269  0.3953867216057765  1.0000
  C   C32       1.0  0.8956030219019734  0.25072618521441786  0.4052122412259061  1.0000
  O   O2        1.0  0.9566898800919612  0.5162648054544297  0.18974489367474345  1.0000
  O   O3        1.0  0.9567154062610972  0.5053797758957943  0.6087947433771677  1.0000
  O   O4        1.0  0.955593325184875  0.7204561151260329  0.3922659638931514  1.0000
  O   O5        1.0  0.9578119049353797  0.30118847836230245  0.4062735660461112  1.0000
  O   O6        1.0  0.8306052794250004  0.7270573109420431  0.3943252078135664  1.0000
  O   O7        1.0  0.8317273513437603  0.5119827039779197  0.6108539159100159  1.0000
  O   O8        1.0  0.8317018257304152  0.5228676648422093  0.19180233313495032  1.0000
  O   O9        1.0  0.8328238506103538  0.3077913285817775  0.4083311135370835  1.0000
