data_image0
_chemical_formula_structural       NC5NC4H6C9H8C6NCH7Zn2C4O8
_chemical_formula_sum              "N3 C29 H21 Zn2 O8"
_cell_length_a       13.854160002989762
_cell_length_b       9.275152443626249
_cell_length_c       9.273390368590327
_cell_angle_alpha    85.97038560770253
_cell_angle_beta     89.99084465989662
_cell_angle_gamma    90.57354205828562

_space_group_name_H-M_alt    "P 1"
_space_group_IT_number       1

loop_
  _space_group_symop_operation_xyz
  'x, y, z'

loop_
  _atom_site_type_symbol
  _atom_site_label
  _atom_site_symmetry_multiplicity
  _atom_site_fract_x
  _atom_site_fract_y
  _atom_site_fract_z
  _atom_site_occupancy
  N   N1        1.0  0.919546185323613  0.5618382407960446  0.4048068011462609  1.0000
  C   C1        1.0  0.8473846220670903  0.586428862477874  0.3456867611435932  1.0000
  C   C2        1.0  0.7576146238093374  0.6170202558190709  0.2721391686629402  1.0000
  C   C3        1.0  0.669843205507694  0.588291956215528  0.3439479221319153  1.0000
  C   C4        1.0  0.5824722115349726  0.617020269905746  0.27213914544617324  1.0000
  C   C5        1.0  0.4922764797118722  0.5864287160966475  0.34568685325241244  1.0000
  N   N2        1.0  0.4197726143001365  0.5618381772829873  0.4048068012782968  1.0000
  C   C6        1.0  0.5829093345040307  0.6750836198459056  0.12853851748428413  1.0000
  C   C7        1.0  0.6706624372009399  0.705961459808996  0.056618942916093706  1.0000
  C   C8        1.0  0.6710689396322956  0.76414394640683  0.9015310497095658  1.0000
  C   C9        1.0  0.7579864235340414  0.6750836175611539  0.12853842723076703  1.0000
  H   H1        1.0  0.6695294394053256  0.5432407322911387  0.45509255446376784  1.0000
  H   H2        1.0  0.5151844014353412  0.6962840871578229  0.0728263269179581  1.0000
  H   H3        1.0  0.736380975427198  0.8320681855235217  0.877514984479412  1.0000
  H   H4        1.0  0.6066724977787796  0.8320681880922834  0.8775150495432595  1.0000
  H   H5        1.0  0.6704647056144074  0.6728377278689035  0.8303046061034531  1.0000
  H   H6        1.0  0.8260073612744296  0.6962841987607664  0.07282624112329406  1.0000
  C   C10       1.0  0.16681659460783857  0.138221551575926  0.4062782395732767  1.0000
  C   C11       1.0  0.13200094300190202  0.2196595285576193  0.283835678307957  1.0000
  C   C12       1.0  0.106157595023054  0.15289239247946185  0.1591006875240717  1.0000
  C   C13       1.0  0.11472412712835278  0.003499835783187023  0.15433854200914654  1.0000
  C   C14       1.0  0.14765232569011166  0.9203627134895432  0.2757463048884785  1.0000
  C   C15       1.0  0.17251138065248914  0.9854439228007986  0.4033478642150943  1.0000
  C   C16       1.0  0.08857772325943178  0.9349773875650619  0.025167614316392358  1.0000
  C   C17       1.0  0.0666862201635956  0.8775724119078157  0.9170072149392032  1.0000
  C   C18       1.0  0.04012520841869849  0.8079096261877821  0.7857735394904539  1.0000
  H   H7        1.0  0.3055016908743027  0.2229323712154907  0.6941157329683176  1.0000
  H   H8        1.0  0.12691643634366367  0.3361721966152074  0.28338232432232835  1.0000
  H   H9        1.0  0.08035402817607062  0.21814002175478442  0.0657570402852985  1.0000
  H   H10       1.0  0.15171639646671675  0.8040099485160479  0.27172570835874055  1.0000
  H   H11       1.0  0.26278957959539095  0.6922370315094738  0.6002190454709517  1.0000
  H   H12       1.0  0.05777014111252643  0.6913309073856316  0.7992380599555133  1.0000
  H   H13       1.0  0.961564861051437  0.8202824860526784  0.7660427208650855  1.0000
  H   H14       1.0  0.08089068989743549  0.859266574323589  0.6924825247038915  1.0000
  C   C19       1.0  0.16967848413958234  0.5573342647510292  0.9815828571467774  1.0000
  C   C20       1.0  0.2583106248767375  0.5544679904626478  0.055195265564653706  1.0000
  C   C21       1.0  0.3454866233602225  0.5650117057930641  0.9797440176726955  1.0000
  C   C22       1.0  0.34624624355035594  0.578812497622901  0.8280682953589342  1.0000
  C   C23       1.0  0.2581860747408218  0.5792459885273562  0.7536546994477096  1.0000
  C   C24       1.0  0.1696495065794549  0.566331202404678  0.8280432733194587  1.0000
  N   N3        1.0  0.435064795095528  0.5910171724515645  0.7472378196548379  1.0000
  C   C25       1.0  0.5303668197689776  0.5911871783507334  0.8142254388992414  1.0000
  H   H15       1.0  0.016863120880719507  0.4880406969431639  0.2676625078760482  1.0000
  H   H16       1.0  0.41198143282975863  0.5636842987009179  0.040869619892129457  1.0000
  H   H17       1.0  0.9439525068338471  0.4542601466762086  0.7329397946251772  1.0000
  H   H18       1.0  0.4319972483412502  0.6005775856014834  0.63432891867145  1.0000
  H   H19       1.0  0.5372531184531134  0.6837251349397984  0.8833739066243372  1.0000
  H   H20       1.0  0.5414474591322928  0.4880712271704344  0.8801360332882641  1.0000
  H   H21       1.0  0.5870055922345976  0.6020926532211215  0.7292971582094356  1.0000
  Zn  Zn1       1.0  0.06390070654819846  0.5618344488771166  0.4048151463568572  1.0000
  Zn  Zn2       1.0  0.27541801449774667  0.5618302903879175  0.4048103334020452  1.0000
  C   C26       1.0  0.16961418201113654  0.5588837512192286  0.6680640140243075  1.0000
  C   C27       1.0  0.16970686102686386  0.5647828096487162  0.14156160084451175  1.0000
  C   C28       1.0  0.17143016712129028  0.8252397884960869  0.3981585678571262  1.0000
  C   C29       1.0  0.16789079208826876  0.2984250400381097  0.41146712984656286  1.0000
  O   O1        1.0  0.24998605830230095  0.5672747378461671  0.19525012392939822  1.0000
  O   O2        1.0  0.24987171999133395  0.5563875741594599  0.6143714269005207  1.0000
  O   O3        1.0  0.2513370688085388  0.771473458742122  0.3964208643313749  1.0000
  O   O4        1.0  0.2485206373816331  0.35218886243572345  0.4132005784014092  1.0000
  O   O5        1.0  0.09079801148384643  0.7714758768322196  0.39642490135154906  1.0000
  O   O6        1.0  0.089332674314617  0.5563917245862146  0.6143753810798815  1.0000
  O   O7        1.0  0.08944701241125141  0.5672788195859524  0.19525234549340698  1.0000
  O   O8        1.0  0.08798159141358126  0.3521929350061992  0.4132029080566091  1.0000
