data_image0
_chemical_formula_structural       NC12NC2H8C12ClH9C15H12Zn2C4O8
_chemical_formula_sum              "N2 C45 H29 Cl1 Zn2 O8"
_cell_length_a       19.240039667572717
_cell_length_b       10.299768534541528
_cell_length_c       10.299157797200024
_cell_angle_alpha    85.54593967103357
_cell_angle_beta     90.02248165465589
_cell_angle_gamma    90.01670575511149

_space_group_name_H-M_alt    "P 1"
_space_group_IT_number       1

loop_
  _space_group_symop_operation_xyz
  'x, y, z'

loop_
  _atom_site_type_symbol
  _atom_site_label
  _atom_site_symmetry_multiplicity
  _atom_site_fract_x
  _atom_site_fract_y
  _atom_site_fract_z
  _atom_site_occupancy
  N   N1        1.0  0.6543981307090599  0.42167213245259494  0.5674480854585415  1.0000
  C   C1        1.0  0.5942497618876807  0.42167221645659553  0.5674480035216187  1.0000
  C   C2        1.0  0.51943172473599  0.42167233378064983  0.5674478662155891  1.0000
  C   C3        1.0  0.4829696658172235  0.3571778861360538  0.6708622547677263  1.0000
  C   C4        1.0  0.4102989185834448  0.35706698104230117  0.6709487956015785  1.0000
  C   C5        1.0  0.3730994897652919  0.4216724264104976  0.5674476385257254  1.0000
  C   C6        1.0  0.4102757394043973  0.4862780587070976  0.46394667601337836  1.0000
  C   C7        1.0  0.48294642872330673  0.48616691808093176  0.464033339341068  1.0000
  C   C8        1.0  0.2958943992933474  0.42167234777762364  0.5674475430997106  1.0000
  C   C9        1.0  0.2586977037997235  0.3084006245180147  0.6093138304544437  1.0000
  C   C10       1.0  0.1860270129230946  0.3085075500100649  0.6092225061033218  1.0000
  C   C11       1.0  0.1495621123627785  0.42167221858847265  0.5674476040057155  1.0000
  C   C12       1.0  0.0747440752422928  0.4216721047750054  0.567447852674438  1.0000
  N   N2        1.0  0.014595758427591699  0.42167206389172196  0.5674480611037731  1.0000
  C   C13       1.0  0.18604472265980404  0.5348369630089966  0.5256726490188404  1.0000
  C   C14       1.0  0.2587154163791599  0.5349440686671054  0.525581162074463  1.0000
  H   H1        1.0  0.5106936975437216  0.307244686433481  0.7516052974614156  1.0000
  H   H2        1.0  0.38321513643398947  0.3079315362543893  0.7528074610674087  1.0000
  H   H3        1.0  0.3831729907592683  0.5354135305618462  0.38208795969773424  1.0000
  H   H4        1.0  0.5106521685021604  0.53610001744238  0.383290572453173  1.0000
  H   H5        1.0  0.2857836070802635  0.2192371342475621  0.6404778267785922  1.0000
  H   H6        1.0  0.15830515634175468  0.22024293244130488  0.6414195864181487  1.0000
  H   H7        1.0  0.15833675579257978  0.6231015560369448  0.4934755832538107  1.0000
  H   H8        1.0  0.2858159919187865  0.6241076381263073  0.494417120980968  1.0000
  C   C15       1.0  0.8344347292527556  0.04030671583305123  0.5674459342923808  1.0000
  C   C16       1.0  0.8389835154962058  0.04991163225889439  0.4309690591751578  1.0000
  C   C17       1.0  0.84135524056685  0.9376391504532706  0.3618225304335323  1.0000
  C   C18       1.0  0.8391162624915861  0.8146239103382916  0.4309845500095448  1.0000
  C   C19       1.0  0.8345658411997579  0.8030274648929709  0.567461363073738  1.0000
  C   C20       1.0  0.83225106903536  0.9164262014896839  0.6349277841363767  1.0000
  C   C21       1.0  0.8461684013205624  0.9488540191352659  0.217441373827715  1.0000
  C   C22       1.0  0.8066127112725513  0.04241550231279389  0.1429732407695674  1.0000
  C   C23       1.0  0.8112049230605343  0.05277545910500469  0.007085578256805337  1.0000
  C   C24       1.0  0.8552853498408858  0.9700965537217673  0.9439740924561626  1.0000
  C   C25       1.0  0.8948293314023014  0.8768477492741615  0.01693091698410409  1.0000
  C   C26       1.0  0.8903605486324764  0.8660955370165543  0.1528332235912202  1.0000
  Cl  Cl1       1.0  0.8609695196787511  0.9833407038842907  0.7734791646851424  1.0000
  H   H9        1.0  0.832665755621575  0.36410052110144386  0.6194470886601617  1.0000
  H   H10       1.0  0.8416519984520928  0.14493915481687483  0.3782333979895842  1.0000
  H   H11       1.0  0.8399709008544737  0.7278053390155279  0.3780353214279837  1.0000
  H   H12       1.0  0.8287411859516585  0.9082482618922413  0.7402134108733169  1.0000
  H   H13       1.0  0.8328595917941847  0.4711549290654812  0.6194703188666799  1.0000
  H   H14       1.0  0.7714812821369917  0.10637799385742051  0.18971943599350283  1.0000
  H   H15       1.0  0.7803344381202003  0.12490550726679969  0.9509705563853258  1.0000
  H   H16       1.0  0.9291852913048186  0.8128391282701576  0.968495145533184  1.0000
  H   H17       1.0  0.922112670322011  0.7942592272399781  0.20745385312247344  1.0000
  C   C27       1.0  0.8344197168759113  0.42177336151151534  0.18606164654634605  1.0000
  C   C28       1.0  0.7620243518722225  0.4037941775800696  0.18623645452084947  1.0000
  C   C29       1.0  0.7254665631990888  0.39456921766246866  0.06918276317703453  1.0000
  C   C30       1.0  0.7622308218350935  0.4035854477920857  0.9509691556226308  1.0000
  C   C31       1.0  0.8345808216668985  0.42156083704782543  0.9488456643514351  1.0000
  C   C32       1.0  0.8702527906175241  0.430544067295318  0.06692219508433794  1.0000
  C   C33       1.0  0.6489284507714725  0.37556654990211924  0.07041387290231005  1.0000
  C   C34       1.0  0.6176401198008522  0.28858838154748945  0.9893050708574727  1.0000
  C   C35       1.0  0.5456145653252853  0.27079912298487585  0.9904958576928848  1.0000
  C   C36       1.0  0.503594370866609  0.33897896381927795  0.07332733154906479  1.0000
  C   C37       1.0  0.5345108900247967  0.42680267103582525  0.15345943549603525  1.0000
  C   C38       1.0  0.6065357444531175  0.44459612791371406  0.15241659947322117  1.0000
  C   C39       1.0  0.4260028858565956  0.32216398027135007  0.07226404494722294  1.0000
  C   C40       1.0  0.3947613382784357  0.4159304996413522  0.9748550473651183  1.0000
  C   C41       1.0  0.3690854504428726  0.49303464507794587  0.8947579161452981  1.0000
  H   H18       1.0  0.9711173315192919  0.45491343086553515  0.39308635053460383  1.0000
  H   H19       1.0  0.7340671942008294  0.3951694068781033  0.2777740177198733  1.0000
  H   H20       1.0  0.7341742285344186  0.3983474706789416  0.8603367493603185  1.0000
  H   H21       1.0  0.9260585345015905  0.44440524784581337  0.06600001573381054  1.0000
  H   H22       1.0  0.8624119033869861  0.42843333781449705  0.6205565332239549  1.0000
  H   H23       1.0  0.6489541310184193  0.23322332153700764  0.9259318490834922  1.0000
  H   H24       1.0  0.5225921558442461  0.20364408588309324  0.9269353672193854  1.0000
  H   H25       1.0  0.5027909436124002  0.4818585555527586  0.21648765178903617  1.0000
  H   H26       1.0  0.6289916318846149  0.5138583721682639  0.2143358919067977  1.0000
  H   H27       1.0  0.4121143976484096  0.22192477008599365  0.04881675903521975  1.0000
  H   H28       1.0  0.40388147151883863  0.33760876617764013  0.16948567950113413  1.0000
  H   H29       1.0  0.34656369796089215  0.5607294617382368  0.8244399458397829  1.0000
  Zn  Zn1       1.0  0.7583433955290857  0.4216686434110355  0.5674555672395667  1.0000
  Zn  Zn2       1.0  0.9106505127967693  0.4216649565982126  0.5674511786499201  1.0000
  C   C42       1.0  0.8345479486434946  0.41642739890488145  0.80466307261684  1.0000
  C   C43       1.0  0.834447623179934  0.42690783963302303  0.33024380073214354  1.0000
  C   C44       1.0  0.8345363817260715  0.6588584849507191  0.5622829984200766  1.0000
  C   C45       1.0  0.8344591378720108  0.18447519328100426  0.5726239441415746  1.0000
  O   O1        1.0  0.8922567450644836  0.42862395257936725  0.3786309832352943  1.0000
  O   O2        1.0  0.892336404370936  0.41470750814362334  0.7562721853871275  1.0000
  O   O3        1.0  0.8923262850557286  0.6104736757278222  0.560548560643851  1.0000
  O   O4        1.0  0.8922668123886149  0.23285779431369158  0.5743545105996875  1.0000
  O   O5        1.0  0.7767270439622946  0.6104758056982298  0.5605522352844656  1.0000
  O   O6        1.0  0.7767371635279025  0.4147111984228859  0.7562757908097406  1.0000
  O   O7        1.0  0.7766575039300485  0.4286275980380878  0.37863302716168423  1.0000
  O   O8        1.0  0.7766675712703102  0.23286143045656305  0.574356651899627  1.0000
