data_image0
_chemical_formula_structural       NC11NC3H8C7OC3NC3H11C6NCOC6H11Zn2C4O8
_chemical_formula_sum              "N4 C44 H30 O10 Zn2"
_cell_length_a       17.807433833752565
_cell_length_b       10.298746005989749
_cell_length_c       10.299662537453274
_cell_angle_alpha    85.54306763902352
_cell_angle_beta     88.51134067563713
_cell_angle_gamma    90.6940108729131

_space_group_name_H-M_alt    "P 1"
_space_group_IT_number       1

loop_
  _space_group_symop_operation_xyz
  'x, y, z'

loop_
  _atom_site_type_symbol
  _atom_site_label
  _atom_site_symmetry_multiplicity
  _atom_site_fract_x
  _atom_site_fract_y
  _atom_site_fract_z
  _atom_site_occupancy
  N   N1        1.0  0.7077452909821901  0.4391494217950958  0.5347273667127705  1.0000
  C   C1        1.0  0.6569136063674572  0.40439478305846777  0.6012885221812881  1.0000
  C   C2        1.0  0.5936738664921462  0.36116287836823746  0.6840821053406602  1.0000
  C   C3        1.0  0.6053785212585131  0.29756124332014244  0.8067983557805376  1.0000
  C   C4        1.0  0.5440466395482007  0.25601011370977833  0.8873080846083288  1.0000
  C   C5        1.0  0.470855639890944  0.2777470836927223  0.8457423486072054  1.0000
  C   C6        1.0  0.4581742681568734  0.341503455752332  0.7225659034552885  1.0000
  C   C7        1.0  0.3804155481367014  0.36457170067167977  0.6782195584505349  1.0000
  C   C8        1.0  0.36164777929596353  0.3477464829892589  0.5486356915826915  1.0000
  C   C9        1.0  0.28842683938085695  0.36944473812256623  0.5070258805861556  1.0000
  C   C10       1.0  0.23303073472670852  0.4082870728128252  0.5941796695713177  1.0000
  C   C11       1.0  0.15767331836451662  0.4306443591154943  0.5512085852524615  1.0000
  N   N2        1.0  0.0970913284749588  0.44861795636406243  0.5166629608847679  1.0000
  C   C12       1.0  0.2511070312826051  0.4253230843257667  0.7232324073549459  1.0000
  C   C13       1.0  0.3242751718773805  0.40358980064508204  0.7650976498594545  1.0000
  C   C14       1.0  0.5203634591169297  0.3830500138973962  0.6420725904360465  1.0000
  H   H1        1.0  0.6618381866824692  0.280132787467494  0.8401632934638407  1.0000
  H   H2        1.0  0.5532273440331905  0.2065181469688473  0.9820425144096357  1.0000
  H   H3        1.0  0.4242045942573325  0.24316435522121974  0.90918017566391  1.0000
  H   H4        1.0  0.4033323729705475  0.31612765113509445  0.4799157521733331  1.0000
  H   H5        1.0  0.2749974814039172  0.3556002424430491  0.40698859475471494  1.0000
  H   H6        1.0  0.208705607838989  0.45571897787543164  0.7914374844306574  1.0000
  H   H7        1.0  0.3371762678090892  0.41897990543091207  0.8649522849004712  1.0000
  H   H8        1.0  0.5118813291972337  0.43390436152318834  0.547572575095699  1.0000
  C   C15       1.0  0.9023860015399972  0.06248082643671317  0.5256794691872237  1.0000
  C   C16       1.0  0.9375466119658167  0.07188910102989898  0.40154258613478766  1.0000
  C   C17       1.0  0.9545356124626633  0.9595040634060914  0.3381206152258369  1.0000
  C   C18       1.0  0.9375471819066423  0.8366525332895575  0.40149342208127936  1.0000
  C   C19       1.0  0.9024577833314086  0.8252767469167716  0.5257216938164624  1.0000
  C   C20       1.0  0.8849190306343379  0.9387579973996556  0.5868803657677785  1.0000
  C   C21       1.0  0.9923033707424388  0.9692629290892746  0.20755144022539887  1.0000
  O   O1        1.0  0.0381770895527964  0.8824102368541354  0.18021052406785754  1.0000
  C   C22       1.0  0.9780318808487503  0.077491959568871  0.10800685445726343  1.0000
  C   C23       1.0  0.9068961961592781  0.13515874114544713  0.09919975675673953  1.0000
  C   C24       1.0  0.8937446234672983  0.23654672900759288  0.00390215339546285  1.0000
  N   N3        1.0  0.8214061985335811  0.2950261092038253  0.9960542446902645  1.0000
  C   C25       1.0  0.9517753851998144  0.2798771500135102  0.9160746616693585  1.0000
  C   C26       1.0  0.022225565345484585  0.22202964524173124  0.9230574741706931  1.0000
  C   C27       1.0  0.035318743078870396  0.12106482802854135  0.01805357584613754  1.0000
  H   H9        1.0  0.8369914711158611  0.2520239978864552  0.7610515394806192  1.0000
  H   H10       1.0  0.9524928241774763  0.16678710209238348  0.354626860618899  1.0000
  H   H11       1.0  0.9511028960396898  0.7498089077851277  0.35316611423340705  1.0000
  H   H12       1.0  0.8578202512286788  0.9307539290189956  0.6825691465779877  1.0000
  H   H13       1.0  0.8364389961328536  0.5964709477087784  0.7606341970177195  1.0000
  H   H14       1.0  0.8613918039311982  0.10062349329304034  0.1652742841791539  1.0000
  H   H15       1.0  0.7777472806482529  0.26348617500365434  0.061031675976372934  1.0000
  H   H16       1.0  0.8109936964833743  0.37041556366939443  0.925298244851239  1.0000
  H   H17       1.0  0.9423177396222105  0.35802726394667395  0.8420255836961386  1.0000
  H   H18       1.0  0.06680978625500744  0.2555078028447617  0.8546933066082398  1.0000
  H   H19       1.0  0.09041687421194665  0.07776032821533252  0.022024811713394543  1.0000
  C   C28       1.0  0.9024736266721428  0.4440205735629622  0.1443222144144927  1.0000
  C   C29       1.0  0.979166971767101  0.47826300487887147  0.13695182873070522  1.0000
  C   C30       1.0  0.01802236754175035  0.4936342340799847  0.01654525523016193  1.0000
  C   C31       1.0  0.9790354839752785  0.47794970759195565  0.9018146142632126  1.0000
  C   C32       1.0  0.9023701912480715  0.44373696524614403  0.9070789530333738  1.0000
  C   C33       1.0  0.8645862044458715  0.42652254221293423  0.02887806819880767  1.0000
  N   N4        1.0  0.09625722956792582  0.530625393207051  0.012433918782411183  1.0000
  C   C34       1.0  0.14942403331459128  0.49206493470272555  0.9157517588991794  1.0000
  O   O2        1.0  0.1357123881227653  0.3931648920487419  0.8548305315049053  1.0000
  C   C35       1.0  0.22156062274620097  0.564153916326215  0.890058609036252  1.0000
  C   C36       1.0  0.23063614317158287  0.692455763293255  0.9259989971081426  1.0000
  C   C37       1.0  0.29879702368115835  0.7596744833545249  0.9006498670337058  1.0000
  C   C38       1.0  0.3584287253210854  0.700092464632034  0.838904659937962  1.0000
  C   C39       1.0  0.3499629550207779  0.5732519524271058  0.8019300998337027  1.0000
  C   C40       1.0  0.28193012459947475  0.5055792754270447  0.8269441820049188  1.0000
  H   H20       1.0  0.7576312971436827  0.38062993220151387  0.3654037386789455  1.0000
  H   H21       1.0  0.009268134177357725  0.4922153327182228  0.22497639288438556  1.0000
  H   H22       1.0  0.0081352018468992  0.49462266537043503  0.8083522301097705  1.0000
  H   H23       1.0  0.805466652802901  0.40010859160179213  0.03369558154164643  1.0000
  H   H24       1.0  0.8727189884020202  0.4322879252236149  0.5815304629185847  1.0000
  H   H25       1.0  0.11676488340758984  0.5783319595390353  0.09040783814235609  1.0000
  H   H26       1.0  0.18499272954361046  0.74188528328641  0.9718935823216689  1.0000
  H   H27       1.0  0.3052690573732031  0.858319806509737  0.9284713229734908  1.0000
  H   H28       1.0  0.4111109954667631  0.7523561202715998  0.8193458953168524  1.0000
  H   H29       1.0  0.3961620011639675  0.5272535462540495  0.753812958447885  1.0000
  H   H30       1.0  0.27674544643921495  0.40718789957460694  0.7976879726494533  1.0000
  Zn  Zn1       1.0  0.8201021455218187  0.4418783586084326  0.5295218539155226  1.0000
  Zn  Zn2       1.0  0.9847344567392822  0.44587839507532556  0.5218790593700474  1.0000
  C   C41       1.0  0.9023875604995819  0.4386164037890336  0.7629013953490703  1.0000
  C   C42       1.0  0.9024508396781854  0.4491420322933918  0.2884995620377768  1.0000
  C   C43       1.0  0.9024410586665831  0.6810938944041022  0.520538602896881  1.0000
  C   C44       1.0  0.9023972851774277  0.20666297984585175  0.5308624262518586  1.0000
  O   O3        1.0  0.9649202957400849  0.4523731673743124  0.3339863959634801  1.0000
  O   O4        1.0  0.9648702192778518  0.4384202241610247  0.7116134832960164  1.0000
  O   O5        1.0  0.964912577319868  0.6342238434137399  0.5159038528080422  1.0000
  O   O6        1.0  0.9648778815342953  0.2565695560839116  0.5296959316828536  1.0000
  O   O7        1.0  0.8399586645458786  0.6311871962362472  0.5217049842039954  1.0000
  O   O8        1.0  0.839916306656693  0.43538513745240387  0.7174145455313568  1.0000
  O   O9        1.0  0.8399663833764208  0.4493380359874477  0.3397858967545808  1.0000
  O   O10       1.0  0.8399239691534781  0.25353441537113297  0.5354955298438349  1.0000
