data_image0
_chemical_formula_structural       NC9NC5H8C10FC2H9C10IC2H9Zn2C4O8
_chemical_formula_sum              "N2 C42 H26 F1 I1 Zn2 O8"
_cell_length_a       17.807436237873137
_cell_length_b       10.299764965457928
_cell_length_c       10.299773630820608
_cell_angle_alpha    85.54414550411518
_cell_angle_beta     89.39680483827473
_cell_angle_gamma    88.4084137902969

_space_group_name_H-M_alt    "P 1"
_space_group_IT_number       1

loop_
  _space_group_symop_operation_xyz
  'x, y, z'

loop_
  _atom_site_type_symbol
  _atom_site_label
  _atom_site_symmetry_multiplicity
  _atom_site_fract_x
  _atom_site_fract_y
  _atom_site_fract_z
  _atom_site_occupancy
  N   N1        1.0  0.7075948098214577  0.38818831472013443  0.5571487524833282  1.0000
  C   C1        1.0  0.6470001837703372  0.35300278032158383  0.5461241703015236  1.0000
  C   C2        1.0  0.5716271288759662  0.30923585036896384  0.5324107871047219  1.0000
  C   C3        1.0  0.5535170760632675  0.23785562496749876  0.42740628405267694  1.0000
  C   C4        1.0  0.48033370426302313  0.19524984093337452  0.41400884212709643  1.0000
  C   C5        1.0  0.4242115950429722  0.22364677027685764  0.5055834447968007  1.0000
  C   C6        1.0  0.3464365617084461  0.17848268304686266  0.4914275102908665  1.0000
  C   C7        1.0  0.2842767125444225  0.2602290067242472  0.5173679678970255  1.0000
  C   C8        1.0  0.2109509989030263  0.2174201841618375  0.5039842035470863  1.0000
  C   C9        1.0  0.1477415781674955  0.30185769194341683  0.5302886130850846  1.0000
  N   N2        1.0  0.096934191067457  0.36973960612759865  0.5514366317599606  1.0000
  C   C10       1.0  0.1992015403941313  0.09260707102775756  0.4646346271748063  1.0000
  C   C11       1.0  0.2605040167348937  0.010846897994106767  0.43868577959377575  1.0000
  C   C12       1.0  0.3337102147739794  0.05326125167058061  0.4518669978047549  1.0000
  C   C13       1.0  0.4430131553284689  0.29552128266017896  0.610807187070846  1.0000
  C   C14       1.0  0.5162493551514401  0.3379367255719201  0.6240489742706838  1.0000
  H   H1        1.0  0.5959041471185254  0.2153936824210068  0.3556928574922616  1.0000
  H   H2        1.0  0.467406938108174  0.14159502485390085  0.3310871209198887  1.0000
  H   H3        1.0  0.2927937459584884  0.3576827921189747  0.5462468277428825  1.0000
  H   H4        1.0  0.14272965588328923  0.05857506138706836  0.4540391064433875  1.0000
  H   H5        1.0  0.2512887292995941  0.9142135784695915  0.4086065183090323  1.0000
  H   H6        1.0  0.3803378706495738  0.9875235698774016  0.4328173708539219  1.0000
  H   H7        1.0  0.40134293093067286  0.31744377405436985  0.6838151074674599  1.0000
  H   H8        1.0  0.5297046439515296  0.3928124352986824  0.70592908619171  1.0000
  C   C15       1.0  0.902197236007531  0.9976016268691933  0.5542917027873121  1.0000
  C   C16       1.0  0.9070789056659575  0.006980043244794401  0.41774422185682436  1.0000
  C   C17       1.0  0.9096246588457106  0.8945895129649941  0.3485594814843423  1.0000
  C   C18       1.0  0.9072222233027977  0.7716856455413835  0.41775759179972494  1.0000
  C   C19       1.0  0.9023389549154867  0.7603159876665797  0.5543048435824228  1.0000
  C   C20       1.0  0.8998542160775195  0.8738298989741062  0.6218070184216189  1.0000
  C   C21       1.0  0.9147897787798561  0.9055646583782104  0.20410137951022578  1.0000
  C   C22       1.0  0.9625255264237228  0.820502441514014  0.13871741501328128  1.0000
  C   C23       1.0  0.9673010743040121  0.8310695708669816  0.002732932366245725  1.0000
  C   C24       1.0  0.9245696580283744  0.9263454546030968  0.9305698744988096  1.0000
  F   F1        1.0  0.9292837271792567  0.9363621278092185  0.7987214730210783  1.0000
  C   C25       1.0  0.8769780725704472  0.011294186841676705  0.9943387813327812  1.0000
  C   C26       1.0  0.8720302489556745  0.0012005783452102583  0.13030730180543615  1.0000
  H   H9        1.0  0.9003030453766919  0.32148332606265617  0.6063223299147519  1.0000
  H   H10       1.0  0.9099503940723335  0.10187412506969329  0.3649676906788132  1.0000
  H   H11       1.0  0.908131471932321  0.6848246806920836  0.36479865948848694  1.0000
  H   H12       1.0  0.8960875778828905  0.8658268715391267  0.7271468340440251  1.0000
  H   H13       1.0  0.9005116685291525  0.4285278998800972  0.6063418198448547  1.0000
  H   H14       1.0  0.9968480275794434  0.7470071660248978  0.19276547365372187  1.0000
  H   H15       1.0  0.0043417903393330225  0.7654543453963186  0.9533847523068291  1.0000
  H   H16       1.0  0.843699838015459  0.08490400985420599  0.938455608568681  1.0000
  H   H17       1.0  0.8340829406375471  0.066993629570131  0.1776390555519998  1.0000
  C   C27       1.0  0.902248293389131  0.37907788121694114  0.17292844995205514  1.0000
  C   C28       1.0  0.9779983516063404  0.41368005236628336  0.16786549086918456  1.0000
  C   C29       1.0  0.016401450084290396  0.43109215762949904  0.0481705196643858  1.0000
  C   C30       1.0  0.9780383072047683  0.41343937104203565  0.9325970575617597  1.0000
  C   C31       1.0  0.9022878724083989  0.3788397703309964  0.9356680680011077  1.0000
  C   C32       1.0  0.8648171289267079  0.3618521030320916  0.05630894302013935  1.0000
  C   C33       1.0  0.09653784140541166  0.4676970307353183  0.04386795256395049  1.0000
  C   C34       1.0  0.14778883471083804  0.4092549551904591  0.9596672030972543  1.0000
  C   C35       1.0  0.22319306634834768  0.4438352193379991  0.95581922007265  1.0000
  C   C36       1.0  0.24831201240667908  0.5370264768304895  0.035717331244828905  1.0000
  I   I1        1.0  0.3620893351377523  0.588999689869789  0.0296067844676875  1.0000
  C   C37       1.0  0.19793073529821492  0.5957293807186983  0.11967016535577325  1.0000
  C   C38       1.0  0.12248436637278969  0.5614022741896938  0.12392312620796943  1.0000
  H   H18       1.0  0.8733744009943214  0.36595025110632307  0.5023066986707131  1.0000
  H   H19       1.0  0.007602371633338655  0.42542913523642084  0.25734455338286605  1.0000
  H   H20       1.0  0.007094155006221788  0.428484718613216  0.8399687232177184  1.0000
  H   H21       1.0  0.8063792483794079  0.33515915195399454  0.0594463807575909  1.0000
  H   H22       1.0  0.8734328278898817  0.36559968668014337  0.6093889092824704  1.0000
  H   H23       1.0  0.12976851855760446  0.33564923741582375  0.8980919008509916  1.0000
  H   H24       1.0  0.26209584411507403  0.3979063860019723  0.8909391174335815  1.0000
  H   H25       1.0  0.21714120086097843  0.6682040468210886  0.1814293403355567  1.0000
  H   H26       1.0  0.08425391858277065  0.6093131995010863  0.1885193306930033  1.0000
  Zn  Zn1       1.0  0.8199497436086132  0.3828609483644738  0.555507868581733  1.0000
  Zn  Zn2       1.0  0.9845792376705157  0.3750563831628655  0.5530881921165531  1.0000
  C   C39       1.0  0.902277759979178  0.3737112411065515  0.7914939109376072  1.0000
  C   C40       1.0  0.902253019359952  0.38420764374599137  0.31710225083288757  1.0000
  C   C41       1.0  0.9023080182630974  0.6161485374974383  0.5491272371290532  1.0000
  C   C42       1.0  0.9022227046132074  0.1417687897216462  0.5594689946790089  1.0000
  O   O1        1.0  0.9647306394090007  0.3829617814502796  0.36457004074648725  1.0000
  O   O2        1.0  0.9647501164545009  0.36903263941113346  0.7421892687106229  1.0000
  O   O3        1.0  0.9647737082646864  0.5648038617895998  0.5464764772277537  1.0000
  O   O4        1.0  0.964706991418593  0.1871905710554429  0.5602827356802873  1.0000
  O   O5        1.0  0.8398219336805691  0.5707267631366267  0.5483133258368849  1.0000
  O   O6        1.0  0.8397983421532421  0.37495710105634905  0.7440260481010719  1.0000
  O   O7        1.0  0.8397788650682593  0.3888861983254728  0.3664052587310047  1.0000
  O   O8        1.0  0.8397552170781073  0.1931149786117372  0.5621180510327596  1.0000
