data_image0
_chemical_formula_structural       NC6NCNCH5C7NH3C6ClH3Zn2C4O8
_chemical_formula_sum              "N4 C25 H11 Cl1 Zn2 O8"
_cell_length_a       14.933214217465613
_cell_length_b       9.275154477615127
_cell_length_c       10.302974078461048
_cell_angle_alpha    85.7869106659326
_cell_angle_beta     89.96595870270414
_cell_angle_gamma    89.46799387830556

_space_group_name_H-M_alt    "P 1"
_space_group_IT_number       1

loop_
  _space_group_symop_operation_xyz
  'x, y, z'

loop_
  _atom_site_type_symbol
  _atom_site_label
  _atom_site_symmetry_multiplicity
  _atom_site_fract_x
  _atom_site_fract_y
  _atom_site_fract_z
  _atom_site_occupancy
  N   N1        1.0  0.8335432013041824  0.578753975729352  0.5728284224793765  1.0000
  C   C1        1.0  0.756046823246619  0.5797504615720843  0.5719398867123393  1.0000
  C   C2        1.0  0.6596407548759529  0.5809928248705054  0.5708319919544553  1.0000
  C   C3        1.0  0.6124041955756767  0.48524868814416067  0.6562214605428249  1.0000
  C   C4        1.0  0.5188641236479393  0.48633134799736305  0.655255916263829  1.0000
  C   C5        1.0  0.47165859385828424  0.5831032879754275  0.5689498337005117  1.0000
  C   C6        1.0  0.3750960106508029  0.5809949811195751  0.5708301345652282  1.0000
  N   N2        1.0  0.2976211673375182  0.5792361874167662  0.5723983847802374  1.0000
  C   C7        1.0  0.5189864963491719  0.6800564120692332  0.4824822442728538  1.0000
  N   N3        1.0  0.4730572747916997  0.7806396333178527  0.39277727957340813  1.0000
  C   C8        1.0  0.6130128568388336  0.6780078098607447  0.4843093961740965  1.0000
  H   H1        1.0  0.6478652496367059  0.40976087535370415  0.7235452752220655  1.0000
  H   H2        1.0  0.48324027311444234  0.4114785504509269  0.7220132771439869  1.0000
  H   H3        1.0  0.5089766827121566  0.8516811698445002  0.3294188038279662  1.0000
  H   H4        1.0  0.40328294032493384  0.7859915185181905  0.3880042616946848  1.0000
  H   H5        1.0  0.6497657678018635  0.7521074651066805  0.4182235777950576  1.0000
  C   C9        1.0  0.06817775983062013  0.15560846393265315  0.5711087013843348  1.0000
  C   C10       1.0  0.043598072100301775  0.23876201379545997  0.4566650338513106  1.0000
  C   C11       1.0  0.01173466189567685  0.17269048598471737  0.3482915733659404  1.0000
  C   C12       1.0  0.0039262938940101124  0.0225618481327039  0.3530855863410962  1.0000
  C   C13       1.0  0.029335933824863342  0.9382014856367835  0.46491931345841864  1.0000
  C   C14       1.0  0.0629952410878476  0.002370597281417641  0.5741293559536373  1.0000
  C   C15       1.0  0.9859636246636273  0.25942461038912146  0.232469390586312  1.0000
  N   N4        1.0  0.965250859167022  0.32914294779635234  0.13937802270974786  1.0000
  H   H6        1.0  0.08554070348778064  0.23229755223758722  0.8897654320594364  1.0000
  H   H7        1.0  0.9789601157997181  0.9704093350269923  0.26979421767688505  1.0000
  H   H8        1.0  0.07848619627419012  0.7036164407584935  0.7876348555155877  1.0000
  C   C16       1.0  0.06558650588063242  0.5789895388365756  0.19137651579035486  1.0000
  C   C17       1.0  0.05092645026937981  0.42922673967959357  0.20009043350247335  1.0000
  C   C18       1.0  0.04365257648654011  0.35491851787856965  0.08745725054424525  1.0000
  C   C19       1.0  0.05092648982093051  0.42922682114607835  0.964982534784721  1.0000
  C   C20       1.0  0.06558650405200206  0.5789894644114743  0.9538615346004069  1.0000
  C   C21       1.0  0.07284508654880734  0.6531408644670755  0.06770865582736119  1.0000
  Cl  Cl1       1.0  0.025338687214050862  0.16782920327227413  0.09984654664653925  1.0000
  H   H9        1.0  0.04509581599068335  0.36966257720125495  0.29408139176857806  1.0000
  H   H10       1.0  0.04509587869155431  0.36966255669337283  0.8788804255633016  1.0000
  H   H11       1.0  0.08415132128168137  0.768642430216179  0.060059895949824194  1.0000
  Zn  Zn1       1.0  0.9674661019491398  0.5788892629832614  0.5727118140648517  1.0000
  Zn  Zn2       1.0  0.16369832442173748  0.5790890722298807  0.5725256123578288  1.0000
  C   C22       1.0  0.06561964786426988  0.5732458106134524  0.8097150252333292  1.0000
  C   C23       1.0  0.06554691022240824  0.5847343459376413  0.3355225330696219  1.0000
  C   C24       1.0  0.06397023443756746  0.8423145057973187  0.5683849040118378  1.0000
  C   C25       1.0  0.06719626729058925  0.3156639184751964  0.5768527173910944  1.0000
  O   O1        1.0  0.14000276581046256  0.5867318922781536  0.3838285682433391  1.0000
  O   O2        1.0  0.1400995152853155  0.5713988272035153  0.7612672896703137  1.0000
  O   O3        1.0  0.13876658920438012  0.788675200380324  0.5663915156336776  1.0000
  O   O4        1.0  0.1413356248675106  0.36945552934695014  0.5787042450379161  1.0000
  O   O5        1.0  0.9898287345389309  0.7885228057995759  0.5665331814414822  1.0000
  O   O6        1.0  0.9911616500139506  0.5712481648347305  0.7614088924348543  1.0000
  O   O7        1.0  0.9910649009061889  0.5865811796674274  0.3839686099455069  1.0000
  O   O8        1.0  0.9923977600226876  0.3693048064240033  0.5788443840388613  1.0000
