data_image0
_chemical_formula_structural       NC9NC4H8C8NH6C9H10Zn2C4O8
_chemical_formula_sum              "N3 C34 H24 Zn2 O8"
_cell_length_a       16.32274767691083
_cell_length_b       9.274263428431858
_cell_length_c       9.272679976505533
_cell_angle_alpha    85.97590121954681
_cell_angle_beta     89.86705810092191
_cell_angle_gamma    90.1410557844374

_space_group_name_H-M_alt    "P 1"
_space_group_IT_number       1

loop_
  _space_group_symop_operation_xyz
  'x, y, z'

loop_
  _atom_site_type_symbol
  _atom_site_label
  _atom_site_symmetry_multiplicity
  _atom_site_fract_x
  _atom_site_fract_y
  _atom_site_fract_z
  _atom_site_occupancy
  N   N1        1.0  0.7747098667245578  0.5553481797215227  0.3968140191317546  1.0000
  C   C1        1.0  0.721821329686434  0.5021796890605144  0.3365889464197416  1.0000
  C   C2        1.0  0.6560808740154457  0.43614400961908295  0.2617889245246048  1.0000
  C   C3        1.0  0.6666941614969468  0.34581894602621044  0.15947104091351094  1.0000
  C   C4        1.0  0.5868700999449876  0.30173986751834203  0.10954331775939254  1.0000
  C   C5        1.0  0.5286080410304342  0.36624864932707335  0.18261971014766787  1.0000
  C   C6        1.0  0.43849323996902245  0.34919958947610713  0.16331019314065376  1.0000
  C   C7        1.0  0.38367934291399536  0.42438867513324413  0.24847724094986456  1.0000
  C   C8        1.0  0.2988192847440633  0.40981772688550144  0.23197410384337133  1.0000
  C   C9        1.0  0.24361749974732794  0.48731825649822125  0.3197584913000935  1.0000
  N   N2        1.0  0.1992540717237375  0.5496159259106982  0.3903222705334244  1.0000
  C   C10       1.0  0.267718823306907  0.3199360946989629  0.1301668738692605  1.0000
  C   C11       1.0  0.3212118393280333  0.24484660551249937  0.04511301487912854  1.0000
  C   C12       1.0  0.405909018882315  0.259025078371133  0.06117145991173455  1.0000
  C   C13       1.0  0.5673403840794228  0.46030952197066893  0.2891665407655102  1.0000
  H   H1        1.0  0.725236378526143  0.31069576806566945  0.119681934599281  1.0000
  H   H2        1.0  0.5778070578167218  0.2279173039771778  0.025918833948701977  1.0000
  H   H3        1.0  0.406521484031074  0.4945564424679503  0.327955065281885  1.0000
  H   H4        1.0  0.20220224190341474  0.3079326539388336  0.11657196130085756  1.0000
  H   H5        1.0  0.2969802661548536  0.1753147848430932  0.9663557993161258  1.0000
  H   H6        1.0  0.4450656134348918  0.19895832402027638  0.9931342853661453  1.0000
  H   H7        1.0  0.5507763131138437  0.42262481306108884  0.401868411945997  1.0000
  H   H8        1.0  0.5511698637971582  0.575685093520684  0.26447091721556015  1.0000
  C   C14       1.0  0.9843948098863128  0.1289359788255251  0.39391407988496985  1.0000
  C   C15       1.0  0.9732845280161763  0.2113867486711398  0.262327148875829  1.0000
  C   C16       1.0  0.9702137418171254  0.14546750224242855  0.13180997679516415  1.0000
  C   C17       1.0  0.9788431948939863  0.9955527851002461  0.1296412394960933  1.0000
  C   C18       1.0  0.9877514860156967  0.9116200412399991  0.26037810048649357  1.0000
  C   C19       1.0  0.9895769654031511  0.9760170230578787  0.3932345921138418  1.0000
  C   C20       1.0  0.9743106505622955  0.9244956054780752  0.989046392078683  1.0000
  C   C21       1.0  0.8891879896921118  0.8864510803016158  0.9583067082482453  1.0000
  N   N3        1.0  0.8220025263493782  0.8564220779440467  0.9340540642720573  1.0000
  H   H9        1.0  0.05640540097904709  0.20890185664548944  0.7251938466399033  1.0000
  H   H10       1.0  0.9687466825850123  0.3280479417015539  0.2600353209445265  1.0000
  H   H11       1.0  0.9618678811910907  0.2117050672926737  0.032027765166998456  1.0000
  H   H12       1.0  0.03487894565318214  0.6797247246953213  0.6182775605456334  1.0000
  H   H13       1.0  0.012180521056596172  0.824913836669396  0.9940464882235034  1.0000
  H   H14       1.0  0.9981474763644925  0.9982656548100688  0.8989641764395464  1.0000
  C   C22       1.0  0.9853041855103625  0.5490930895291515  0.9702397825248656  1.0000
  C   C23       1.0  0.040428068940176365  0.45912406976252584  0.04972631801362715  1.0000
  C   C24       1.0  0.09965748194789413  0.38078836917173997  0.9802745615162806  1.0000
  C   C25       1.0  0.10576631877780925  0.3898447443522222  0.8293124245614014  1.0000
  C   C26       1.0  0.049647188478711746  0.4778695526198842  0.7484582179119532  1.0000
  C   C27       1.0  0.9886675725267614  0.5558598896884319  0.8169089206677054  1.0000
  C   C28       1.0  0.1725775128212499  0.3020518745110288  0.7622041309441427  1.0000
  C   C29       1.0  0.15266816590273513  0.23630892199970768  0.6204554700247016  1.0000
  C   C30       1.0  0.21107608683526946  0.3646757323972712  0.6216523661063555  1.0000
  H   H15       1.0  0.862558569845745  0.6482760662257756  0.24499848755095344  1.0000
  H   H16       1.0  0.03908674758756759  0.4518661891727551  0.166826585608711  1.0000
  H   H17       1.0  0.1416568199991033  0.31356118082911544  0.04531197949326171  1.0000
  H   H18       1.0  0.051517731484941987  0.4840799432812364  0.6316462934360274  1.0000
  H   H19       1.0  0.8035214613610542  0.6940576459393399  0.704941139159005  1.0000
  H   H20       1.0  0.2149945341975319  0.23659128169447488  0.8337877768123789  1.0000
  H   H21       1.0  0.0919717822957342  0.26174341453948546  0.5716845412818712  1.0000
  H   H22       1.0  0.1838510753172613  0.13204545795844402  0.6057582274642583  1.0000
  H   H23       1.0  0.18589828798963515  0.46801943231590976  0.5734912408167925  1.0000
  H   H24       1.0  0.27640537942719323  0.3354274675865907  0.6076506891135676  1.0000
  Zn  Zn1       1.0  0.897224169225333  0.5536901705711519  0.394948969104572  1.0000
  Zn  Zn2       1.0  0.07673974990444687  0.5512621938800604  0.39219913996441536  1.0000
  C   C31       1.0  0.9879948498208108  0.5488349699874836  0.6568749189957102  1.0000
  C   C32       1.0  0.9859710413087708  0.5561191889222827  0.13027330007818483  1.0000
  C   C33       1.0  0.9885703858720977  0.8158547827489269  0.3876184327146075  1.0000
  C   C34       1.0  0.9853954337056234  0.2890976447408591  0.399529865545285  1.0000
  O   O1        1.0  0.054320033026570735  0.5575495152234229  0.18293846971304673  1.0000
  O   O2        1.0  0.05589402182568026  0.5455607741667425  0.6021222785591622  1.0000
  O   O3        1.0  0.05635786205978288  0.7611826742991803  0.3846957737175387  1.0000
  O   O4        1.0  0.05385613116969368  0.3419276253732759  0.40036486739500066  1.0000
  O   O5        1.0  0.920107726700209  0.7630247399079948  0.3867832426047846  1.0000
  O   O6        1.0  0.919643896758089  0.5474045720255963  0.6042096691912082  1.0000
  O   O7        1.0  0.9180699008207698  0.5593932489682616  0.18502412716820604  1.0000
  O   O8        1.0  0.9176059993267892  0.3437713496658828  0.4024506329406279  1.0000
