data_image0
_chemical_formula_structural       NC12NC2H8C7OC6H10C7OC6OCH12Zn2C4O8
_chemical_formula_sum              "N2 C45 H30 O11 Zn2"
_cell_length_a       19.240039667572717
_cell_length_b       10.299379429549806
_cell_length_c       10.299362532796529
_cell_angle_alpha    85.55652278512687
_cell_angle_beta     90.01509071760941
_cell_angle_gamma    89.99618039744932

_space_group_name_H-M_alt    "P 1"
_space_group_IT_number       1

loop_
  _space_group_symop_operation_xyz
  'x, y, z'

loop_
  _atom_site_type_symbol
  _atom_site_label
  _atom_site_symmetry_multiplicity
  _atom_site_fract_x
  _atom_site_fract_y
  _atom_site_fract_z
  _atom_site_occupancy
  N   N1        1.0  0.6542243668339012  0.4209188986361039  0.5669606352216032  1.0000
  C   C1        1.0  0.5940759980020675  0.4209189825972084  0.5669605532556982  1.0000
  C   C2        1.0  0.519257960837355  0.4209190998477532  0.5669604159107049  1.0000
  C   C3        1.0  0.4828011302903473  0.35648167333175684  0.6703943751452149  1.0000
  C   C4        1.0  0.4101303983536363  0.35637081200492393  0.670480955673509  1.0000
  C   C5        1.0  0.3729257258646161  0.42091919234863107  0.5669601881979702  1.0000
  C   C6        1.0  0.4100967317835547  0.48546775974941064  0.463439615196509  1.0000
  C   C7        1.0  0.48276743643625303  0.4853566629466636  0.46352631830699664  1.0000
  C   C8        1.0  0.2957206354143478  0.4209191136535549  0.5669600928104735  1.0000
  C   C9        1.0  0.25854277706590445  0.30766442706272046  0.6088699998757428  1.0000
  C   C10       1.0  0.1858720719860675  0.3077713056671716  0.6087786377765232  1.0000
  C   C11       1.0  0.1493883485043543  0.4209189844916584  0.5669601537653575  1.0000
  C   C12       1.0  0.0745703113885239  0.4209188708181668  0.5669604024642374  1.0000
  N   N2        1.0  0.014421994567267494  0.42091883005599057  0.566960610896525  1.0000
  C   C13       1.0  0.1858521358690874  0.534066739132073  0.5251416168373617  1.0000
  C   C14       1.0  0.25852281536190497  0.5341737978183962  0.5250500920818582  1.0000
  H   H1        1.0  0.51052916318108  0.3065930234188029  0.7511525251464715  1.0000
  H   H2        1.0  0.3830503872665569  0.30728063577241205  0.7523543279114457  1.0000
  H   H3        1.0  0.3829902120743704  0.5345579630203992  0.38156619210103687  1.0000
  H   H4        1.0  0.5104691750510683  0.5352452126755407  0.38276844413437766  1.0000
  H   H5        1.0  0.2856436320467918  0.21851328202954123  0.6400684506425032  1.0000
  H   H6        1.0  0.1581649233072166  0.2195197100352975  0.6410097360475986  1.0000
  H   H7        1.0  0.15812946110307669  0.6223183102300848  0.4929105331251705  1.0000
  H   H8        1.0  0.2856084391890861  0.623325022019197  0.4938515965162824  1.0000
  C   C15       1.0  0.8343341239269552  0.03952701948879489  0.5671146706731094  1.0000
  C   C16       1.0  0.8764813735102546  0.029674015974637816  0.6788590203602535  1.0000
  C   C17       1.0  0.897087865444774  0.9074654580436602  0.7360708009551924  1.0000
  C   C18       1.0  0.8763967362160664  0.794451855459114  0.6785827411068854  1.0000
  C   C19       1.0  0.8343189174336367  0.8023007524350749  0.5668177664916298  1.0000
  C   C20       1.0  0.8133807567027481  0.9253126259643718  0.5119291534826018  1.0000
  C   C21       1.0  0.942195717419054  0.8969779950993096  0.8532669514146344  1.0000
  O   O1        1.0  0.9862905012573254  0.8061954939026525  0.8656230014206993  1.0000
  C   C22       1.0  0.9372769888134772  0.9893765775907875  0.9564505403435439  1.0000
  C   C23       1.0  0.9967372101877868  0.01886413553145139  0.028012366844038846  1.0000
  C   C24       1.0  0.9924463793354439  0.10465511805680207  0.12650351725394704  1.0000
  C   C25       1.0  0.9287839946004899  0.16095790760895223  0.15526142857976344  1.0000
  C   C26       1.0  0.8692175366801678  0.13116219682786245  0.08594367544283776  1.0000
  C   C27       1.0  0.8732292503461003  0.04545083924818071  0.9873648591464328  1.0000
  H   H9        1.0  0.7556765992332936  0.26553020585368636  0.3550856935923581  1.0000
  H   H10       1.0  0.8939702961372527  0.1172753207937571  0.7206955375272568  1.0000
  H   H11       1.0  0.8926731768253346  0.7001642884124465  0.7220194400356131  1.0000
  H   H12       1.0  0.7808887306356178  0.9321044561063685  0.4257820762340394  1.0000
  H   H13       1.0  0.8186381575408901  0.47790822809532507  0.5232506822387017  1.0000
  H   H14       1.0  0.046594245491482715  0.9764122732142172  0.006965269205407744  1.0000
  H   H15       1.0  0.03852586503893062  0.12744252266175038  0.1805989467339738  1.0000
  H   H16       1.0  0.9255574379067392  0.22725265659308214  0.23160154828695878  1.0000
  H   H17       1.0  0.819808012961644  0.17405344131339584  0.10899057545386748  1.0000
  H   H18       1.0  0.8261903673694683  0.021979550155360128  0.9364291389758441  1.0000
  C   C28       1.0  0.8342722794383052  0.4207933405252094  0.1855993904391784  1.0000
  C   C29       1.0  0.7682983726659751  0.36210936397142346  0.1889098992907141  1.0000
  C   C30       1.0  0.7347233454472281  0.3338342216391006  0.07340759882332404  1.0000
  C   C31       1.0  0.7684940955573143  0.3622729311565432  0.9536555357340788  1.0000
  C   C32       1.0  0.8343807676806316  0.42103440867955055  0.9483330716731335  1.0000
  C   C33       1.0  0.866832605115059  0.4502112013975441  0.06484386758066041  1.0000
  C   C34       1.0  0.665410023682908  0.27053292660482486  0.07923506064284135  1.0000
  O   O2        1.0  0.6512116881256702  0.19132178884007  0.17516245706237732  1.0000
  C   C35       1.0  0.6122067500895405  0.29708567789368523  0.976309924384628  1.0000
  C   C36       1.0  0.6068595454896997  0.42046530974243257  0.9084085040460187  1.0000
  C   C37       1.0  0.5559866059343707  0.4446463091704251  0.8127035132797222  1.0000
  C   C38       1.0  0.5092360137461257  0.3469764147019907  0.7836927273412098  1.0000
  C   C39       1.0  0.5138522897414668  0.2237903485532351  0.8525122884841755  1.0000
  C   C40       1.0  0.564719003426777  0.1994821427137115  0.948289733773326  1.0000
  O   O3        1.0  0.45920257212523635  0.37613768053001506  0.6866968362945761  1.0000
  C   C41       1.0  0.40852907063620225  0.2863712886866081  0.6473591658340441  1.0000
  H   H19       1.0  0.9588836527127581  0.5310385283235581  0.3866607689109598  1.0000
  H   H20       1.0  0.742565258952867  0.3393671254880746  0.2814528361317379  1.0000
  H   H21       1.0  0.7436490894988337  0.3371914242814727  0.864611229362921  1.0000
  H   H22       1.0  0.9176595491677167  0.4955372208708677  0.06147075928296908  1.0000
  H   H23       1.0  0.8597728971748231  0.44309369304028223  0.6188552843552597  1.0000
  H   H24       1.0  0.6415007046597693  0.49872051332299505  0.9302022454205492  1.0000
  H   H25       1.0  0.5526731722822682  0.5401111690257225  0.7611027205770772  1.0000
  H   H26       1.0  0.4784127559257834  0.14622097282604707  0.8328150560332309  1.0000
  H   H27       1.0  0.5673571700702048  0.10383540417896617  0.999777405221896  1.0000
  H   H28       1.0  0.3758819362483716  0.33506915891350797  0.5692568189148068  1.0000
  H   H29       1.0  0.37459107561395205  0.2541564376698453  0.7309213831991221  1.0000
  H   H30       1.0  0.4344394844042494  0.2010464409834514  0.6087365447617206  1.0000
  Zn  Zn1       1.0  0.7581696318064045  0.42091541380154984  0.5669681179364946  1.0000
  Zn  Zn2       1.0  0.9104767500844998  0.42091172412320943  0.5669637311471505  1.0000
  C   C42       1.0  0.8343588042671726  0.4158148627808372  0.8041620742893647  1.0000
  C   C43       1.0  0.8342892407981771  0.4260139138620631  0.32976990157429076  1.0000
  C   C44       1.0  0.8343174745255395  0.65811863698314  0.5616987513526921  1.0000
  C   C45       1.0  0.8343305186090004  0.18370857928647455  0.5722332943580681  1.0000
  O   O4        1.0  0.8920946909298052  0.4277589196685332  0.3781531795668409  1.0000
  O   O5        1.0  0.8921509327281635  0.4140660766942861  0.7557750933625743  1.0000
  O   O6        1.0  0.8921167794627829  0.609729439157803  0.5599842441197842  1.0000
  O   O7        1.0  0.8921287922090496  0.23209556646627852  0.5739439314333747  1.0000
  O   O8        1.0  0.7765175377069092  0.6097315714611518  0.5599879176449354  1.0000
  O   O9        1.0  0.7765516909281539  0.4140697693735911  0.7557786970352866  1.0000
  O   O10       1.0  0.7764954489548589  0.4277625665956311  0.37815522186500683  1.0000
  O   O11       1.0  0.7765295502452939  0.23209920413478485  0.5739460711024627  1.0000
