data_image0
_chemical_formula_structural       NC9NC4H8C8H6C8NH11Zn2C4O8
_chemical_formula_sum              "N3 C33 H25 Zn2 O8"
_cell_length_a       16.32274767691083
_cell_length_b       9.27514070457351
_cell_length_c       9.275652972338538
_cell_angle_alpha    86.0727604772434
_cell_angle_beta     89.90519038886141
_cell_angle_gamma    90.11802364943966

_space_group_name_H-M_alt    "P 1"
_space_group_IT_number       1

loop_
  _space_group_symop_operation_xyz
  'x, y, z'

loop_
  _atom_site_type_symbol
  _atom_site_label
  _atom_site_symmetry_multiplicity
  _atom_site_fract_x
  _atom_site_fract_y
  _atom_site_fract_z
  _atom_site_occupancy
  N   N1        1.0  0.7737463415632061  0.5571210154693713  0.40200837422883295  1.0000
  C   C1        1.0  0.7208474520572395  0.5040540611930648  0.3416317657417194  1.0000
  C   C2        1.0  0.6550941385358324  0.4381444907498835  0.2666435352366987  1.0000
  C   C3        1.0  0.6656898369742094  0.34799192854271294  0.16406821680106587  1.0000
  C   C4        1.0  0.5858571933539083  0.3039970260529674  0.1140148632922313  1.0000
  C   C5        1.0  0.5276076972144613  0.3683826064505904  0.18727511113242845  1.0000
  C   C6        1.0  0.4374895773912425  0.35136610209463076  0.16791700199313286  1.0000
  C   C7        1.0  0.38269031998853903  0.42641160013921336  0.25329834685851327  1.0000
  C   C8        1.0  0.2978274253344617  0.41186847579987435  0.23675368064017246  1.0000
  C   C9        1.0  0.2426407297208115  0.48922100485587916  0.3247589532103101  1.0000
  N   N2        1.0  0.19828943091978923  0.5513997067721528  0.3955002878125393  1.0000
  C   C10       1.0  0.26670946434474757  0.32215848637646805  0.1346902777736223  1.0000
  C   C11       1.0  0.32018786024670987  0.24721239407532752  0.04942240550312249  1.0000
  C   C12       1.0  0.4048877998182641  0.26136379271851706  0.06552126108027023  1.0000
  C   C13       1.0  0.5663583556984781  0.46226384717914054  0.2940900246295377  1.0000
  H   H1        1.0  0.7242252135154054  0.3129358317756288  0.12417900672787674  1.0000
  H   H2        1.0  0.576779775645827  0.23031544796889783  0.030179978361596353  1.0000
  H   H3        1.0  0.40554612250085537  0.49644537119411347  0.33297615729548125  1.0000
  H   H4        1.0  0.2011905463608904  0.3101779663947235  0.12106115376929318  1.0000
  H   H5        1.0  0.2959427496011395  0.1778133548477496  0.9704670162913668  1.0000
  H   H6        1.0  0.4440326993805341  0.20141174602736547  0.997312889598204  1.0000
  H   H7        1.0  0.5498454258104556  0.42443207696748186  0.40664932800363207  1.0000
  H   H8        1.0  0.5501518231397144  0.5776381071615049  0.2697583950505844  1.0000
  C   C14       1.0  0.9835289406581327  0.13084640195661978  0.3977844733348377  1.0000
  C   C15       1.0  0.9946549003181403  0.2132594773668451  0.2661314213331496  1.0000
  C   C16       1.0  0.012947253298986935  0.14685402163795352  0.13953454506783292  1.0000
  C   C17       1.0  0.020553832104926333  0.9968399116114038  0.14215809421797476  1.0000
  C   C18       1.0  0.008368445921080879  0.9128444844046586  0.27146509946783226  1.0000
  C   C19       1.0  0.9885146501509186  0.977663160137032  0.39973654957072147  1.0000
  C   C20       1.0  0.03994630198075155  0.9286418035474977  0.011515456510438726  1.0000
  C   C21       1.0  0.056183352107835635  0.8715276624585048  0.9021395301992506  1.0000
  H   H9        1.0  0.9984672674496977  0.2095177373888253  0.7517207175735945  1.0000
  H   H10       1.0  0.9911132100439007  0.33010257023317324  0.26177083044786076  1.0000
  H   H11       1.0  0.021961478902381867  0.21280741834884154  0.03975212233968728  1.0000
  H   H12       1.0  0.012497202537778529  0.7961804214948398  0.27122375152176126  1.0000
  H   H13       1.0  0.9954291138875682  0.6806387345728879  0.6382527672102694  1.0000
  H   H14       1.0  0.07043599504532504  0.821391747453893  0.8061304373447618  1.0000
  C   C22       1.0  0.9841815721623517  0.5514691635370113  0.9755112351763734  1.0000
  C   C23       1.0  0.931602034943597  0.6465013652292129  0.04269031086999986  1.0000
  C   C24       1.0  0.8855402496005669  0.7498601068911794  0.9609424530913699  1.0000
  C   C25       1.0  0.8909432737323396  0.7568124761532534  0.8100910774509731  1.0000
  C   C26       1.0  0.9417194996698569  0.6618687646926883  0.7415317221567452  1.0000
  C   C27       1.0  0.9878620637451591  0.5570404063677797  0.8220097417903633  1.0000
  C   C28       1.0  0.8286250716897124  0.8492782659371567  0.03459495576048365  1.0000
  C   C29       1.0  0.7439807938423748  0.7799643187946762  0.056511122048173545  1.0000
  N   N3        1.0  0.688993624505757  0.878153242955782  0.1257953526994069  1.0000
  H   H15       1.0  0.042965175287142277  0.3364362740927118  0.27070419422809255  1.0000
  H   H16       1.0  0.9276817666193079  0.6425423324952484  0.15956832838787194  1.0000
  H   H17       1.0  0.8550760529274527  0.8349655996442598  0.7452437430757959  1.0000
  H   H18       1.0  0.9432349600411598  0.6680413355661463  0.6245034507118232  1.0000
  H   H19       1.0  0.09942678600569432  0.42346588206205493  0.5495030249573363  1.0000
  H   H20       1.0  0.8544289140251992  0.8742677323628989  0.1409743835400452  1.0000
  H   H21       1.0  0.8226796875550954  0.9534645641441782  0.9686259553087302  1.0000
  H   H22       1.0  0.7182268872759143  0.7561327684221432  0.9497165494850296  1.0000
  H   H23       1.0  0.749155540880669  0.6766180117492636  0.12437709871215885  1.0000
  H   H24       1.0  0.6308482140378745  0.8305136072351916  0.13097354167456055  1.0000
  H   H25       1.0  0.7082187881492245  0.8851115321420524  0.2326378544099814  1.0000
  Zn  Zn1       1.0  0.8962603261289699  0.5554661542941435  0.40013859575721855  1.0000
  Zn  Zn2       1.0  0.07577543420260778  0.5530428137821599  0.39738184654026854  1.0000
  C   C30       1.0  0.9871307041508696  0.5502432746744399  0.6619901926916987  1.0000
  C   C31       1.0  0.9849070278063531  0.5582674871435569  0.1355303651601556  1.0000
  C   C32       1.0  0.9875430726887026  0.8175590216150668  0.3936241130965059  1.0000
  C   C33       1.0  0.9844945881474172  0.29095000921339986  0.40389651854489905  1.0000
  O   O1        1.0  0.05327550827539662  0.5596231311786416  0.18818806051434445  1.0000
  O   O2        1.0  0.05501002880476923  0.547047280797825  0.6072397710610415  1.0000
  O   O3        1.0  0.05534210977199061  0.7629081493821948  0.3905322806124374  1.0000
  O   O4        1.0  0.05294336564269074  0.34376227302439133  0.4048954438594692  1.0000
  O   O5        1.0  0.9190923334291666  0.7647466958803992  0.3926249993711832  1.0000
  O   O6        1.0  0.9187602623233276  0.5488875591140472  0.609332416963402  1.0000
  O   O7        1.0  0.91702573401833  0.5614633478439296  0.19027897343285027  1.0000
  O   O8        1.0  0.9166935917913882  0.3456024800880473  0.4069864648146204  1.0000
