data_image0
_chemical_formula_structural       NC9NC4H8C7NC2NH8C7ONH7Zn2C4O8
_chemical_formula_sum              "N5 C33 H23 O9 Zn2"
_cell_length_a       16.32274767691083
_cell_length_b       9.273995741505848
_cell_length_c       10.297855452804892
_cell_angle_alpha    85.68463501801465
_cell_angle_beta     89.4600573046752
_cell_angle_gamma    90.10890436374608

_space_group_name_H-M_alt    "P 1"
_space_group_IT_number       1

loop_
  _space_group_symop_operation_xyz
  'x, y, z'

loop_
  _atom_site_type_symbol
  _atom_site_label
  _atom_site_symmetry_multiplicity
  _atom_site_fract_x
  _atom_site_fract_y
  _atom_site_fract_z
  _atom_site_occupancy
  N   N1        1.0  0.7806759743767265  0.5683581325162547  0.560004397806601  1.0000
  C   C1        1.0  0.7280490915876895  0.5157028749474857  0.5055864816396061  1.0000
  C   C2        1.0  0.6626336125826325  0.45030463510821805  0.4379989946422269  1.0000
  C   C3        1.0  0.6736914295997802  0.36085151513750513  0.34554704686450477  1.0000
  C   C4        1.0  0.5940842848331715  0.3171979168663277  0.3004335621639158  1.0000
  C   C5        1.0  0.5355047395024813  0.381083948848578  0.3664636041734983  1.0000
  C   C6        1.0  0.445473831383175  0.3641994435540856  0.3490159866507627  1.0000
  C   C7        1.0  0.3902899166474758  0.43866274243246256  0.42597087016947305  1.0000
  C   C8        1.0  0.3055015586160803  0.4242324328816034  0.4110590311227089  1.0000
  C   C9        1.0  0.2499183843657296  0.5009848707924813  0.4903788815712151  1.0000
  N   N2        1.0  0.2052483838547077  0.5626812011017581  0.554138607783645  1.0000
  C   C10       1.0  0.2748434106104304  0.33521839419148436  0.31906847619451306  1.0000
  C   C11       1.0  0.3287059526623213  0.26085372727047607  0.24221586639381784  1.0000
  C   C12       1.0  0.41333336405250964  0.27489535103672785  0.2567258927841023  1.0000
  C   C13       1.0  0.5737741791081264  0.4742368386130893  0.46273673283948713  1.0000
  H   H1        1.0  0.7324065133545643  0.3260674158111545  0.30959458577442045  1.0000
  H   H2        1.0  0.5853845569709196  0.24408799346891843  0.2248725157056992  1.0000
  H   H3        1.0  0.4127867570853156  0.508153205795715  0.49778511298991374  1.0000
  H   H4        1.0  0.2093858942404271  0.32333080847027246  0.30678443847665693  1.0000
  H   H5        1.0  0.3048165494835239  0.19199306965426582  0.1710527475322221  1.0000
  H   H6        1.0  0.4527855538703398  0.215408404195214  0.19524914635871177  1.0000
  H   H7        1.0  0.5567665997849813  0.4356218141754656  0.5641740760903455  1.0000
  H   H8        1.0  0.5576648158950782  0.5897927445298322  0.44081969149114  1.0000
  C   C14       1.0  0.9905160669504017  0.14206370865043882  0.5561564243567008  1.0000
  C   C15       1.0  0.004911809956545271  0.2251497665897475  0.43848982167876205  1.0000
  C   C16       1.0  0.026637725061104737  0.1597854002145993  0.32559393959876504  1.0000
  C   C17       1.0  0.0348740271883774  0.009228602103800169  0.32713591528476876  1.0000
  C   C18       1.0  0.018758087494181726  0.9248883358867169  0.44375025901834686  1.0000
  C   C19       1.0  0.9954160774345036  0.9889643238016039  0.5579976613644231  1.0000
  C   C20       1.0  0.058898462473122803  0.9419534922998  0.20609925719143127  1.0000
  N   N3        1.0  0.06189441021976827  0.016240493663976622  0.08802846649598738  1.0000
  C   C21       1.0  0.08647588603199517  0.9180537520347389  0.005996001514371181  1.0000
  C   C22       1.0  0.09815873519990492  0.7869582577820748  0.07479036242212932  1.0000
  N   N4        1.0  0.08085052668478344  0.8021432947530039  0.20061910403282374  1.0000
  H   H9        1.0  0.9240602829005087  0.4074866689859534  0.7440164839260806  1.0000
  H   H10       1.0  0.0013475350229492616  0.342042811850487  0.43434968257872647  1.0000
  H   H11       1.0  0.038208899584522206  0.22786240133663974  0.23719634059740358  1.0000
  H   H12       1.0  0.02153201575050967  0.8082884949534167  0.445511999525009  1.0000
  H   H13       1.0  0.996466745437735  0.6908417163100281  0.7739885712421524  1.0000
  H   H14       1.0  0.09555002589901357  0.9409913499321326  0.9023101521162261  1.0000
  H   H15       1.0  0.11828332675967701  0.6875915486316879  0.03600651916964613  1.0000
  H   H16       1.0  0.0852954997325479  0.7215157747681897  0.27648414221465467  1.0000
  C   C23       1.0  0.9929990382009255  0.5656569587910908  0.17563491250201335  1.0000
  C   C24       1.0  0.9094017361957193  0.6015413648028318  0.1734791105967206  1.0000
  C   C25       1.0  0.8668133485074009  0.6185024868670925  0.055387687252964606  1.0000
  C   C26       1.0  0.9093002472301804  0.6012183119263922  0.9382468689979507  1.0000
  C   C27       1.0  0.9929330953124857  0.5653710826081098  0.9385191825362694  1.0000
  C   C28       1.0  0.03418358437942959  0.5474930468835895  0.057681685895502044  1.0000
  C   C29       1.0  0.7785814343118181  0.6567451844581256  0.055686249487397074  1.0000
  O   O1        1.0  0.7486217220513216  0.7186809929201581  0.15004838192609782  1.0000
  N   N5        1.0  0.7259861548476368  0.6233475568347322  0.9517119969428209  1.0000
  H   H17       1.0  0.1510653638418742  0.49835141504151914  0.386941499357885  1.0000
  H   H18       1.0  0.8770861511212259  0.6151214497393527  0.2641129128807993  1.0000
  H   H19       1.0  0.877926973745182  0.6182666349174677  0.846326578073507  1.0000
  H   H20       1.0  0.09861231523096986  0.5198329557782233  0.058589781117905915  1.0000
  H   H21       1.0  0.15132116612222823  0.4998861017103964  0.7316000808040453  1.0000
  H   H22       1.0  0.6650088431024104  0.657195909162474  0.9515424961628698  1.0000
  H   H23       1.0  0.745076563608145  0.5573012128913102  0.8796123080567826  1.0000
  Zn  Zn1       1.0  0.9031983836496186  0.5667160196903201  0.5583191505285988  1.0000
  Zn  Zn2       1.0  0.0827259113707941  0.5643114768917572  0.5558344705580731  1.0000
  C   C30       1.0  0.9929105014585615  0.5596805456909963  0.7943052689341767  1.0000
  C   C31       1.0  0.9930157645128725  0.5713487440395018  0.31984845646650223  1.0000
  C   C32       1.0  0.994486100606002  0.8288841184014377  0.5524735420620059  1.0000
  C   C33       1.0  0.9914400940753638  0.30214343962977575  0.5616802496717982  1.0000
  O   O2        1.0  0.06115110277202396  0.5723401567042058  0.36730490245080194  1.0000
  O   O3        1.0  0.06103239649382019  0.5568630529772791  0.7449626320609116  1.0000
  O   O4        1.0  0.06230379419304998  0.7742483542798474  0.5496818175831082  1.0000
  O   O5        1.0  0.05987964388031064  0.3549548665741047  0.5625856204055204  1.0000
  O   O6        1.0  0.9260445898761771  0.7760726308300979  0.5515680015222217  1.0000
  O   O7        1.0  0.9247732022030908  0.5586890620489385  0.7468487505079708  1.0000
  O   O8        1.0  0.9248919083800151  0.574166116109958  0.369189459087359  1.0000
  O   O9        1.0  0.9236204494168604  0.3567808156295149  0.5644702744062335  1.0000
