data_image0
_chemical_formula_structural       NC6NCNCH5C6NH5C6SCH6Zn2C4O8
_chemical_formula_sum              "N4 C25 H16 S1 Zn2 O8"
_cell_length_a       14.933214217465613
_cell_length_b       9.274771166103582
_cell_length_c       10.302812801239593
_cell_angle_alpha    85.45577702643503
_cell_angle_beta     89.96595459003231
_cell_angle_gamma    90.63112361825276

_space_group_name_H-M_alt    "P 1"
_space_group_IT_number       1

loop_
  _space_group_symop_operation_xyz
  'x, y, z'

loop_
  _atom_site_type_symbol
  _atom_site_label
  _atom_site_symmetry_multiplicity
  _atom_site_fract_x
  _atom_site_fract_y
  _atom_site_fract_z
  _atom_site_occupancy
  N   N1        1.0  0.8534574667709026  0.5795474591085605  0.5645468300034135  1.0000
  C   C1        1.0  0.7759736582985657  0.5805444457864807  0.5636530672114533  1.0000
  C   C2        1.0  0.6795832609898448  0.5817874334984411  0.5625386556868675  1.0000
  C   C3        1.0  0.6311389935257231  0.4859951756346799  0.6484303464226293  1.0000
  C   C4        1.0  0.537612578174649  0.48707837963424416  0.6474591230938751  1.0000
  C   C5        1.0  0.4916277211691299  0.5838989573250821  0.5606454270816785  1.0000
  C   C6        1.0  0.3950385439634281  0.5817895908312471  0.5625367869881472  1.0000
  N   N2        1.0  0.3175415153802726  0.5800299131562459  0.5641142628819742  1.0000
  C   C7        1.0  0.5401785818847341  0.6809008101950548  0.47366927381219287  1.0000
  N   N3        1.0  0.4955181082798784  0.7815345847117671  0.3834367037394266  1.0000
  C   C8        1.0  0.6341791014853683  0.6788511783562261  0.47550717157832545  1.0000
  H   H1        1.0  0.6656478509207754  0.41046942256362867  0.7161501294888637  1.0000
  H   H2        1.0  0.5010445410019101  0.4121879609667624  0.7146091214114478  1.0000
  H   H3        1.0  0.5323336279265363  0.8526118268143202  0.3197055823751156  1.0000
  H   H4        1.0  0.4258112820247805  0.786889159777115  0.37863561275593166  1.0000
  H   H5        1.0  0.6718666990165619  0.752988076192826  0.4090326663382171  1.0000
  C   C9        1.0  0.08275452352840285  0.15618926223871266  0.565040768692332  1.0000
  C   C10       1.0  0.06214825769763868  0.23947659397325707  0.44896008113045727  1.0000
  C   C11       1.0  0.04990283253380401  0.1744144797174192  0.3321349975845729  1.0000
  C   C12       1.0  0.058310619784812  0.024687609529805858  0.3305443001854147  1.0000
  C   C13       1.0  0.0772609749116373  0.9400791283858164  0.4450316580100087  1.0000
  C   C14       1.0  0.0882529592468293  0.0033770166791848885  0.5636316206746521  1.0000
  N   N4        1.0  0.029846749943930564  0.2608018813566637  0.2147777921414802  1.0000
  H   H6        1.0  0.18353416672330902  0.2359543373756496  0.8490789964541001  1.0000
  H   H7        1.0  0.04931283147475754  0.9731910340788265  0.2406587898894188  1.0000
  H   H8        1.0  0.15250260787746617  0.7063774910976851  0.7568822070856454  1.0000
  H   H9        1.0  0.02367694173327117  0.37286936902858825  0.21474137466875856  1.0000
  H   H10       1.0  0.02093326391065675  0.21332260125680189  0.1270272902717009  1.0000
  C   C15       1.0  0.085503761520414  0.5797831289995905  0.1830877206411188  1.0000
  C   C16       1.0  0.05623758207908924  0.723603267270563  0.17167931086673716  1.0000
  C   C17       1.0  0.04144341080398319  0.7949506288619934  0.04902783017503487  1.0000
  C   C18       1.0  0.05623750036620878  0.7236031157633831  0.9365281415046041  1.0000
  C   C19       1.0  0.08550370337301862  0.57978311921814  0.9455846243409631  1.0000
  C   C20       1.0  0.0999661096332396  0.5085632370583645  0.06940335423093869  1.0000
  S   S1        1.0  0.004236145079799637  0.9788091180681708  0.03594640520954817  1.0000
  C   C21       1.0  0.8861184250031239  0.9282879671728776  0.03965215654027254  1.0000
  H   H11       1.0  0.044611835489800196  0.7807290353736402  0.2577145016811413  1.0000
  H   H12       1.0  0.04461165485668285  0.7807288273947233  0.8423641892117768  1.0000
  H   H13       1.0  0.12252411053524595  0.39761881000690447  0.07729677849657945  1.0000
  H   H14       1.0  0.8698228142508436  0.8641000788744364  0.9561273741604067  1.0000
  H   H15       1.0  0.8698232072429779  0.8641015370880655  0.1323620634115681  1.0000
  H   H16       1.0  0.8453196131227759  0.027810077167960134  0.032588667048820685  1.0000
  Zn  Zn1       1.0  0.9873820739172448  0.5796828143581569  0.5644295120082088  1.0000
  Zn  Zn2       1.0  0.1836168167665918  0.5798827240289397  0.5642422620843102  1.0000
  C   C22       1.0  0.08546442237851617  0.5740365326458117  0.8014659563847926  1.0000
  C   C23       1.0  0.08553662299523151  0.5855308279946969  0.3272059400617273  1.0000
  C   C24       1.0  0.08720901799869334  0.843240462091844  0.5587244244797012  1.0000
  C   C25       1.0  0.08379194916579619  0.3163251653993957  0.5699475441302078  1.0000
  O   O1        1.0  0.1600176729880285  0.587529379830195  0.37550228113294165  1.0000
  O   O2        1.0  0.1599209945828184  0.5721886194138035  0.7530271250361347  1.0000
  O   O3        1.0  0.1613287737173796  0.789574195967109  0.5570116190492584  1.0000
  O   O4        1.0  0.1586098269588217  0.3701438135276413  0.5715176898226371  1.0000
  O   O5        1.0  0.012388996759737923  0.7894217247928061  0.5571540843269498  1.0000
  O   O6        1.0  0.010981228869158647  0.5720378813221207  0.7531695182075047  1.0000
  O   O7        1.0  0.01107790700779155  0.5873785914712706  0.37564311348034596  1.0000
  O   O8        1.0  0.00967006090795342  0.36999301485131597  0.5716586195242903  1.0000
