data_image0
_chemical_formula_structural       NC9NC5H8C8H6C6OCH7Zn2C4O8
_chemical_formula_sum              "N2 C33 H21 O9 Zn2"
_cell_length_a       17.807436237873137
_cell_length_b       9.275140704573507
_cell_length_c       9.273891588657152
_cell_angle_alpha    86.21671130185581
_cell_angle_beta     89.08663702953788
_cell_angle_gamma    88.98377242316299

_space_group_name_H-M_alt    "P 1"
_space_group_IT_number       1

loop_
  _space_group_symop_operation_xyz
  'x, y, z'

loop_
  _atom_site_type_symbol
  _atom_site_label
  _atom_site_symmetry_multiplicity
  _atom_site_fract_x
  _atom_site_fract_y
  _atom_site_fract_z
  _atom_site_occupancy
  N   N1        1.0  0.7202814434739997  0.5257629617685156  0.40202450419833635  1.0000
  C   C1        1.0  0.6595186391707589  0.4865893278307893  0.3896982208815938  1.0000
  C   C2        1.0  0.5839363891064956  0.43786164106499514  0.3743656629486347  1.0000
  C   C3        1.0  0.5657514695155774  0.3575208177727798  0.25763355720709935  1.0000
  C   C4        1.0  0.49236460682843153  0.310085382802876  0.24265463304082566  1.0000
  C   C5        1.0  0.4361117925003293  0.34257137362323764  0.34437082729099233  1.0000
  C   C6        1.0  0.3581209013427824  0.2922881186154484  0.328543503681868  1.0000
  C   C7        1.0  0.2963507254504013  0.3833034119222803  0.35754416438338055  1.0000
  C   C8        1.0  0.2228203013562151  0.3356427388042229  0.3425799055503691  1.0000
  C   C9        1.0  0.16001496158879688  0.4296492024126497  0.3719913798325588  1.0000
  N   N2        1.0  0.1095324241060564  0.5052239065343433  0.39563738381377833  1.0000
  C   C10       1.0  0.2104750473347198  0.19668015028326696  0.2985861878124294  1.0000
  C   C11       1.0  0.2713877972607704  0.1056493952225517  0.26957617937730083  1.0000
  C   C12       1.0  0.3447970747070606  0.15287005727354555  0.2843146175256275  1.0000
  C   C13       1.0  0.4549903747097812  0.4234631864223259  0.46134753612280316  1.0000
  C   C14       1.0  0.5284294650561902  0.4706856952386432  0.4761532060972173  1.0000
  H   H1        1.0  0.6082396014852576  0.3318320327665423  0.17797753098334956  1.0000
  H   H2        1.0  0.4793944308178817  0.2496530677249602  0.1504785612766415  1.0000
  H   H3        1.0  0.3053389009397399  0.49178564840785977  0.38984626402852496  1.0000
  H   H4        1.0  0.1538402801905901  0.15879149921833147  0.2867390775772033  1.0000
  H   H5        1.0  0.2617099862436097  0.9980652760495028  0.23594377005223155  1.0000
  H   H6        1.0  0.39110553268023257  0.07969764178704919  0.2630031925351643  1.0000
  H   H7        1.0  0.4132117946120374  0.4485667840269909  0.5424390251250726  1.0000
  H   H8        1.0  0.5419385887516671  0.5324622927032352  0.5671762389123414  1.0000
  C   C15       1.0  0.912631781103809  0.09216361936337061  0.3978602678515565  1.0000
  C   C16       1.0  0.923732785178897  0.17382758700856282  0.26619344237818066  1.0000
  C   C17       1.0  0.9413690832619843  0.10643707297665683  0.13958550105119039  1.0000
  C   C18       1.0  0.9483245743862155  0.9561649922721517  0.14221157144432417  1.0000
  C   C19       1.0  0.9362683824329945  0.872949167574963  0.2715317437588669  1.0000
  C   C20       1.0  0.9171891458905028  0.9388119293410303  0.3998140265891994  1.0000
  C   C21       1.0  0.966997113087466  0.8869323738112975  0.011557663020902003  1.0000
  C   C22       1.0  0.9826313105448706  0.8289520770082814  0.902172301100769  1.0000
  H   H9        1.0  0.9239041786625184  0.17128538295437168  0.7518464127565996  1.0000
  H   H10       1.0  0.9205157324992014  0.2907821798947068  0.26183127303798853  1.0000
  H   H11       1.0  0.9503159816963827  0.17180242985581362  0.0397928060746815  1.0000
  H   H12       1.0  0.9400551355379698  0.7561405116524557  0.2712915496878614  1.0000
  H   H13       1.0  0.9218955446113218  0.6422009404539262  0.6383629673254256  1.0000
  H   H14       1.0  0.9963547818606593  0.778055861878077  0.8061549257411147  1.0000
  C   C23       1.0  0.9161203722858743  0.5116049293457867  0.9755327968478932  1.0000
  C   C24       1.0  0.9779576473821585  0.5692482480413783  0.04323771907833129  1.0000
  C   C25       1.0  0.03559246533078153  0.6378809302921706  0.9626539428197987  1.0000
  C   C26       1.0  0.03159666900875878  0.6492207157838275  0.8113055519292436  1.0000
  C   C27       1.0  0.9713326683892964  0.5906212605844257  0.7422305252436434  1.0000
  C   C28       1.0  0.9137005562574384  0.5193705647549524  0.8221414380525522  1.0000
  O   O1        1.0  0.0953689835084883  0.6938575710299484  0.03702133437588629  1.0000
  C   C29       1.0  0.15762799574742448  0.7664613742087552  0.9691051523955768  1.0000
  H   H15       1.0  0.7369902846661763  0.4324908914746264  0.08927717281711489  1.0000
  H   H16       1.0  0.07515988275510543  0.7019855747856392  0.7458004951296409  1.0000
  H   H17       1.0  0.9707666182622811  0.5980829257887712  0.6251764381159161  1.0000
  H   H18       1.0  0.7942107524338917  0.4603314615475389  0.5485029353299109  1.0000
  H   H19       1.0  0.13799149957902568  0.8650779555660583  0.9052655101429337  1.0000
  H   H20       1.0  0.18856033260854344  0.6932636403180218  0.8980135117210599  1.0000
  H   H21       1.0  0.19626125156418814  0.7988900800063048  0.05339733707995142  1.0000
  Zn  Zn1       1.0  0.83261082247391  0.5198320640055869  0.4001896470293177  1.0000
  Zn  Zn2       1.0  0.9972029297836621  0.5111431620631233  0.39748406448114515  1.0000
  C   C30       1.0  0.9141253771420903  0.5121599022829377  0.6621010702554304  1.0000
  C   C31       1.0  0.9156901818427194  0.5188170491125697  0.13557275739016084  1.0000
  C   C32       1.0  0.9163402743319443  0.7787248882767979  0.39370052353048646  1.0000
  C   C33       1.0  0.9134752189464421  0.25225033481097614  0.4039733778937533  1.0000
  O   O2        1.0  0.9780076190917998  0.5179338202607686  0.18825686114171236  1.0000
  O   O3        1.0  0.9767295362710728  0.5064473642834864  0.6073630744889473  1.0000
  O   O4        1.0  0.978517247463398  0.7217020198469997  0.3906277513304255  1.0000
  O   O5        1.0  0.9762198520997707  0.3026791769831794  0.40499207716525304  1.0000
  O   O6        1.0  0.853593843990623  0.7282960520521264  0.39268163526091393  1.0000
  O   O7        1.0  0.8518061423375431  0.5130431277629415  0.609416885556491  1.0000
  O   O8        1.0  0.8530842298913859  0.5245295176051155  0.19030893899983248  1.0000
  O   O9        1.0  0.8512964625318822  0.3092748650081978  0.40704426307405805  1.0000
