data_image0
_chemical_formula_structural       NC6NC2H4C9H10C6OCH7Zn2C4O8
_chemical_formula_sum              "N2 C28 H21 O9 Zn2"
_cell_length_a       14.927258858638513
_cell_length_b       10.297183801781406
_cell_length_c       9.27389158865715
_cell_angle_alpha    86.04956984296379
_cell_angle_beta     89.68012649256188
_cell_angle_gamma    89.99762792032334

_space_group_name_H-M_alt    "P 1"
_space_group_IT_number       1

loop_
  _space_group_symop_operation_xyz
  'x, y, z'

loop_
  _atom_site_type_symbol
  _atom_site_label
  _atom_site_symmetry_multiplicity
  _atom_site_fract_x
  _atom_site_fract_y
  _atom_site_fract_z
  _atom_site_occupancy
  N   N1        1.0  0.8490453303740865  0.408754738828726  0.4093664520780645  1.0000
  C   C1        1.0  0.7715188391703819  0.40875471323327495  0.40936646267854704  1.0000
  C   C2        1.0  0.6750863317962453  0.40875481650849255  0.40936641277176344  1.0000
  C   C3        1.0  0.6284739101277181  0.3863845602247862  0.2827059802100975  1.0000
  C   C4        1.0  0.5347625992464289  0.38638458223292593  0.2827058467557344  1.0000
  C   C5        1.0  0.4872702677442215  0.4087546567228748  0.409366431479784  1.0000
  C   C6        1.0  0.3908376933785698  0.4087547600007144  0.4093663815670754  1.0000
  N   N2        1.0  0.31331120217486497  0.4087547344052631  0.40936639216755794  1.0000
  C   C7        1.0  0.5338826224212334  0.43112491300920347  0.536026864035525  1.0000
  C   C8        1.0  0.6275939333025223  0.43112489100106316  0.5360269974898877  1.0000
  H   H1        1.0  0.664512415577767  0.3689792385397943  0.18415689427456727  1.0000
  H   H2        1.0  0.4994087600790171  0.36897941644149634  0.18415688924989793  1.0000
  H   H3        1.0  0.49784418358440136  0.4485302262785877  0.6345760580483703  1.0000
  H   H4        1.0  0.6629477720837647  0.4485301453605097  0.6345760649675634  1.0000
  C   C9        1.0  0.08118498874071367  0.027280827557531577  0.40957066736818726  1.0000
  C   C10       1.0  0.07909934436638077  0.035907956534530605  0.2578936636173342  1.0000
  C   C11       1.0  0.07803060055055273  0.9237113996010654  0.18018509909085426  1.0000
  C   C12       1.0  0.07909088790843533  0.800732085342654  0.25730578601026166  1.0000
  C   C13       1.0  0.08118010466685394  0.7902187351581496  0.40917463900618833  1.0000
  C   C14       1.0  0.0822126666738594  0.9039611766475429  0.48431571452234057  1.0000
  C   C15       1.0  0.07577458102927007  0.9424744435731455  0.016135709391941647  1.0000
  C   C16       1.0  0.023597244229359503  0.8431053443007788  0.9358976929755675  1.0000
  C   C17       1.0  0.12567273520454414  0.8433763340910668  0.931318777826153  1.0000
  H   H5        1.0  0.08199716071584807  0.35149497203432145  0.4680166819780767  1.0000
  H   H6        1.0  0.07829435868932524  0.13066086963401258  0.19933797191041516  1.0000
  H   H7        1.0  0.07830608318098947  0.7126696472847045  0.20037617453256829  1.0000
  H   H8        1.0  0.08382133609616638  0.8965777226127869  0.6013377080245408  1.0000
  H   H9        1.0  0.08511414671703954  0.5631455270458193  0.6960121395095973  1.0000
  H   H10       1.0  0.0750502791469716  0.04276142366703439  0.9634073516459273  1.0000
  H   H11       1.0  0.9934763153412843  0.7600010075687236  0.0014932325834564632  1.0000
  H   H12       1.0  0.9923461400636304  0.8831494045590671  0.8339173770311108  1.0000
  H   H13       1.0  0.1575571830007636  0.7604374149342144  0.9941336248241577  1.0000
  H   H14       1.0  0.15408026798030305  0.8835763978185701  0.8266609575683601  1.0000
  C   C18       1.0  0.08265013933935353  0.40530934900278903  0.9860991217499576  1.0000
  C   C19       1.0  0.1560131795390165  0.4601779943374731  0.05464433827278126  1.0000
  C   C20       1.0  0.22429470841723975  0.5247468800735131  0.9748010742891219  1.0000
  C   C21       1.0  0.21945736356015266  0.5347726291795001  0.8233552579632739  1.0000
  C   C22       1.0  0.14797640221977917  0.4791174131775755  0.7534682517021462  1.0000
  C   C23       1.0  0.07971491828090738  0.41219016243196877  0.8326461911606227  1.0000
  O   O1        1.0  0.2952112562814402  0.5780161050548749  0.04998002886980914  1.0000
  C   C24       1.0  0.3689810573787374  0.6463822706222753  0.9828681681963891  1.0000
  H   H15       1.0  0.8695677664723962  0.32552284821576993  0.09715778645989848  1.0000
  H   H16       1.0  0.2710621714601493  0.5843777545247422  0.7584073717182198  1.0000
  H   H17       1.0  0.14725352194140698  0.48581250704636325  0.6363836005344288  1.0000
  H   H18       1.0  0.9376172894728936  0.3533235895378195  0.5572341059531505  1.0000
  H   H19       1.0  0.3449334184208346  0.7342897128627086  0.9184269634854948  1.0000
  H   H20       1.0  0.40633430297326845  0.581910888051069  0.9124889618326351  1.0000
  H   H21       1.0  0.4148381393775134  0.6774327917127796  0.06769559380947054  1.0000
  Zn  Zn1       1.0  0.9830224114054413  0.4087513243672998  0.4093747652618962  1.0000
  Zn  Zn2       1.0  0.17933409109788  0.40874760448128766  0.4093699083578026  1.0000
  C   C25       1.0  0.08026778755769493  0.4057144764400189  0.6726333727949129  1.0000
  C   C26       1.0  0.08209085816201545  0.41178609258871957  0.14611144139340104  1.0000
  C   C27       1.0  0.08119631932570415  0.645960540769625  0.4035057037467522  1.0000
  C   C28       1.0  0.08116225915012759  0.17153846815271231  0.4152391880998456  1.0000
  O   O2        1.0  0.15640241768256452  0.4139526679228096  0.19981119736812225  1.0000
  O   O3        1.0  0.15495225202558527  0.4035440944336328  0.6189295161269692  1.0000
  O   O4        1.0  0.15570104368889484  0.5975458419071322  0.4016070185714302  1.0000
  O   O5        1.0  0.15565355940603853  0.21995092886491752  0.41713358684634616  1.0000
  O   O6        1.0  0.00670287610576681  0.5975479999862918  0.40161108676742785  1.0000
  O   O7        1.0  0.005954084694820957  0.4035478126218153  0.618933506658758  1.0000
  O   O8        1.0  0.007404256420322279  0.41395632675675104  0.19981345495676922  1.0000
  O   O9        1.0  0.006655397765497062  0.2199545792858737  0.41713595250638386  1.0000
