data_image0
_chemical_formula_structural       NC12NC2H8C7NH5C7F3H5Zn2C4O8
_chemical_formula_sum              "N3 C32 H18 F3 Zn2 O8"
_cell_length_a       19.240039667572717
_cell_length_b       9.275154477615127
_cell_length_c       10.299327507215196
_cell_angle_alpha    85.77882767837892
_cell_angle_beta     89.98118748846025
_cell_angle_gamma    89.43370810513201

_space_group_name_H-M_alt    "P 1"
_space_group_IT_number       1

loop_
  _space_group_symop_operation_xyz
  'x, y, z'

loop_
  _atom_site_type_symbol
  _atom_site_label
  _atom_site_symmetry_multiplicity
  _atom_site_fract_x
  _atom_site_fract_y
  _atom_site_fract_z
  _atom_site_occupancy
  N   N1        1.0  0.6472088817819709  0.5781068771240419  0.5730810513569251  1.0000
  C   C1        1.0  0.5870605125347446  0.5781069703719068  0.5730809697527708  1.0000
  C   C2        1.0  0.5122424747971349  0.5781071006028278  0.5730808329121165  1.0000
  C   C3        1.0  0.4760917043044487  0.5065219429678538  0.6762386497054534  1.0000
  C   C4        1.0  0.4034215276520845  0.5063988304235767  0.676324751786398  1.0000
  C   C5        1.0  0.3659102394099494  0.578107203404347  0.5730806055928763  1.0000
  C   C6        1.0  0.4027746285317799  0.6498157839419592  0.46983665469323665  1.0000
  C   C7        1.0  0.47544588966755763  0.6496924099304013  0.46992287833787083  1.0000
  C   C8        1.0  0.2887051494031562  0.5781071160918456  0.5730805098599883  1.0000
  C   C9        1.0  0.2521091934129274  0.45236019978798075  0.6144999299758348  1.0000
  C   C10       1.0  0.1794379554783848  0.45247889346268755  0.6144090288455569  1.0000
  C   C11       1.0  0.14237286315266  0.5781069726764829  0.5730805702559778  1.0000
  C   C12       1.0  0.06755482655592689  0.5781068463603327  0.5730808184701516  1.0000
  N   N2        1.0  0.0074065098833261  0.5781068010044705  0.5730810267330113  1.0000
  C   C13       1.0  0.1782552812916546  0.7037351360814035  0.5317520590770004  1.0000
  C   C14       1.0  0.25092542703468995  0.7038540297498256  0.5316609960668145  1.0000
  H   H1        1.0  0.5040564815342082  0.4510990453056629  0.7567830300172226  1.0000
  H   H2        1.0  0.37657371488529023  0.45186176815527773  0.7579878642380808  1.0000
  H   H3        1.0  0.37543591037622887  0.704352876251743  0.38817349149961644  1.0000
  H   H4        1.0  0.5029108843830372  0.7051151962375637  0.38937877342963456  1.0000
  H   H5        1.0  0.2796686701109464  0.3533764002043239  0.6453122163066701  1.0000
  H   H6        1.0  0.15218437737108997  0.354493176644323  0.6462579086656173  1.0000
  H   H7        1.0  0.15007903607841988  0.8017208256570049  0.49990319370977443  1.0000
  H   H8        1.0  0.2775524287428495  0.802837917241279  0.5008486652794556  1.0000
  C   C15       1.0  0.8293225476642688  0.1547177887134241  0.571578161353432  1.0000
  C   C16       1.0  0.8102647336822318  0.23791445608550443  0.45707002379643724  1.0000
  C   C17       1.0  0.7855525488218073  0.17189268317939102  0.34862755405392853  1.0000
  C   C18       1.0  0.7794911922431208  0.021771423919412662  0.3534160766640025  1.0000
  C   C19       1.0  0.7991936335326433  0.9373674821677344  0.4653140922448167  1.0000
  C   C20       1.0  0.825299571894538  0.0014848440853594193  0.5745951131728  1.0000
  C   C21       1.0  0.7655702996520056  0.2586713748644782  0.23273929494840664  1.0000
  N   N3        1.0  0.749510114475852  0.3284255323809314  0.13959481913812155  1.0000
  H   H9        1.0  0.8427435321938495  0.2313399014459481  0.890367064744418  1.0000
  H   H10       1.0  0.8131038531673772  0.35487444768002674  0.45321655522911564  1.0000
  H   H11       1.0  0.7601279854844181  0.9696576463823667  0.2700712279971034  1.0000
  H   H12       1.0  0.7955439929815947  0.8208999040979349  0.46519979826990726  1.0000
  H   H13       1.0  0.8372858776449565  0.7026818039388978  0.7881927458186895  1.0000
  C   C22       1.0  0.8273773376595335  0.5781598663671137  0.1917052446542731  1.0000
  C   C23       1.0  0.8946442452753248  0.6359699495411678  0.18664073074534504  1.0000
  C   C24       1.0  0.9280586045699984  0.6675800278132369  0.06679835391268708  1.0000
  C   C25       1.0  0.8944702020277177  0.6358170602622131  0.9514027283934615  1.0000
  C   C26       1.0  0.8272448002959558  0.5780427668977905  0.9544680037641018  1.0000
  C   C27       1.0  0.7939824686376818  0.5500837235082114  0.07509595539343251  1.0000
  C   C28       1.0  0.0012469809129287438  0.7247532655573314  0.06273970726033486  1.0000
  F   F1        1.0  0.01298750078898858  0.8089478737991187  0.1659308418582619  1.0000
  F   F2        1.0  0.047702473701688  0.6098003266359815  0.07019909616203424  1.0000
  F   F3        1.0  0.012796656122455731  0.808928312270941  0.9482873685279954  1.0000
  H   H14       1.0  0.7009197406743581  0.46665495784302213  0.4086600815507221  1.0000
  H   H15       1.0  0.9212018967381507  0.6562483915409203  0.2761095059862831  1.0000
  H   H16       1.0  0.9209084932760842  0.6559867528090414  0.859094553284638  1.0000
  H   H17       1.0  0.7421360800393964  0.505529835551684  0.07819449247117016  1.0000
  H   H18       1.0  0.8018647536791133  0.5534648419550194  0.6283489110144461  1.0000
  Zn  Zn1       1.0  0.7511541627126871  0.5781030047808573  0.5730885192072073  1.0000
  Zn  Zn2       1.0  0.9034613017565724  0.5780989110248562  0.5730841162270748  1.0000
  C   C29       1.0  0.8272955715667472  0.5723211546511391  0.8102690343210504  1.0000
  C   C30       1.0  0.8273215474267439  0.58388258025692  0.3359037350172021  1.0000
  C   C31       1.0  0.8260573188653535  0.841428621443115  0.5688494722478571  1.0000
  C   C32       1.0  0.828559756374081  0.31477338123524556  0.5773233601611307  1.0000
  O   O1        1.0  0.8851026191105391  0.5857953317505025  0.38429637233405256  1.0000
  O   O2        1.0  0.8851120995024375  0.5704042084782017  0.7618726775106922  1.0000
  O   O3        1.0  0.884111415383045  0.7877118910547252  0.566924678416888  1.0000
  O   O4        1.0  0.8861032512257446  0.36848765950417006  0.579244274088257  1.0000
  O   O5        1.0  0.7685121612685569  0.7877142563045114  0.5669283613407019  1.0000
  O   O6        1.0  0.7695128371670482  0.5704083059606534  0.7618762973584479  1.0000
  O   O7        1.0  0.7695033573314389  0.5857993792303404  0.3842984305511078  1.0000
  O   O8        1.0  0.7705039894758737  0.36849169665678483  0.579246429639589  1.0000
