data_image0
_chemical_formula_structural       NC12NC2H8C6H6C12H9Zn2C4O8
_chemical_formula_sum              "N2 C36 H23 Zn2 O8"
_cell_length_a       19.240039667572717
_cell_length_b       10.681118228259551
_cell_length_c       14.388202922059104
_cell_angle_alpha    85.83991400591465
_cell_angle_beta     92.42188995312777
_cell_angle_gamma    89.9983060793227

_space_group_name_H-M_alt    "P 1"
_space_group_IT_number       1

loop_
  _space_group_symop_operation_xyz
  'x, y, z'

loop_
  _atom_site_type_symbol
  _atom_site_label
  _atom_site_symmetry_multiplicity
  _atom_site_fract_x
  _atom_site_fract_y
  _atom_site_fract_z
  _atom_site_occupancy
  N   N1        1.0  0.6220327999004314  0.36387388084863503  0.974027066457394  1.0000
  C   C1        1.0  0.5618844292274054  0.36387396145076445  0.9740270077753174  1.0000
  C   C2        1.0  0.4870663889768545  0.3638740739111829  0.974026909439002  1.0000
  C   C3        1.0  0.45293417535189157  0.3021905488557936  0.04809024465725387  1.0000
  C   C4        1.0  0.38026538762914175  0.3020840286821125  0.048152224311349356  1.0000
  C   C5        1.0  0.34073414888499176  0.3638741621147215  0.9740267463727492  1.0000
  C   C6        1.0  0.3755785929283271  0.4256644767584741  0.8999014077722138  1.0000
  C   C7        1.0  0.4482512445453868  0.42555773006345254  0.8999634751562717  1.0000
  C   C8        1.0  0.2635290562869859  0.3638740858200944  0.9740266780325295  1.0000
  C   C9        1.0  0.22729059963945755  0.25485216826744317  0.004011745098053906  1.0000
  C   C10       1.0  0.15461784268308726  0.2549548274039175  0.003946339684516187  1.0000
  C   C11       1.0  0.11719677074430278  0.36387396154262386  0.9740267216535237  1.0000
  C   C12       1.0  0.042378739219015304  0.3638738530148848  0.9740268997445358  1.0000
  N   N2        1.0  0.9822304270847053  0.36387381461578666  0.9740270490162042  1.0000
  C   C13       1.0  0.1527232084639187  0.47279316855575826  0.9441070657436642  1.0000
  C   C14       1.0  0.2253918324268574  0.47289600062677906  0.9440415438829188  1.0000
  H   H1        1.0  0.4824772118978907  0.2544369633175412  0.10591680524600489  1.0000
  H   H2        1.0  0.35502548696975217  0.25510520086365623  0.10677775019272162  1.0000
  H   H3        1.0  0.3466319616483267  0.47264333042746953  0.8412758454732793  1.0000
  H   H4        1.0  0.47413798570607507  0.4733112201987199  0.8421371120931254  1.0000
  H   H5        1.0  0.2550906224535573  0.16902516728796213  0.02633179106072247  1.0000
  H   H6        1.0  0.127633114214781  0.1699996861084836  0.027006237581869375  1.0000
  H   H7        1.0  0.12427811381412227  0.5577482862580542  0.921047178266811  1.0000
  H   H8        1.0  0.2517782874154688  0.5587230777477562  0.9217214658565898  1.0000
  C   C15       1.0  0.8021350864233111  0.9961238808582457  0.9740310472640077  1.0000
  C   C16       1.0  0.8349808270997111  0.9220899256066251  0.04789951167917093  1.0000
  C   C17       1.0  0.8349808151296583  0.7912076871548928  0.047899469153630615  1.0000
  C   C18       1.0  0.8021350760247806  0.7316142850759741  0.9740310874727012  1.0000
  C   C19       1.0  0.7693165218249695  0.8056372366354126  0.9002236660421432  1.0000
  C   C20       1.0  0.7693165336093288  0.9365294949792127  0.9002237037930176  1.0000
  H   H9        1.0  0.7689189763967531  0.30213528581451704  0.8993304141032837  1.0000
  H   H10       1.0  0.8607269085804925  0.9652412521354021  0.1058010714971434  1.0000
  H   H11       1.0  0.8607268226087327  0.7367372234330558  0.1058010550669306  1.0000
  H   H12       1.0  0.7435670830779176  0.7625314041035689  0.8423145460690553  1.0000
  H   H13       1.0  0.7435670646205081  0.990955843088389  0.8423145385058466  1.0000
  H   H14       1.0  0.768919224337785  0.44020593329234425  0.8993301624919211  1.0000
  C   C21       1.0  0.7935030291209041  0.36209670940131783  0.7008891008418048  1.0000
  C   C22       1.0  0.7236525733601691  0.3468851214460411  0.7242197204742477  1.0000
  C   C23       1.0  0.6717341941132026  0.3353972353017343  0.6546344098451535  1.0000
  C   C24       1.0  0.6887314020588317  0.338938158829018  0.5611290640816169  1.0000
  C   C25       1.0  0.7581984871289872  0.35417385635228005  0.5360099361557363  1.0000
  C   C26       1.0  0.8102993534807447  0.3656412236229462  0.6065389452877916  1.0000
  C   C27       1.0  0.7763088207694514  0.35810910705386684  0.4364981496083231  1.0000
  C   C28       1.0  0.7443990955134046  0.27580597767641235  0.37590348047965794  1.0000
  C   C29       1.0  0.7614588354323056  0.27947297710658336  0.2822764808808065  1.0000
  C   C30       1.0  0.8107671418392988  0.3656414512685434  0.2471730513818211  1.0000
  C   C31       1.0  0.8426416818774192  0.44797669125136363  0.307654154087212  1.0000
  C   C32       1.0  0.8256209914029485  0.44423773875201683  0.40130142225936494  1.0000
  H   H15       1.0  0.956059848220904  0.3974664856523662  0.8006245536182363  1.0000
  H   H16       1.0  0.709092103020728  0.34386692527968665  0.7962263278613306  1.0000
  H   H17       1.0  0.6180544713434334  0.3240445655713515  0.6732384541262029  1.0000
  H   H18       1.0  0.6474266300964145  0.33143902003876224  0.5083515743652247  1.0000
  H   H19       1.0  0.8640679435679833  0.3756087855053831  0.5878850326843397  1.0000
  H   H20       1.0  0.7068596962246044  0.20734401868307262  0.4012043515916215  1.0000
  H   H21       1.0  0.7361203368983662  0.21454911804674515  0.2374609528471402  1.0000
  H   H22       1.0  0.8806764216681056  0.5156840489311973  0.28265846404018363  1.0000
  H   H23       1.0  0.8504089742347014  0.5099849796449996  0.4459326946909157  1.0000
  Zn  Zn1       1.0  0.725978233076256  0.36387055315038874  0.9740324247436214  1.0000
  Zn  Zn2       1.0  0.8782852525797149  0.363866976390326  0.9740292818157095  1.0000
  C   C33       1.0  0.8075022896165474  0.35998247456864724  0.14391367229216778  1.0000
  C   C34       1.0  0.7967628621124238  0.36775663562887556  0.8041481255262557  1.0000
  C   C35       1.0  0.8020143568178763  0.5925668664172732  0.9703245461538352  1.0000
  C   C36       1.0  0.8022507445065665  0.13517073952001857  0.9777373012552935  1.0000
  O   O1        1.0  0.8556566119903194  0.36964933779874976  0.8388016047681388  1.0000
  O   O2        1.0  0.8642060349354899  0.35808611124723194  0.1092575398867005  1.0000
  O   O3        1.0  0.8597737111933322  0.5459009553900938  0.9690830923742788  1.0000
  O   O4        1.0  0.8600888815563931  0.18183450216303698  0.9789759825404794  1.0000
  O   O5        1.0  0.7441745521245124  0.5459030273802299  0.9690857240150317  1.0000
  O   O6        1.0  0.7486068742961327  0.3580896875001518  0.10926012193292833  1.0000
  O   O7        1.0  0.7400574160558571  0.369652863155433  0.8388030685164711  1.0000
  O   O8        1.0  0.7444896878229491  0.18183801901512364  0.9789775160250728  1.0000
