data_image0
_chemical_formula_structural       NC5N2C2NH4C7NH5C7F3H5Zn2C4O8
_chemical_formula_sum              "N5 C25 H14 F3 Zn2 O8"
_cell_length_a       13.87973921873968
_cell_length_b       9.275154477615127
_cell_length_c       9.272721663655245
_cell_angle_alpha    86.10781498077147
_cell_angle_beta     90.51618180782579
_cell_angle_gamma    89.4337086285363

_space_group_name_H-M_alt    "P 1"
_space_group_IT_number       1

loop_
  _space_group_symop_operation_xyz
  'x, y, z'

loop_
  _atom_site_type_symbol
  _atom_site_label
  _atom_site_symmetry_multiplicity
  _atom_site_fract_x
  _atom_site_fract_y
  _atom_site_fract_z
  _atom_site_occupancy
  N   N1        1.0  0.8873345451918832  0.5691382968630823  0.4156742888981171  1.0000
  C   C1        1.0  0.813725028909103  0.5933557655705297  0.3591135240103178  1.0000
  C   C2        1.0  0.7223046303465835  0.6234362262303974  0.28885894087723374  1.0000
  C   C3        1.0  0.6365049246373667  0.5931511089142478  0.3619608288030056  1.0000
  C   C4        1.0  0.5494252298577311  0.6234361618369713  0.28885898053773973  1.0000
  C   C5        1.0  0.45924790750666383  0.5933556203323569  0.35911342017397807  1.0000
  N   N2        1.0  0.38663911414089597  0.5691382721846989  0.4156742778032756  1.0000
  N   N3        1.0  0.5498473283464292  0.6812975188024206  0.15028721571782833  1.0000
  C   C6        1.0  0.6340334310777419  0.7115307819700423  0.08122972135230788  1.0000
  C   C7        1.0  0.632715307135402  0.7711843908900435  0.9276670869826646  1.0000
  N   N4        1.0  0.7194502273792729  0.6812974722086955  0.15028722628744529  1.0000
  H   H1        1.0  0.6374763053968945  0.5468526979641963  0.47254311865915777  1.0000
  H   H2        1.0  0.6971366502789529  0.8389172202400598  0.9055325061820545  1.0000
  H   H3        1.0  0.6328757469063728  0.6808630131345905  0.8550647396185114  1.0000
  H   H4        1.0  0.5671318389490132  0.8389151527495048  0.9055317317163919  1.0000
  C   C8        1.0  0.13976944264115643  0.14573976346773332  0.41400564607418877  1.0000
  C   C9        1.0  0.11256322669309071  0.22821671509535313  0.2868658348813957  1.0000
  C   C10       1.0  0.07756070422156003  0.16151335082716844  0.16646080893706627  1.0000
  C   C11       1.0  0.06919144301861668  0.011422188732776787  0.1717775639227821  1.0000
  C   C12       1.0  0.09727326899440047  0.9277215573837572  0.29601932438454615  1.0000
  C   C13       1.0  0.1342135802036013  0.9925257812002904  0.4173554043916672  1.0000
  C   C14       1.0  0.04906353820129405  0.2475636523127831  0.037788631469108054  1.0000
  N   N5        1.0  0.02615970499019449  0.3167323706843346  0.9343691598667383  1.0000
  H   H5        1.0  0.16056831128101987  0.22436555358461094  0.7679609281135682  1.0000
  H   H6        1.0  0.11647227309237995  0.3451524865806901  0.2825872814022756  1.0000
  H   H7        1.0  0.04177644142732295  0.9587845654247736  0.07923873944261439  1.0000
  H   H8        1.0  0.0922133648028236  0.8112532609223811  0.29589242167070107  1.0000
  H   H9        1.0  0.1522994967568736  0.6950652619103886  0.6545155115451062  1.0000
  C   C15       1.0  0.13445770471827156  0.5667942337203986  0.9922280274434178  1.0000
  C   C16       1.0  0.1762360995193606  0.4488623731255337  0.07448385100130972  1.0000
  C   C17       1.0  0.22640259452035427  0.33950671461661774  0.008146257077092486  1.0000
  C   C18       1.0  0.23185151922973188  0.34614610314214667  0.8570227023830714  1.0000
  C   C19       1.0  0.1895218267132472  0.46107608767403757  0.7737867020264462  1.0000
  C   C20       1.0  0.13952533507709908  0.5714713090017449  0.8391329570730073  1.0000
  C   C21       1.0  0.26847149439508966  0.21203944651362994  0.09798937731979085  1.0000
  F   F1        1.0  0.3006426207305537  0.2539439133701946  0.23038809301378047  1.0000
  F   F2        1.0  0.3456607924903209  0.15240204672288327  0.02863354859577405  1.0000
  F   F3        1.0  0.19841939179180135  0.10825769473037772  0.12061454474542943  1.0000
  H   H10       1.0  0.071134204372465  0.9101302622144094  0.0698055877589554  1.0000
  H   H11       1.0  0.17145901339054645  0.44374005519445375  0.19130922161094488  1.0000
  H   H12       1.0  0.2680177007248463  0.26144910724842285  0.8027797982779501  1.0000
  H   H13       1.0  0.1936472876077493  0.46153722035100286  0.6571339087596209  1.0000
  H   H14       1.0  0.9650347577094368  0.8146551311446357  0.7188040940420719  1.0000
  Zn  Zn1       1.0  0.031423134469138254  0.5691344720845486  0.4156826003029459  1.0000
  Zn  Zn2       1.0  0.2425506587168449  0.5691303515734933  0.4156777405699148  1.0000
  C   C22       1.0  0.13860296164939712  0.5648433682020426  0.6790270870059638  1.0000
  C   C23       1.0  0.13537312595342432  0.5734232753999786  0.1523334025424523  1.0000
  C   C24       1.0  0.13522440928305457  0.8324334456045055  0.41097594804334636  1.0000
  C   C25       1.0  0.13875161810228653  0.3058314661642345  0.420384611533283  1.0000
  O   O1        1.0  0.2158021861045183  0.5756401884849569  0.2060643598804408  1.0000
  O   O2        1.0  0.21841481189661893  0.5626222377570826  0.6252920218408935  1.0000
  O   O3        1.0  0.215685517024939  0.7787046176994998  0.4088388365775937  1.0000
  O   O4        1.0  0.21853140821804895  0.3595578182609227  0.422517437066364  1.0000
  O   O5        1.0  0.055442312920416015  0.7787070054000536  0.4088429038005763  1.0000
  O   O6        1.0  0.05817159596205812  0.5626263572938504  0.6252960190297432  1.0000
  O   O7        1.0  0.055558960189788106  0.5756442482038258  0.2060666231713255  1.0000
  O   O8        1.0  0.05828818301395011  0.359561868264342  0.42251980842870496  1.0000
