data_image0
_chemical_formula_structural       NC9NC5H8C8H6C7F3H5Zn2C4O8
_chemical_formula_sum              "N2 C33 H19 F3 Zn2 O8"
_cell_length_a       17.807436237873137
_cell_length_b       9.275140704573507
_cell_length_c       9.272721663655245
_cell_angle_alpha    86.0082858104151
_cell_angle_beta     89.9168972107098
_cell_angle_gamma    88.98377242316299

_space_group_name_H-M_alt    "P 1"
_space_group_IT_number       1

loop_
  _space_group_symop_operation_xyz
  'x, y, z'

loop_
  _atom_site_type_symbol
  _atom_site_label
  _atom_site_symmetry_multiplicity
  _atom_site_fract_x
  _atom_site_fract_y
  _atom_site_fract_z
  _atom_site_occupancy
  N   N1        1.0  0.708165344862985  0.5319896448861584  0.40160293892213317  1.0000
  C   C1        1.0  0.6473090807635429  0.492864041635031  0.3892734037826653  1.0000
  C   C2        1.0  0.5716105768616185  0.4441960998277059  0.37393680093535253  1.0000
  C   C3        1.0  0.5525405762992138  0.3643101357207643  0.2571738998515054  1.0000
  C   C4        1.0  0.4790401410805977  0.31693306773738317  0.2421910240637459  1.0000
  C   C5        1.0  0.4235585547488633  0.34902271048407707  0.343934052277034  1.0000
  C   C6        1.0  0.3454476583633887  0.2988011283423448  0.3281025532283828  1.0000
  C   C7        1.0  0.2838973699885367  0.3897034174605236  0.35711086465518527  1.0000
  C   C8        1.0  0.21025348455771678  0.3421010541839429  0.34214265806957966  1.0000
  C   C9        1.0  0.1476711471602565  0.43599291282448444  0.37156189145465435  1.0000
  N   N2        1.0  0.09736789735542187  0.5114754777524441  0.39521413353791357  1.0000
  C   C10       1.0  0.19757466332960386  0.20330989190840845  0.2981373342564422  1.0000
  C   C11       1.0  0.258267454862156  0.11239217746079411  0.26911967262997805  1.0000
  C   C12       1.0  0.3317884814375452  0.15955540960485906  0.28386199895666864  1.0000
  C   C13       1.0  0.4433240725484552  0.42945871097568444  0.460941620980412  1.0000
  C   C14       1.0  0.5168754217861197  0.4766235279090422  0.4757511968697594  1.0000
  H   H1        1.0  0.5944247438957079  0.33893173897455303  0.1774968594039552  1.0000
  H   H2        1.0  0.46537107176536013  0.25685992662140356  0.14999063513621658  1.0000
  H   H3        1.0  0.29313046501867657  0.49805978534608203  0.38942148598517057  1.0000
  H   H4        1.0  0.140850069554063  0.16546740438070384  0.28628709861014956  1.0000
  H   H5        1.0  0.2483346376894071  0.004939110582289359  0.23547839066827334  1.0000
  H   H6        1.0  0.3779353528736246  0.08646603637436079  0.262544951754359  1.0000
  H   H7        1.0  0.402160340725824  0.45424632688545974  0.5420545028989363  1.0000
  H   H8        1.0  0.5310746962657354  0.5380454443517819  0.5667982426625986  1.0000
  C   C15       1.0  0.9004841086054917  0.0984065288751137  0.3974376039994043  1.0000
  C   C16       1.0  0.9105867943425162  0.18058355044477659  0.265736043223896  1.0000
  C   C17       1.0  0.9272631313335309  0.11368637785201807  0.13909470118963885  1.0000
  C   C18       1.0  0.9342385337316995  0.963404064382226  0.14172146437192557  1.0000
  C   C19       1.0  0.9231628674275094  0.879684329746595  0.2710757529130965  1.0000
  C   C20       1.0  0.9050562870946416  0.9450472258220487  0.3993918781622492  1.0000
  C   C21       1.0  0.9519204341894151  0.8946805529057851  0.011033087866147762  1.0000
  C   C22       1.0  0.9667252548290226  0.8371264879118143  0.9016188687636418  1.0000
  H   H9        1.0  0.9144404841412542  0.1761489474397675  0.7515171347337932  1.0000
  H   H10       1.0  0.907336667016793  0.29755514099218583  0.2613727230906362  1.0000
  H   H11       1.0  0.9354533860420574  0.17944058768336735  0.03927567969239698  1.0000
  H   H12       1.0  0.9269477993437008  0.7628766097660784  0.27083549547598795  1.0000
  H   H13       1.0  0.911571400966042  0.6475067053708398  0.6380037509962166  1.0000
  H   H14       1.0  0.9797207074791406  0.7866044147955035  0.8055761628582627  1.0000
  C   C23       1.0  0.9007705472525119  0.5194934831998397  0.9749987178974315  1.0000
  C   C24       1.0  0.9320964454136507  0.3998971703784817  0.0569242222272377  1.0000
  C   C25       1.0  0.9700509459953263  0.28852864847562376  0.9901341273694929  1.0000
  C   C26       1.0  0.9743681294389971  0.29494123721731125  0.838929353060776  1.0000
  C   C27       1.0  0.9425809395167315  0.4115596485086066  0.7560359249720916  1.0000
  C   C28       1.0  0.9047698844837653  0.5239602899801135  0.8218307052650444  1.0000
  C   C29       1.0  0.0015030363996673146  0.1593891992480887  0.07965972584663494  1.0000
  F   F1        1.0  0.027020658747322072  0.19995341890161233  0.21157422656031422  1.0000
  F   F2        1.0  0.06104424930611141  0.096606762243451  0.009419522773654652  1.0000
  F   F3        1.0  0.9458070348798664  0.05853134396065984  0.10336097390788135  1.0000
  H   H15       1.0  0.8550203245252174  0.8652797131396186  0.05279189182187415  1.0000
  H   H16       1.0  0.9283189030967628  0.39497338026860285  0.17381958861801117  1.0000
  H   H17       1.0  0.001668792259150509  0.2087957069119522  0.7843703796373958  1.0000
  H   H18       1.0  0.9458015402093545  0.41185108189771397  0.639329546477958  1.0000
  H   H19       1.0  0.7713131397818747  0.7742058305115654  0.7033133295485641  1.0000
  Zn  Zn1       1.0  0.8204808116906152  0.5260658968412252  0.3997675976955857  1.0000
  Zn  Zn2       1.0  0.9850524048529101  0.5173875374916979  0.397061301381991  1.0000
  C   C30       1.0  0.9039812194832623  0.5173731691326733  0.6617481163250778  1.0000
  C   C31       1.0  0.9015538046680558  0.5260819900745137  0.1350808989182648  1.0000
  C   C32       1.0  0.9041610620055615  0.7849840066789817  0.3932767622874369  1.0000
  C   C33       1.0  0.9013738969987342  0.2584694239329853  0.40355232675401753  1.0000
  O   O1        1.0  0.9642707009814108  0.5249934719549729  0.18777890137402542  1.0000
  O   O2        1.0  0.9661703466194396  0.511873923611754  0.6069956800128138  1.0000
  O   O3        1.0  0.9663147369005382  0.7279731116360297  0.39020317945287997  1.0000
  O   O4        1.0  0.964126254088294  0.30889429663408463  0.40457129477071474  1.0000
  O   O5        1.0  0.8414069062949959  0.7345591406618655  0.3922576052228073  1.0000
  O   O6        1.0  0.8412625250006847  0.5184616841958363  0.6090500329005744  1.0000
  O   O7        1.0  0.839362870954308  0.5315811731575839  0.18983152059512065  1.0000
  O   O8        1.0  0.8392184245129741  0.3154819880963354  0.4066240220710007  1.0000
