data_image0
_chemical_formula_structural       NC5NC4H6C6BrH5C6OCH6Zn2C4O8
_chemical_formula_sum              "N2 C26 H17 Br1 O9 Zn2"
_cell_length_a       13.854160002989762
_cell_length_b       9.276564384272257
_cell_length_c       9.273891588657152
_cell_angle_alpha    86.03089208269444
_cell_angle_beta     89.68013189536481
_cell_angle_gamma    90.58592978602583

_space_group_name_H-M_alt    "P 1"
_space_group_IT_number       1

loop_
  _space_group_symop_operation_xyz
  'x, y, z'

loop_
  _atom_site_type_symbol
  _atom_site_label
  _atom_site_symmetry_multiplicity
  _atom_site_fract_x
  _atom_site_fract_y
  _atom_site_fract_z
  _atom_site_occupancy
  N   N1        1.0  0.9255637073716328  0.5638713334239926  0.4087596410134713  1.0000
  C   C1        1.0  0.8536207081718107  0.5885484150586906  0.349699415679833  1.0000
  C   C2        1.0  0.7641226119281391  0.6192473679842021  0.27622623420463177  1.0000
  C   C3        1.0  0.6760858724920318  0.5904136713667163  0.34796530363405154  1.0000
  C   C4        1.0  0.5889801997401986  0.6192473821033522  0.27622621102288814  1.0000
  C   C5        1.0  0.4985125654616146  0.5885482685788248  0.34969950741409006  1.0000
  N   N2        1.0  0.42579013633918  0.5638712699319202  0.4087596409801526  1.0000
  C   C6        1.0  0.5899479846797113  0.6775212965563553  0.1327665320911171  1.0000
  C   C7        1.0  0.6779670995829452  0.7085039936327773  0.060922230259547794  1.0000
  C   C8        1.0  0.6789461086640556  0.7669153990606434  0.905974778250898  1.0000
  C   C9        1.0  0.765025074038058  0.6775212944168858  0.13276644182522435  1.0000
  H   H1        1.0  0.6753613674910786  0.5451995108915926  0.45900055436030146  1.0000
  H   H2        1.0  0.5224287531264332  0.6988038983515823  0.07710557219236769  1.0000
  H   H3        1.0  0.7443546805165983  0.8348554261280179  0.8821338517996509  1.0000
  H   H4        1.0  0.614646202631605  0.8348554285917382  0.8821339168748206  1.0000
  H   H5        1.0  0.6785890187586407  0.6757537035403458  0.8345055357411231  1.0000
  H   H6        1.0  0.8332517132928559  0.6988040100546602  0.0771054866821661  1.0000
  C   C10       1.0  0.17277209278283215  0.14039365922197344  0.40912824685185134  1.0000
  C   C11       1.0  0.16088661214409394  0.22270425006858696  0.27738925998310093  1.0000
  C   C12       1.0  0.15797955401427366  0.15653778510142358  0.14688078160964846  1.0000
  C   C13       1.0  0.16694563487326697  0.007119366228095724  0.14563320332057206  1.0000
  C   C14       1.0  0.1771380075040585  0.923097471414354  0.27538007416075483  1.0000
  C   C15       1.0  0.17859087618649716  0.9873379214180992  0.4084034968146617  1.0000
  Br  Br1       1.0  0.1636803532017892  0.9171457245020042  0.9665527685189752  1.0000
  H   H7        1.0  0.14360688386913487  0.4050605085811121  0.6434640405831396  1.0000
  H   H8        1.0  0.15613233873021692  0.33933837765800523  0.2749216406097328  1.0000
  H   H9        1.0  0.14967466381757957  0.22185208452125524  0.04647953614439059  1.0000
  H   H10       1.0  0.1816154116092601  0.8068294479644089  0.27227246211419476  1.0000
  H   H11       1.0  0.23101265474961097  0.6914308781920757  0.6328958214808023  1.0000
  C   C16       1.0  0.17723649508744277  0.5600465512137274  0.9854938321916146  1.0000
  C   C17       1.0  0.2567008534455708  0.6209567248720722  0.05401542083568133  1.0000
  C   C18       1.0  0.3307641518683606  0.6926352239419498  0.9741443489283719  1.0000
  C   C19       1.0  0.3256286555932535  0.7037648994956072  0.8226942123546976  1.0000
  C   C20       1.0  0.2481861514273882  0.6419815464107564  0.7528311731562201  1.0000
  C   C21       1.0  0.17412644745040606  0.5676850049403412  0.8320379366161825  1.0000
  O   O1        1.0  0.407580310899178  0.7517698668000523  0.04930036433377749  1.0000
  C   C22       1.0  0.48758597291040584  0.8276637601130102  0.9821590605936303  1.0000
  H   H12       1.0  0.947040376227853  0.47147485427066727  0.09658683816481584  1.0000
  H   H13       1.0  0.38160927843764586  0.7588319940562942  0.7577249625029325  1.0000
  H   H14       1.0  0.020573020431962304  0.5023367025913414  0.5566511908330236  1.0000
  H   H15       1.0  0.4623467421537966  0.9252506119147095  0.9176799781453147  1.0000
  H   H16       1.0  0.5273403243939123  0.7560934894747965  0.9118076369215204  1.0000
  H   H17       1.0  0.5372320286746621  0.8621332206967003  0.06697311572670239  1.0000
  Zn  Zn1       1.0  0.06991819770145113  0.5638675294076845  0.4087679769456174  1.0000
  Zn  Zn2       1.0  0.2814355226202121  0.563863380013057  0.4087631528209399  1.0000
  C   C23       1.0  0.1746727066025977  0.5604962870998775  0.6720279083136893  1.0000
  C   C24       1.0  0.17668333546281212  0.5672364430995154  0.14550336131517083  1.0000
  C   C25       1.0  0.17750713189194456  0.8271956231716819  0.4027967321376795  1.0000
  C   C26       1.0  0.17384882581166808  0.30053537513944484  0.4147346158216074  1.0000
  O   O2        1.0  0.2567673692910694  0.569641570500093  0.1992021956472363  1.0000
  O   O3        1.0  0.2551254222600612  0.5580869187625064  0.6183249985908914  1.0000
  O   O4        1.0  0.2574131689470447  0.7734500190586748  0.40091891771517085  1.0000
  O   O5        1.0  0.25447955089546515  0.35427847954617286  0.4166081684420051  1.0000
  O   O6        1.0  0.09687409724575402  0.7734524298774863  0.4009229613186156  1.0000
  O   O7        1.0  0.09458636274012462  0.558091061472501  0.6183289638579723  1.0000
  O   O8        1.0  0.09622831585660858  0.5696456473204055  0.19920442799674842  1.0000
  O   O9        1.0  0.09394049698918171  0.3542825470271538  0.4166105088665326  1.0000
