data_image0
_chemical_formula_structural       NC9NC5H8C7OC3NC3H11C7OC4NC3H9Zn2C4O8
_chemical_formula_sum              "N4 C45 H28 O10 Zn2"
_cell_length_a       17.807436237873137
_cell_length_b       10.298746005989749
_cell_length_c       10.29937507404574
_cell_angle_alpha    85.54279281073399
_cell_angle_beta     89.38493469783968
_cell_angle_gamma    88.3993582553778

_space_group_name_H-M_alt    "P 1"
_space_group_IT_number       1

loop_
  _space_group_symop_operation_xyz
  'x, y, z'

loop_
  _atom_site_type_symbol
  _atom_site_label
  _atom_site_symmetry_multiplicity
  _atom_site_fract_x
  _atom_site_fract_y
  _atom_site_fract_z
  _atom_site_occupancy
  N   N1        1.0  0.7076391716611257  0.38841085358372235  0.5571403727489637  1.0000
  C   C1        1.0  0.647049081656607  0.35322243313036256  0.5461138431370802  1.0000
  C   C2        1.0  0.5716816691067012  0.30945191324437693  0.5323980375509485  1.0000
  C   C3        1.0  0.553590646603761  0.23807061552649825  0.4273858337303975  1.0000
  C   C4        1.0  0.48041277314939196  0.1954613395715217  0.4139860315093633  1.0000
  C   C5        1.0  0.4242771704263691  0.2238558133785398  0.5055659576524705  1.0000
  C   C6        1.0  0.3465079601239026  0.17868802189175462  0.49140752321100156  1.0000
  C   C7        1.0  0.2843375334887958  0.26044103179030614  0.5173525201129732  1.0000
  C   C8        1.0  0.2110173351760278  0.217628696179742  0.5039663877374589  1.0000
  C   C9        1.0  0.1477970470260706  0.3020731386606044  0.5302754637728944  1.0000
  N   N2        1.0  0.0969809231466981  0.36996062779993566  0.5514272340384583  1.0000
  C   C10       1.0  0.199283996126033  0.09280535940647039  0.46460989228329724  1.0000
  C   C11       1.0  0.2605970522050391  0.011038499250094484  0.4386565044561168  1.0000
  C   C12       1.0  0.3337977951587903  0.05345633818781637  0.4518400652772485  1.0000
  C   C13       1.0  0.44305962902475515  0.2957314348965905  0.6107974309733826  1.0000
  C   C14       1.0  0.5162903664592022  0.33815035967337037  0.6240415635767118  1.0000
  H   H1        1.0  0.5959883051411384  0.21561057352309557  0.3556682290709112  1.0000
  H   H2        1.0  0.4675007864263753  0.1418059485054617  0.3310583406509131  1.0000
  H   H3        1.0  0.2928422003130427  0.35790290656541207  0.5462366986291267  1.0000
  H   H4        1.0  0.1428164909085465  0.058770554413578376  0.454012491035467  1.0000
  H   H5        1.0  0.2513941989216328  0.914397241991378  0.4085719037734799  1.0000
  H   H6        1.0  0.3804337417273094  0.9877131747594426  0.4327868701482862  1.0000
  H   H7        1.0  0.40137871263626  0.31765189680171946  0.6838095660243328  1.0000
  H   H8        1.0  0.5297308878036602  0.39302682694879915  0.7059276480963925  1.0000
  C   C15       1.0  0.9022777366712889  0.9977852110659268  0.5542671289262522  1.0000
  C   C16       1.0  0.9374295509777725  0.004673219324442319  0.43124231910844485  1.0000
  C   C17       1.0  0.9544140651403281  0.8910704601684658  0.36835758901576443  1.0000
  C   C18       1.0  0.9374301175395245  0.7694366111109131  0.4311931717961166  1.0000
  C   C19       1.0  0.902349520798766  0.76057598394246  0.5543116319555428  1.0000
  C   C20       1.0  0.8848151033895288  0.875314395303207  0.6149155607310022  1.0000
  C   C21       1.0  0.992172565369497  0.8981221602769518  0.2389830226818812  1.0000
  O   O1        1.0  0.03804404820465712  0.8079802169258857  0.21309668710687113  1.0000
  C   C22       1.0  0.9778943545377223  0.0073753588571166  0.1389829663924509  1.0000
  C   C23       1.0  0.9067586224934855  0.07014314461840399  0.1279188769201507  1.0000
  C   C24       1.0  0.8936006116037074  0.17247496039705726  0.03220144772393674  1.0000
  N   N3        1.0  0.8212622145740738  0.23614158206881708  0.022058416926573846  1.0000
  C   C25       1.0  0.9516248903573881  0.2116448707762448  0.9462125654395965  1.0000
  C   C26       1.0  0.02207499800843604  0.14874553203901764  0.9554305726285439  1.0000
  C   C27       1.0  0.0351745937019845  0.046841076668301396  0.05084463936428829  1.0000
  H   H9        1.0  0.836899874328565  0.19201574034281538  0.7875709984378845  1.0000
  H   H10       1.0  0.9523724258400252  0.09849984844631644  0.38479947762944744  1.0000
  H   H11       1.0  0.950982408323395  0.6816213336027287  0.3832945965054617  1.0000
  H   H12       1.0  0.8577231042884637  0.8692527316889003  0.7097472513830245  1.0000
  H   H13       1.0  0.8363473750264645  0.5365023098996257  0.7871361175478501  1.0000
  H   H14       1.0  0.8612591220142535  0.03887035286373086  0.19255159618838324  1.0000
  H   H15       1.0  0.7776080986786859  0.20773177919007213  0.08565255710774378  1.0000
  H   H16       1.0  0.8108449374027409  0.31227825617008387  0.9509701560789173  1.0000
  H   H17       1.0  0.9421622361437073  0.2904737608598572  0.8718614291522662  1.0000
  H   H18       1.0  0.06665417721586775  0.179027234780961  0.8884789587413158  1.0000
  H   H19       1.0  0.09027256586973453  0.9995856179636136  0.056563950096731874  1.0000
  C   C28       1.0  0.9023391848409787  0.3793217435556741  0.17290226010882082  1.0000
  C   C29       1.0  0.9601753454613268  0.4696998116780369  0.16361564698890696  1.0000
  C   C30       1.0  0.9887627646441305  0.5163919786763584  0.041682932369680126  1.0000
  C   C31       1.0  0.9600536881335487  0.46946782100280604  0.9283921017432376  1.0000
  C   C32       1.0  0.9022880588321895  0.37903945786503873  0.9356765493771096  1.0000
  C   C33       1.0  0.873630383934948  0.3347473812093851  0.058406712146396256  1.0000
  C   C34       1.0  0.05037310267218897  0.6107994798429381  0.03180714462802592  1.0000
  O   O2        1.0  0.09838148998638956  0.6038390342399915  0.9414674665310341  1.0000
  C   C35       1.0  0.057509765704271354  0.7131154782462497  0.12433505513705058  1.0000
  C   C36       1.0  0.12895483449340306  0.756294789566484  0.1550460286227373  1.0000
  C   C37       1.0  0.13624396037497144  0.8539694864104839  0.24116165910753987  1.0000
  C   C38       1.0  0.20961263443224312  0.8968482956001702  0.27287550259881743  1.0000
  N   N4        1.0  0.26859278220891225  0.9313124099525665  0.29836609821487503  1.0000
  C   C39       1.0  0.07209508076335712  0.909864935790268  0.2962995506573538  1.0000
  C   C40       1.0  0.0009004706810076226  0.8686855763300483  0.2650840689361882  1.0000
  C   C41       1.0  0.993461958555137  0.7712879660369928  0.1792462054159769  1.0000
  H   H20       1.0  0.7939854865431056  0.20726654808365597  0.39785039612371786  1.0000
  H   H21       1.0  0.9836328120301356  0.502792413182588  0.25145673186667694  1.0000
  H   H22       1.0  0.9824188072326056  0.504646906689659  0.8343209263175857  1.0000
  H   H23       1.0  0.8290431796656413  0.2650718132595995  0.0647621897963373  1.0000
  H   H24       1.0  0.8805302555796315  0.34348067342633803  0.6110735180472826  1.0000
  H   H25       1.0  0.17889487120313574  0.7132046523309066  0.11293012605218711  1.0000
  H   H26       1.0  0.07711377589438495  0.9855115311061337  0.36290963399122345  1.0000
  H   H27       1.0  0.9513348104909132  0.9127367533750719  0.3070457178044588  1.0000
  H   H28       1.0  0.9376579980894448  0.7425362132742461  0.15475986690380727  1.0000
  Zn  Zn1       1.0  0.819994788872801  0.3830830486174689  0.5554991952764805  1.0000
  Zn  Zn2       1.0  0.9846252860260655  0.37527784176732215  0.5530790880148935  1.0000
  C   C42       1.0  0.9022955784782868  0.37391876775137173  0.7914955700450756  1.0000
  C   C43       1.0  0.9023262943261909  0.38444367610834984  0.3170828143869795  1.0000
  C   C44       1.0  0.9023324404987397  0.616394372414242  0.5491278691870278  1.0000
  C   C45       1.0  0.9022893759773479  0.14196651365196034  0.5594505852217093  1.0000
  O   O3        1.0  0.9647983833089785  0.38319494193131465  0.3645527070843968  1.0000
  O   O4        1.0  0.9647742274772516  0.3692425508644076  0.742188498012514  1.0000
  O   O5        1.0  0.9648031517225116  0.5650447075820638  0.5464748772376549  1.0000
  O   O6        1.0  0.9647694028938801  0.1873927972040757  0.5602662313062987  1.0000
  O   O7        1.0  0.8398506158246779  0.5709680958456657  0.5483120528041077  1.0000
  O   O8        1.0  0.8398216917274999  0.37516749958647844  0.7440256044213172  1.0000
  O   O9        1.0  0.8398458477095427  0.38911984596924243  0.36638825201457226  1.0000
  O   O10       1.0  0.8398168672839743  0.1933176919165358  0.5621018736084646  1.0000
