data_image0
_chemical_formula_structural       NC6NC2H4C6NCH9C7OH5Zn2C4O8
_chemical_formula_sum              "N3 C26 H18 O9 Zn2"
_cell_length_a       14.927258858638513
_cell_length_b       9.273386996610927
_cell_length_c       9.274074313596557
_cell_angle_alpha    86.02935137670892
_cell_angle_beta     90.23360497227152
_cell_angle_gamma    89.39858807063658

_space_group_name_H-M_alt    "P 1"
_space_group_IT_number       1

loop_
  _space_group_symop_operation_xyz
  'x, y, z'

loop_
  _atom_site_type_symbol
  _atom_site_label
  _atom_site_symmetry_multiplicity
  _atom_site_fract_x
  _atom_site_fract_y
  _atom_site_fract_z
  _atom_site_occupancy
  N   N1        1.0  0.8293413883365935  0.5632414323040813  0.40763559650097014  1.0000
  C   C1        1.0  0.75181489738116  0.5632414038873337  0.40763560713440095  1.0000
  C   C2        1.0  0.655382388962492  0.5632415185405812  0.4076355570952592  1.0000
  C   C3        1.0  0.6081719238880153  0.5382981245301741  0.28101506699370127  1.0000
  C   C4        1.0  0.5144606120476898  0.5382981488660008  0.2810149335212042  1.0000
  C   C5        1.0  0.4675663261757323  0.5632413411048696  0.4076355760128594  1.0000
  C   C6        1.0  0.371133750765494  0.5632414557610244  0.40763552596778996  1.0000
  N   N2        1.0  0.2936072598100605  0.5632414273442767  0.4076355366012212  1.0000
  C   C7        1.0  0.514776724258639  0.5881847351181844  0.5342560661084896  1.0000
  C   C8        1.0  0.6084880360989641  0.5881847107823577  0.5342561995809874  1.0000
  H   H1        1.0  0.6437451170889734  0.5188907564016711  0.1824970585560124  1.0000
  H   H2        1.0  0.4786414602762734  0.5188909539670716  0.18249705329670585  1.0000
  H   H3        1.0  0.47920359837967863  0.6075920939860555  0.6327741826257498  1.0000
  H   H4        1.0  0.6443071875044728  0.6075920041276601  0.6327741896512873  1.0000
  C   C9        1.0  0.06423516489759806  0.13959438408999914  0.4083438096278733  1.0000
  C   C10       1.0  0.07964292325528405  0.22179063728714168  0.2780289171647714  1.0000
  C   C11       1.0  0.08661582996918882  0.15600832329049852  0.1477059698659231  1.0000
  C   C12       1.0  0.0782830977349176  0.005674868204155861  0.14436586001851381  1.0000
  C   C13       1.0  0.06445292698855987  0.9225112563761356  0.2742280676215241  1.0000
  C   C14       1.0  0.05872215636452886  0.9868774577919839  0.4069398558996824  1.0000
  N   N3        1.0  0.08449205330958814  0.9348297146137428  0.011352266637187917  1.0000
  C   C15       1.0  0.09906819254306791  0.01134545462410008  0.8707076033715779  1.0000
  H   H5        1.0  0.08312193539459889  0.40406208765135826  0.6449644615694079  1.0000
  H   H6        1.0  0.08420777517219552  0.3384191712150708  0.2762607018622918  1.0000
  H   H7        1.0  0.09767137514323082  0.22364933353126618  0.04980696165365539  1.0000
  H   H8        1.0  0.06021889507915847  0.8060878658612513  0.2719544185672851  1.0000
  H   H9        1.0  0.09257358114357227  0.8589617421161381  0.7579756634737571  1.0000
  H   H10       1.0  0.07816598164157496  0.8224919331575596  0.014340936080367458  1.0000
  H   H11       1.0  0.04347078208975888  0.08967317931008667  0.8456661784571398  1.0000
  H   H12       1.0  0.16390969385416465  0.0688994825123186  0.8709401683761637  1.0000
  H   H13       1.0  0.10111572047351984  0.9330712087776477  0.785383887805478  1.0000
  C   C16       1.0  0.06043307755908778  0.5590808796242615  0.9844075264526642  1.0000
  C   C17       1.0  0.9820467487250033  0.6016723082775846  0.05422580935550281  1.0000
  C   C18       1.0  0.9079963793920048  0.6558577967775772  0.9749537954351499  1.0000
  C   C19       1.0  0.9105990331271304  0.6688931169699619  0.823652193488559  1.0000
  C   C20       1.0  0.9877871331483271  0.6245599695026451  0.7526969108431709  1.0000
  C   C21       1.0  0.06252423197561764  0.567390935501916  0.8308761621411795  1.0000
  C   C22       1.0  0.8331616215689888  0.7270458933479729  0.7381651303626398  1.0000
  O   O1        1.0  0.7626995951547265  0.767241863362643  0.798804806370498  1.0000
  H   H14       1.0  0.2795589990005949  0.5223254729251341  0.09125698531773208  1.0000
  H   H15       1.0  0.8490027358056191  0.6888834378948276  0.0323007278321008  1.0000
  H   H16       1.0  0.9887797020933667  0.6315512822885829  0.6355286628851307  1.0000
  H   H17       1.0  0.20985223097677497  0.5374063710948713  0.5534600119930873  1.0000
  H   H18       1.0  0.8362857367248937  0.7358026514730149  0.6212811024505753  1.0000
  Zn  Zn1       1.0  0.9633185438555667  0.5632376469268847  0.4076439135144041  1.0000
  Zn  Zn2       1.0  0.15963022126961063  0.5632335119586427  0.40763906192340227  1.0000
  C   C23       1.0  0.06216437894173521  0.5600729652890422  0.6708849460852448  1.0000
  C   C24       1.0  0.06078651840639963  0.5664000152153973  0.14439816774259473  1.0000
  C   C25       1.0  0.05974544752623779  0.8266665513018561  0.4014619254523717  1.0000
  C   C26       1.0  0.06320539430212582  0.2998046966821972  0.41382126808864217  1.0000
  O   O2        1.0  0.13540443582713224  0.5688485209421847  0.19809065776769863  1.0000
  O   O3        1.0  0.1365424883917068  0.557620228810392  0.6171883607326651  1.0000
  O   O4        1.0  0.13458817009880564  0.772897935785475  0.39962736289821854  1.0000
  O   O5        1.0  0.13735868679803587  0.35357082322773326  0.41565154752257394  1.0000
  O   O6        1.0  0.9855900113355714  0.7729003356607012  0.3996314279093043  1.0000
  O   O7        1.0  0.9875443181566733  0.5576243612089116  0.6171923460246485  1.0000
  O   O8        1.0  0.9864062616979256  0.5688525860561002  0.19809291033706278  1.0000
  O   O9        1.0  0.988360512999257  0.3535748790839246  0.41565390816558256  1.0000
