data_image0
_chemical_formula_structural       NC8NH4C6ClH5C6IH2Zn2C4O8
_chemical_formula_sum              "N2 C24 H11 Cl1 I1 Zn2 O8"
_cell_length_a       13.859017981522156
_cell_length_b       9.276545438789551
_cell_length_c       9.275433903346869
_cell_angle_alpha    86.20108945286073
_cell_angle_beta     89.965620414742
_cell_angle_gamma    89.4096370293992

_space_group_name_H-M_alt    "P 1"
_space_group_IT_number       1

loop_
  _space_group_symop_operation_xyz
  'x, y, z'

loop_
  _atom_site_type_symbol
  _atom_site_label
  _atom_site_symmetry_multiplicity
  _atom_site_fract_x
  _atom_site_fract_y
  _atom_site_fract_z
  _atom_site_occupancy
  N   N1        1.0  0.8984605168074776  0.5611640833457652  0.4114583253902009  1.0000
  C   C1        1.0  0.8261835297076704  0.5534824076890599  0.3501608770649465  1.0000
  C   C2        1.0  0.7362752198433826  0.5439277802030336  0.2739148276643142  1.0000
  C   C3        1.0  0.7362809699810093  0.5252953509493079  0.12523129057977078  1.0000
  C   C4        1.0  0.6489420539378047  0.5160174280778103  0.051186578134595484  1.0000
  C   C5        1.0  0.561415682268529  0.5252970704894346  0.12523104337467683  1.0000
  C   C6        1.0  0.5610449763284285  0.543928751419128  0.2739146445070928  1.0000
  C   C7        1.0  0.6485660707095802  0.5532429027209498  0.34824526873251704  1.0000
  C   C8        1.0  0.470943706821531  0.5534833087978264  0.35016063725071533  1.0000
  N   N2        1.0  0.3985115990242276  0.5611643958025094  0.41145823200160003  1.0000
  H   H1        1.0  0.8036505106526725  0.5179633649990087  0.06672588696667159  1.0000
  H   H2        1.0  0.6490874016528279  0.5016249370725046  0.9363349435225903  1.0000
  H   H3        1.0  0.4941942197600497  0.5179664579615075  0.06672546897111387  1.0000
  H   H4        1.0  0.6484204211219089  0.5676644293090751  0.4633304041975361  1.0000
  C   C9        1.0  0.15140288534046792  0.1377265859278467  0.4112207335760498  1.0000
  C   C10       1.0  0.1518220167371085  0.21996349882082322  0.278218513053319  1.0000
  C   C11       1.0  0.14346152490848826  0.15350033379932237  0.14811111125188492  1.0000
  C   C12       1.0  0.13448348948065547  0.003918684265714174  0.14900425953572705  1.0000
  C   C13       1.0  0.13555400073408053  0.9201173928768215  0.27956522233446957  1.0000
  C   C14       1.0  0.14557856526941795  0.9845909949879205  0.41170828318302544  1.0000
  Cl  Cl1       1.0  0.14278059060225812  0.25837209540826  0.9836023458301836  1.0000
  H   H5        1.0  0.20065949844290182  0.40309513522550433  0.6377711523115936  1.0000
  H   H6        1.0  0.15634437854748984  0.3366537247437633  0.2753655633347576  1.0000
  H   H7        1.0  0.1275933345511746  0.9521265151180067  0.04834540467303028  1.0000
  H   H8        1.0  0.13083783271237692  0.8038287427253095  0.27691549360090484  1.0000
  H   H9        1.0  0.11313872155326314  0.6883336038690262  0.6447184578614984  1.0000
  C   C15       1.0  0.14869102578782645  0.5566582235745958  0.9883095831606273  1.0000
  C   C16       1.0  0.23759201972986624  0.553958810663097  0.06176287341893527  1.0000
  C   C17       1.0  0.3244437219877332  0.5645468122113664  0.9856502070472541  1.0000
  C   C18       1.0  0.3237844841606312  0.5781708717366265  0.8351124068653228  1.0000
  C   C19       1.0  0.2365333245908128  0.5786907247241116  0.7601373400117946  1.0000
  C   C20       1.0  0.14829039179488834  0.5656592715223259  0.8346193885460167  1.0000
  I   I1        1.0  0.4566235289855327  0.5626327140161864  0.09843346707721601  1.0000
  H   H10       1.0  0.9180940267804115  0.6420838148653238  0.08584842753043898  1.0000
  H   H11       1.0  0.3910193358309959  0.5869854180428493  0.7759065336323596  1.0000
  Zn  Zn1       1.0  0.042764485974424504  0.561160411471626  0.41146661376980886  1.0000
  Zn  Zn2       1.0  0.25420770789315617  0.5611564281283585  0.4114617269422869  1.0000
  C   C21       1.0  0.1484034814103965  0.5582135300286144  0.6746454321950477  1.0000
  C   C22       1.0  0.14857100883081298  0.5641051304078448  0.14828305094384486  1.0000
  C   C23       1.0  0.1466772186361645  0.8244544895101138  0.40587390798098855  1.0000
  C   C24       1.0  0.15029721133266907  0.29786243932520895  0.41705465098722416  1.0000
  O   O1        1.0  0.2287723740809582  0.5665965779819593  0.2019697499604427  1.0000
  O   O2        1.0  0.22868263681116702  0.5557179669816517  0.6209546087554256  1.0000
  O   O3        1.0  0.22728757538496194  0.7707109247957127  0.4039197022375971  1.0000
  O   O4        1.0  0.23016736333611812  0.351603629335163  0.4190045484420175  1.0000
  O   O5        1.0  0.06680475837626076  0.7707132102676701  0.40392379226416697  1.0000
  O   O6        1.0  0.06819980791963975  0.5557219840575942  0.6209586229467643  1.0000
  O   O7        1.0  0.06828954641930586  0.5666005263836107  0.20197203164190114  1.0000
  O   O8        1.0  0.0696845356903093  0.3516075685723985  0.41900693815381973  1.0000
