data_image0
_chemical_formula_structural       NC11NC3H8C6NCOC6H11C6SCOC6H10Zn2C4O8
_chemical_formula_sum              "N3 C44 H29 O10 S1 Zn2"
_cell_length_a       17.807433833752565
_cell_length_b       10.29965916528486
_cell_length_c       10.302041481415108
_cell_angle_alpha    85.55947833871805
_cell_angle_beta     88.52108606055918
_cell_angle_gamma    90.70223866869796

_space_group_name_H-M_alt    "P 1"
_space_group_IT_number       1

loop_
  _space_group_symop_operation_xyz
  'x, y, z'

loop_
  _atom_site_type_symbol
  _atom_site_label
  _atom_site_symmetry_multiplicity
  _atom_site_fract_x
  _atom_site_fract_y
  _atom_site_fract_z
  _atom_site_occupancy
  N   N1        1.0  0.7077145775580147  0.4389491017170495  0.5354414020272418  1.0000
  C   C1        1.0  0.6568867108851234  0.40420029562128207  0.6019779001535519  1.0000
  C   C2        1.0  0.593651719918062  0.3609756461593894  0.6847408123272267  1.0000
  C   C3        1.0  0.6053634511947866  0.29738471393604415  0.8074117234200722  1.0000
  C   C4        1.0  0.544036226024832  0.2558405873266805  0.8878917513415746  1.0000
  C   C5        1.0  0.4708428448183921  0.2775739113910458  0.8463414217512581  1.0000
  C   C6        1.0  0.4581543634080483  0.34131954942797205  0.7232104646913877  1.0000
  C   C7        1.0  0.38039309280017675  0.36438391763734024  0.6788805255262027  1.0000
  C   C8        1.0  0.36161120611050335  0.3475563592666177  0.5493232005768814  1.0000
  C   C9        1.0  0.28838787723388426  0.36925097120538625  0.5077287966378852  1.0000
  C   C10       1.0  0.2330034457576338  0.4080919431874679  0.5948717268269998  1.0000
  C   C11       1.0  0.15764355825658122  0.4304454725313527  0.5519165406980617  1.0000
  N   N2        1.0  0.09705958174855542  0.44841604946209324  0.5173836973094145  1.0000
  C   C12       1.0  0.2510938244325962  0.4251302559456731  0.7238981025457754  1.0000
  C   C13       1.0  0.3242643764217674  0.4034006273495172  0.7657478683510883  1.0000
  C   C14       1.0  0.52033889908585  0.382859105583738  0.6427468475133602  1.0000
  H   H1        1.0  0.6618250298676908  0.27995918255244456  0.8407642993808151  1.0000
  H   H2        1.0  0.5532223623502558  0.2063569248586412  0.9825910803124513  1.0000
  H   H3        1.0  0.4241953225371708  0.24299689753160258  0.9097553778856637  1.0000
  H   H4        1.0  0.403286517102298  0.3159387077406074  0.48061157122626286  1.0000
  H   H5        1.0  0.27494755273683896  0.35540475983290065  0.4077117835187209  1.0000
  H   H6        1.0  0.20870153610459352  0.4555250832186788  0.7920946813413003  1.0000
  H   H7        1.0  0.33717654314522827  0.4187922770863754  0.8655826667420494  1.0000
  H   H8        1.0  0.5118514682531867  0.433705011056015  0.5482822233396085  1.0000
  C   C15       1.0  0.9023245918512607  0.0623204071028296  0.5262999721395951  1.0000
  C   C16       1.0  0.9028403760521453  0.07166117561713214  0.389491449732833  1.0000
  C   C17       1.0  0.9042080219563853  0.9595576577447482  0.32060821763914404  1.0000
  C   C18       1.0  0.9029819134563649  0.8364742218755762  0.3897812015490736  1.0000
  C   C19       1.0  0.9024567318449047  0.8250348852052228  0.5265359486443961  1.0000
  C   C20       1.0  0.902395395054336  0.9385726050283317  0.5940111743977884  1.0000
  N   N3        1.0  0.9035812260470485  0.972663618939848  0.18060329542843798  1.0000
  C   C21       1.0  0.9387998066988885  0.882418651742179  0.09926204691516283  1.0000
  O   O1        1.0  0.9906241297895949  0.8108438701612252  0.14382570500379654  1.0000
  C   C22       1.0  0.9169683464804137  0.8757390586098192  0.9619401130794091  1.0000
  C   C23       1.0  0.8475018473761775  0.9239233056473476  0.9188268278800326  1.0000
  C   C24       1.0  0.8273755814097445  0.9164657209143166  0.7892676154515333  1.0000
  C   C25       1.0  0.8760160782224589  0.86059100449045  0.7015746822179492  1.0000
  C   C26       1.0  0.9448212907413231  0.8116036332359952  0.7433427346055868  1.0000
  C   C27       1.0  0.9652343625015387  0.8187118952931994  0.8727841944479272  1.0000
  H   H9        1.0  0.9006345976910414  0.2519471382708284  0.7843979572801967  1.0000
  H   H10       1.0  0.9027559776216807  0.1662870496402178  0.3356847444557345  1.0000
  H   H11       1.0  0.9011182075475095  0.7496565775156246  0.33707444693969446  1.0000
  H   H12       1.0  0.9020078291817982  0.9305067828446886  0.6994746409045866  1.0000
  H   H13       1.0  0.9012557853658612  0.493173371595416  0.5790410711122678  1.0000
  H   H14       1.0  0.8821472739527139  0.058291290820998265  0.13566754058088715  1.0000
  H   H15       1.0  0.8081314183169285  0.9656405065375763  0.9851203372771867  1.0000
  H   H16       1.0  0.773836295096695  0.9536092713995479  0.7569730209306678  1.0000
  H   H17       1.0  0.86028706770691  0.8548862067015831  0.6013699309257743  1.0000
  H   H18       1.0  0.9824142576587942  0.7680480498413985  0.6753683502818113  1.0000
  H   H19       1.0  0.01896186219451424  0.7803875697181  0.9028518621815395  1.0000
  C   C28       1.0  0.9024047757909758  0.44380727328920355  0.14513032829740166  1.0000
  C   C29       1.0  0.9368675316947211  0.5677407927822873  0.13265805624665328  1.0000
  C   C30       1.0  0.9543492121071404  0.6288905561796039  0.009481225298499926  1.0000
  C   C31       1.0  0.9369387626850085  0.5673386716064004  0.8975492124283506  1.0000
  C   C32       1.0  0.9023765826687339  0.44354803493918893  0.9077056447185528  1.0000
  C   C33       1.0  0.885343922699627  0.38237063494563417  0.03205506447134043  1.0000
  S   S1        1.0  0.9990451247160657  0.7865066043580493  0.994935394928552  1.0000
  C   C34       1.0  0.09157801803348374  0.7189574630785993  0.9931899894415921  1.0000
  O   O2        1.0  0.12097507252287065  0.6965000362175873  0.884758937519674  1.0000
  C   C35       1.0  0.13298162188553508  0.6886222370612625  0.11478425649792087  1.0000
  C   C36       1.0  0.19961433710556742  0.6165207567661231  0.11186271201522621  1.0000
  C   C37       1.0  0.23876529544198588  0.5865766833462536  0.2259891635041249  1.0000
  C   C38       1.0  0.2120809185330348  0.6282743923338809  0.3441777951945903  1.0000
  C   C39       1.0  0.1462556238617645  0.7002366979709833  0.3484421080353996  1.0000
  C   C40       1.0  0.10688049089525165  0.7305494465595981  0.2346255784801432  1.0000
  H   H20       1.0  0.8373359424424388  0.21032463506232763  0.375951999717239  1.0000
  H   H21       1.0  0.9503718726588299  0.6169957933120143  0.21836159349975334  1.0000
  H   H22       1.0  0.95076147612977  0.6162698907891295  0.8029521782308711  1.0000
  H   H23       1.0  0.8587773383028837  0.2868265479635257  0.04074966155033999  1.0000
  H   H24       1.0  0.8894411516542309  0.3963179618141859  0.5842314289437835  1.0000
  H   H25       1.0  0.22130935403073404  0.582591170446324  0.021526910051343114  1.0000
  H   H26       1.0  0.28982322792488335  0.5308350035098657  0.22275599926821107  1.0000
  H   H27       1.0  0.24245609584629843  0.6049623483201134  0.43242343372449427  1.0000
  H   H28       1.0  0.12572692846181696  0.7328076377652188  0.4400774139529009  1.0000
  H   H29       1.0  0.05639284331561289  0.7872470279531274  0.24105985057359655  1.0000
  Zn  Zn1       1.0  0.8200711343722971  0.44167758121722517  0.5302378203623295  1.0000
  Zn  Zn2       1.0  0.9847030079421092  0.4456769469579806  0.5225978594461007  1.0000
  C   C41       1.0  0.9023793197703756  0.4384234231520894  0.7635610338310499  1.0000
  C   C42       1.0  0.9023966205981663  0.4489327872436841  0.2892746904955448  1.0000
  C   C43       1.0  0.902428088758118  0.6808673066442135  0.5213174728459142  1.0000
  C   C44       1.0  0.9023477951601694  0.206487342088022  0.5315183228287603  1.0000
  O   O3        1.0  0.964870820692825  0.4521650293623309  0.33475152811947106  1.0000
  O   O4        1.0  0.9648569022370349  0.4382256275133294  0.7122852685788612  1.0000
  O   O5        1.0  0.9648954415424417  0.634002108635833  0.5166719186726583  1.0000
  O   O6        1.0  0.9648322252149237  0.25638855619826817  0.5303647832816326  1.0000
  O   O7        1.0  0.8399418609187043  0.6309659706135673  0.5224708991271118  1.0000
  O   O8        1.0  0.8399033218827736  0.4351910497912305  0.71808418028555  1.0000
  O   O9        1.0  0.8399172404384498  0.4491304069169195  0.34054887874189393  1.0000
  O   O10       1.0  0.8398786449522649  0.25335392443104454  0.5361622312484113  1.0000
