data_image0
_chemical_formula_structural       NC9NC3NH7C8H6C7ONH7Zn2C4O8
_chemical_formula_sum              "N4 C31 H20 O9 Zn2"
_cell_length_a       16.053384444249904
_cell_length_b       9.27514070457351
_cell_length_c       10.297855452804892
_cell_angle_alpha    85.67857769171053
_cell_angle_beta     89.79073978720562
_cell_angle_gamma    89.76770978158073

_space_group_name_H-M_alt    "P 1"
_space_group_IT_number       1

loop_
  _space_group_symop_operation_xyz
  'x, y, z'

loop_
  _atom_site_type_symbol
  _atom_site_label
  _atom_site_symmetry_multiplicity
  _atom_site_fract_x
  _atom_site_fract_y
  _atom_site_fract_z
  _atom_site_occupancy
  N   N1        1.0  0.7938929264393825  0.5591274428091517  0.567609766346186  1.0000
  C   C1        1.0  0.7430102025704877  0.5360502398016741  0.4927004761619125  1.0000
  C   C2        1.0  0.6797769111426115  0.5073765573562974  0.39964486350308653  1.0000
  C   C3        1.0  0.6933321408770563  0.49401625895087836  0.26886174472486424  1.0000
  C   C4        1.0  0.6165472476506717  0.4659184633262559  0.21653948980347004  1.0000
  C   C5        1.0  0.5594247264424573  0.46370035100644813  0.31822304175648775  1.0000
  C   C6        1.0  0.4686157628364858  0.43725881043949016  0.30791803831634823  1.0000
  C   C7        1.0  0.4129900618400238  0.4846420249778725  0.4019416759288694  1.0000
  C   C8        1.0  0.32729308470989943  0.45956472409044036  0.39207196158555657  1.0000
  C   C9        1.0  0.270898555426868  0.5088841242850908  0.48847203387018423  1.0000
  N   N2        1.0  0.2255739773542466  0.5485299677444417  0.5659625969952753  1.0000
  C   C10       1.0  0.2964950342765554  0.3869798846211059  0.2881920561932394  1.0000
  C   C11       1.0  0.3511129472048251  0.33972938219946897  0.19438040580236193  1.0000
  C   C12       1.0  0.4366029145502777  0.3646228474988892  0.20385307924898546  1.0000
  N   N3        1.0  0.5987502328066334  0.4891621313479009  0.4298506810222793  1.0000
  H   H1        1.0  0.7521309938307905  0.5036213248304466  0.21725783719372685  1.0000
  H   H2        1.0  0.6042095464591233  0.45066490706699014  0.1153149665865787  1.0000
  H   H3        1.0  0.4356446081845947  0.5428498728845081  0.4818775751692723  1.0000
  H   H4        1.0  0.23035480497087446  0.3670372598125029  0.2797155012696537  1.0000
  H   H5        1.0  0.3271789830319712  0.28334421874333904  0.11421451329214573  1.0000
  H   H6        1.0  0.4774972405077976  0.3253012072326989  0.13050923090115174  1.0000
  H   H7        1.0  0.5725891335339948  0.4917567434633978  0.5226306071375859  1.0000
  C   C13       1.0  0.007207180487044167  0.1304502982491209  0.5658874261857716  1.0000
  C   C14       1.0  0.01911186105027873  0.2136385862476107  0.44735493141567995  1.0000
  C   C15       1.0  0.03828017838906117  0.14789055418944844  0.3334501553139082  1.0000
  C   C16       1.0  0.04600231778738718  0.9977702600290514  0.33589001397979845  1.0000
  C   C17       1.0  0.033031028391042876  0.9130280120472724  0.45229777434025925  1.0000
  C   C18       1.0  0.012267587696417559  0.9771958617295823  0.5676961293700973  1.0000
  C   C19       1.0  0.06630737814343801  0.930244610049786  0.21835021014255832  1.0000
  C   C20       1.0  0.08330848565112303  0.8736934445800081  0.11994418173132804  1.0000
  H   H8        1.0  0.020802961085045087  0.20651771272796693  0.8849959170007504  1.0000
  H   H9        1.0  0.015530490117549922  0.33055267780341535  0.44339007032053557  1.0000
  H   H10       1.0  0.04789435096048211  0.21442475799348193  0.24361783801939366  1.0000
  H   H11       1.0  0.037230003894153985  0.7963177512409173  0.45212129498293213  1.0000
  H   H12       1.0  0.018224530173814646  0.678453203151544  0.7827107447678592  1.0000
  H   H13       1.0  0.09823180921574903  0.8240517048297618  0.033564354638097045  1.0000
  C   C21       1.0  0.009770926251179816  0.5539655966394992  0.1853499319825691  1.0000
  C   C22       1.0  0.9247771726193309  0.590814793455366  0.1823601621554081  1.0000
  C   C23       1.0  0.8814772447972973  0.608267578458701  0.06384400310743765  1.0000
  C   C24       1.0  0.9246739544042097  0.5904929544144628  0.9471269432837343  1.0000
  C   C25       1.0  0.0097038527451141  0.5536805179703468  0.9482335743201786  1.0000
  C   C26       1.0  0.051643395014531635  0.535326433009288  0.06780760959157783  1.0000
  C   C27       1.0  0.7917714942032634  0.6475285117797418  0.06326232706154666  1.0000
  O   O1        1.0  0.761315861170939  0.7098043863923718  0.1573208714249552  1.0000
  N   N4        1.0  0.7382924567506078  0.614744380416089  0.9587687548190958  1.0000
  H   H14       1.0  0.1704777221924414  0.484835756867531  0.3982333385481392  1.0000
  H   H15       1.0  0.8919217446889159  0.6047678642082204  0.27267161165672404  1.0000
  H   H16       1.0  0.8927769372928598  0.6079029385074202  0.8548933284436214  1.0000
  H   H17       1.0  0.11714837562558533  0.50692277472953  0.06935844715629558  1.0000
  H   H18       1.0  0.17073794970371514  0.4863673004412415  0.7428943140677112  1.0000
  H   H19       1.0  0.6762972592550701  0.6492955769867783  0.9579902070713704  1.0000
  H   H20       1.0  0.7576964077920469  0.5484844309929476  0.8868650638876187  1.0000
  Zn  Zn1       1.0  0.9184667270017474  0.5560653925739549  0.5671419149098615  1.0000
  Zn  Zn2       1.0  0.10100008220161127  0.5515802681361158  0.5664410396195303  1.0000
  C   C28       1.0  0.009680353975527467  0.5479909035111263  0.8040199823458769  1.0000
  C   C29       1.0  0.00978845934684381  0.559656527294387  0.3295630959064886  1.0000
  C   C30       1.0  0.011307247258836917  0.8171449637120441  0.5621780745865821  1.0000
  C   C31       1.0  0.00816149341951844  0.2905007364215124  0.5714050694568374  1.0000
  O   O2        1.0  0.07906476304151044  0.5598580844128034  0.3776963591675633  1.0000
  O   O3        1.0  0.07894263687597936  0.544384153219711  0.7553543947158463  1.0000
  O   O4        1.0  0.08025543985949879  0.7617294831898598  0.5600653499162873  1.0000
  O   O5        1.0  0.07775189784192055  0.34251276632309247  0.5729853068350286  1.0000
  O   O6        1.0  0.941714849071772  0.7651328959191032  0.5605976479267087  1.0000
  O   O7        1.0  0.9404020564426026  0.5477892981530361  0.755886627167559  1.0000
  O   O8        1.0  0.9405241825005622  0.5632631796871612  0.37822702981253475  1.0000
  O   O9        1.0  0.9392113172273769  0.345917851249137  0.573516074844439  1.0000
