data_image0
_chemical_formula_structural       NC8NH4C7NH3C6H4Zn2C4O8
_chemical_formula_sum              "N3 C25 H11 Zn2 O8"
_cell_length_a       14.927258825633057
_cell_length_b       9.275154477615127
_cell_length_c       10.68112160042829
_cell_angle_alpha    85.78691594316618
_cell_angle_beta     89.9998652976436
_cell_angle_gamma    89.43370909507247

_space_group_name_H-M_alt    "P 1"
_space_group_IT_number       1

loop_
  _space_group_symop_operation_xyz
  'x, y, z'

loop_
  _atom_site_type_symbol
  _atom_site_label
  _atom_site_symmetry_multiplicity
  _atom_site_fract_x
  _atom_site_fract_y
  _atom_site_fract_z
  _atom_site_occupancy
  N   N1        1.0  0.8338807964567592  0.5778877179461275  0.624100043599646  1.0000
  C   C1        1.0  0.7563543722716004  0.5778876915007785  0.6241000518942368  1.0000
  C   C2        1.0  0.6599217305275306  0.5778876912111035  0.6241000997473511  1.0000
  C   C3        1.0  0.6134117770440822  0.4895938940753048  0.5458319986782405  1.0000
  C   C4        1.0  0.5197004660397307  0.48959380426494875  0.5458319736393153  1.0000
  C   C5        1.0  0.4721057327932287  0.5778877442416277  0.6241000236349075  1.0000
  C   C6        1.0  0.5186156862172049  0.666181551689699  0.7023680308498916  1.0000
  C   C7        1.0  0.6123270642131106  0.6661816414970894  0.7023680558939539  1.0000
  C   C8        1.0  0.375673091649108  0.5778876466448055  0.6240999755693124  1.0000
  N   N2        1.0  0.2981466668045281  0.5778877278188755  0.6240999859284859  1.0000
  H   H1        1.0  0.6495298971915121  0.4208961409080428  0.4849350390692094  1.0000
  H   H2        1.0  0.484426241453887  0.4208961172395538  0.484935123460536  1.0000
  H   H3        1.0  0.4824975660697751  0.7348793048569608  0.7632649904589228  1.0000
  H   H4        1.0  0.6476012218668724  0.7348793182131781  0.7632649999217228  1.0000
  C   C9        1.0  0.06861037219346568  0.1544984039836663  0.622650903411589  1.0000
  C   C10       1.0  0.04402073433810205  0.2376774820911005  0.5122369589330219  1.0000
  C   C11       1.0  0.012144424214416633  0.17163905145630198  0.4076718061873359  1.0000
  C   C12       1.0  0.004332893999640985  0.021518527548040733  0.4122891165209089  1.0000
  C   C13       1.0  0.02975282023387594  0.9371317741590783  0.5201862629864173  1.0000
  C   C14       1.0  0.06342575465246636  0.0012659226492861594  0.6255599849525273  1.0000
  C   C15       1.0  0.9863629544543124  0.258399941860052  0.2959270858037226  1.0000
  N   N3        1.0  0.9656418040990319  0.32813979170607954  0.20611295376799  1.0000
  H   H5        1.0  0.08598033704166985  0.23116948380739033  0.9300416327301916  1.0000
  H   H6        1.0  0.9793566082831691  0.9693919474895523  0.33192422944922734  1.0000
  H   H7        1.0  0.07892297627693279  0.7024956919337642  0.8315205170088105  1.0000
  C   C16       1.0  0.06601808089789536  0.57788213223641  0.25636019720303316  1.0000
  C   C17       1.0  0.002388759966617692  0.4976958667378457  0.19466223145945552  1.0000
  C   C18       1.0  0.0023887034690448523  0.4976959591857737  0.06378009182416666  1.0000
  C   C19       1.0  0.06601801004060005  0.5778822029120991  0.9918506331221846  1.0000
  C   C20       1.0  0.12959481480411505  0.6580020180103665  0.053547790230561006  1.0000
  C   C21       1.0  0.1295948034794876  0.6580019956536224  0.18444008881680096  1.0000
  H   H8        1.0  0.9525130943953128  0.4348420820675164  0.24748313378667258  1.0000
  H   H9        1.0  0.9525130752702954  0.43484214993435044  0.0189791047942951  1.0000
  H   H10       1.0  0.1794769930502551  0.7208640851913122  0.0007712517253937137  1.0000
  H   H11       1.0  0.1794769482239671  0.7208640346489996  0.22919561903616414  1.0000
  Zn  Zn1       1.0  0.9678579302635957  0.5778838497725307  0.6241072527496433  1.0000
  Zn  Zn2       1.0  0.1641696185624335  0.5778797597689922  0.6241030193724795  1.0000
  C   C22       1.0  0.06605121675654504  0.5721384333236553  0.8528074754722692  1.0000
  C   C23       1.0  0.06597846464853645  0.5836269953408285  0.3954029257662707  1.0000
  C   C24       1.0  0.06440114301518851  0.8412088174855552  0.6200197772788655  1.0000
  C   C25       1.0  0.06762848200854665  0.314554878958917  0.6281906847753365  1.0000
  O   O1        1.0  0.1404644702085267  0.5855471817337694  0.44206530748939965  1.0000
  O   O2        1.0  0.1405612469317645  0.5702140550413718  0.8061415164860772  1.0000
  O   O3        1.0  0.13922778723182347  0.7874917931325438  0.6181638083552303  1.0000
  O   O4        1.0  0.14179786285744145  0.3682694539578353  0.6300429217609826  1.0000
  O   O5        1.0  0.9902296189770339  0.7874941555866533  0.6181673503560028  1.0000
  O   O6        1.0  0.9915630680667665  0.5702181497184575  0.8061449976660506  1.0000
  O   O7        1.0  0.9914662917108173  0.5855512261683714  0.442067282874181  1.0000
  O   O8        1.0  0.992799684419204  0.368273488080165  0.6300449909998911  1.0000
