data_image0
_chemical_formula_structural       NC8NH4C6NCH9C6NCOH5Zn2C4O8
_chemical_formula_sum              "N4 C26 H18 O9 Zn2"
_cell_length_a       13.859017124695912
_cell_length_b       9.273386996610926
_cell_length_c       9.27373355559583
_cell_angle_alpha    86.07967468279998
_cell_angle_beta     90.01104731116409
_cell_angle_gamma    89.39861590222965

_space_group_name_H-M_alt    "P 1"
_space_group_IT_number       1

loop_
  _space_group_symop_operation_xyz
  'x, y, z'

loop_
  _atom_site_type_symbol
  _atom_site_label
  _atom_site_symmetry_multiplicity
  _atom_site_fract_x
  _atom_site_fract_y
  _atom_site_fract_z
  _atom_site_occupancy
  N   N1        1.0  0.8974155152283476  0.5617738293501455  0.407691065199127  1.0000
  C   C1        1.0  0.825218600146043  0.5383034667424911  0.3515719599240643  1.0000
  C   C2        1.0  0.7354099105846998  0.5091097594806989  0.2817670047579999  1.0000
  C   C3        1.0  0.6476036160493825  0.5375706524632728  0.3498180523731427  1.0000
  C   C4        1.0  0.5601795820812691  0.5091109795201666  0.2817664235069228  1.0000
  C   C5        1.0  0.560744303161336  0.45218268664087624  0.14564285659510334  1.0000
  C   C6        1.0  0.6483673029720103  0.4238311858486851  0.07785375594236332  1.0000
  C   C7        1.0  0.7356096786064442  0.45218034899977455  0.14564403867822318  1.0000
  C   C8        1.0  0.46997875489121  0.5383043882780565  0.35157146043898435  1.0000
  N   N2        1.0  0.39746663853840386  0.5617741497554729  0.4076908486834298  1.0000
  H   H1        1.0  0.6473077055649353  0.5816353531534126  0.45518095302483624  1.0000
  H   H2        1.0  0.4935992860804529  0.42978286293354134  0.0920792293117005  1.0000
  H   H3        1.0  0.6486626749413619  0.3798564747921658  0.9727042317233232  1.0000
  H   H4        1.0  0.8030555340844867  0.4297784345462809  0.092081413966951  1.0000
  C   C9        1.0  0.1504128657554127  0.13812762331657513  0.4083991733524256  1.0000
  C   C10       1.0  0.16734779889728027  0.22020372951995282  0.2780888382085428  1.0000
  C   C11       1.0  0.17519774994803106  0.1543012543098845  0.14777045139004708  1.0000
  C   C12       1.0  0.16623144077783517  0.003964712699466199  0.14443046133065568  1.0000
  C   C13       1.0  0.15099687395114517  0.9209208317286827  0.27428812692533944  1.0000
  C   C14       1.0  0.14447857729167435  0.9854093980359019  0.4069952706611797  1.0000
  N   N3        1.0  0.17326556689520678  0.9329969163174487  0.011421522895211254  1.0000
  C   C15       1.0  0.18933169635367197  0.00938298389664905  0.8707817788980966  1.0000
  H   H5        1.0  0.170138857997165  0.4028135227986598  0.645011534296899  1.0000
  H   H6        1.0  0.17226911323311844  0.33683063670634583  0.2763206832565799  1.0000
  H   H7        1.0  0.187360539836658  0.22185200375369302  0.049874867039261014  1.0000
  H   H8        1.0  0.1464424107163913  0.8044953413414672  0.27201455892121323  1.0000
  H   H9        1.0  0.18002455909244944  0.8578173890692141  0.7580187762325628  1.0000
  H   H10       1.0  0.16644409933760596  0.8206618855281699  0.014410089858562626  1.0000
  H   H11       1.0  0.12951413283059643  0.08768757387353139  0.8457412497101562  1.0000
  H   H12       1.0  0.2591705213319442  0.06693727844250663  0.8710143136273948  1.0000
  H   H13       1.0  0.19175937138399868  0.9310300652942646  0.7854610499827261  1.0000
  C   C16       1.0  0.14742235412226257  0.5572232170274363  0.9844777343107642  1.0000
  C   C17       1.0  0.05879717641145677  0.5489428425058219  0.05844295641444263  1.0000
  C   C18       1.0  0.9709676078187722  0.5523537363559823  0.9834878584318386  1.0000
  C   C19       1.0  0.9717046534172485  0.5687344228347335  0.8321129805917136  1.0000
  C   C20       1.0  0.05889405275004634  0.5748620592028477  0.7569473336522778  1.0000
  C   C21       1.0  0.14746910540705938  0.5663138021358393  0.8309167037810198  1.0000
  N   N4        1.0  0.8820339003256642  0.5472937853303591  0.06351076778465004  1.0000
  C   C22       1.0  0.7955685069852809  0.48086064855521243  0.01683846260006705  1.0000
  O   O1        1.0  0.7955958477591676  0.40451410094692436  0.9096141366775927  1.0000
  H   H14       1.0  0.3740951759676221  0.6573973682189247  0.08062509341947122  1.0000
  H   H15       1.0  0.9049993798412529  0.5783396762448791  0.7714824814638273  1.0000
  H   H16       1.0  0.3009406327764846  0.6276852013561647  0.5457087052554486  1.0000
  H   H17       1.0  0.8814196811795476  0.5856527326476553  0.16686620579613431  1.0000
  H   H18       1.0  0.7295343339331185  0.4929595026618498  0.0772392846440606  1.0000
  Zn  Zn1       1.0  0.041719498162650526  0.5617701595329068  0.40769933619015086  1.0000
  Zn  Zn2       1.0  0.2531627310456237  0.5617661781799129  0.40769441776078663  1.0000
  C   C23       1.0  0.1474983701159378  0.5588482840502795  0.6709311184396067  1.0000
  C   C24       1.0  0.1473861553046898  0.5646898754107752  0.14446277389579126  1.0000
  C   C25       1.0  0.1455950165670281  0.8251934413366555  0.40151753165760784  1.0000
  C   C26       1.0  0.14928944884670425  0.2983429856774691  0.41387644038819316  1.0000
  O   O2        1.0  0.22761565566554598  0.5671879494400986  0.19815335857236827  1.0000
  O   O3        1.0  0.22774939864952537  0.5563460954786266  0.6172363877212446  1.0000
  O   O4        1.0  0.22621133497515022  0.7714231944963509  0.3996830077885569  1.0000
  O   O5        1.0  0.2291536471104183  0.3521108595832949  0.4157066304292911  1.0000
  O   O6        1.0  0.06572850994264634  0.7714254781323728  0.3996871235157411  1.0000
  O   O7        1.0  0.0672665614687071  0.556350111564426  0.6172404237321214  1.0000
  O   O8        1.0  0.06713281880529554  0.5671918966436  0.1981556619212945  1.0000
  O   O9        1.0  0.06867081032446065  0.35211479762872366  0.4157090418480771  1.0000
