data_image0
_chemical_formula_structural       NC10NC3NCH9C13OH12C13NH9Zn2C4O8
_chemical_formula_sum              "N4 C44 H30 O9 Zn2"
_cell_length_a       19.437513618241372
_cell_length_b       10.29915010939255
_cell_length_c       10.298528502251457
_cell_angle_alpha    85.52101086159662
_cell_angle_beta     90.34428338018773
_cell_angle_gamma    89.50394211810362

_space_group_name_H-M_alt    "P 1"
_space_group_IT_number       1

loop_
  _space_group_symop_operation_xyz
  'x, y, z'

loop_
  _atom_site_type_symbol
  _atom_site_label
  _atom_site_symmetry_multiplicity
  _atom_site_fract_x
  _atom_site_fract_y
  _atom_site_fract_z
  _atom_site_occupancy
  N   N1        1.0  0.6476413506488113  0.41107768711434356  0.5750597801936248  1.0000
  C   C1        1.0  0.5887050961525339  0.4280901905151351  0.5720787012034587  1.0000
  C   C2        1.0  0.5152609777424315  0.44934574620660017  0.5683783623957734  1.0000
  C   C3        1.0  0.47351548918868824  0.3481528207548792  0.5567455129103953  1.0000
  C   C4        1.0  0.3976237172901254  0.358221228019385  0.5495204783414314  1.0000
  C   C5        1.0  0.3580368232596048  0.4390495183873262  0.6152489844631217  1.0000
  C   C6        1.0  0.2818559139323049  0.4304439968169421  0.6068061908868936  1.0000
  C   C7        1.0  0.2487406558509004  0.30908835299091963  0.6114836209885779  1.0000
  C   C8        1.0  0.1770069251432168  0.30271899714554196  0.6043164158330416  1.0000
  C   C9        1.0  0.1374179126471524  0.41723241858030624  0.5928341883604127  1.0000
  C   C10       1.0  0.0635697626612182  0.4105249251675713  0.5854989638890751  1.0000
  N   N2        1.0  0.004200948010692701  0.4051326903884293  0.5796019017148213  1.0000
  C   C11       1.0  0.169816641273514  0.5382771658745071  0.5889022140287923  1.0000
  C   C12       1.0  0.24153473524454513  0.5449005068019213  0.5961313783878082  1.0000
  C   C13       1.0  0.38670702840688853  0.5313046519893272  0.7051548177534588  1.0000
  N   N3        1.0  0.44368122250705433  0.5945302522322182  0.6847306169606391  1.0000
  C   C14       1.0  0.4875208222070175  0.5853149070894879  0.5716113573252655  1.0000
  H   H1        1.0  0.4959148704513012  0.25309451543554107  0.5446489936531338  1.0000
  H   H2        1.0  0.3729196097527035  0.2887278529696444  0.4912141641711236  1.0000
  H   H3        1.0  0.27820606188865116  0.21916531273859086  0.6225306501924361  1.0000
  H   H4        1.0  0.1524289739821679  0.20848416272670753  0.6082300602362805  1.0000
  H   H5        1.0  0.1396661155029158  0.6275442965276048  0.5801678045290255  1.0000
  H   H6        1.0  0.265631096287247  0.6395481777502545  0.5922021584163459  1.0000
  H   H7        1.0  0.35670246185302706  0.5516569522696246  0.789526478010482  1.0000
  H   H8        1.0  0.5302619845280228  0.6556301726933917  0.577356094897796  1.0000
  H   H9        1.0  0.45784694126722186  0.6134631318914793  0.4809466125086437  1.0000
  C   C15       1.0  0.8259892878713118  0.0267043318364486  0.5774758711424057  1.0000
  C   C16       1.0  0.8247184761952548  0.014874339630385872  0.7142871233274031  1.0000
  C   C17       1.0  0.8240142904382034  0.8917427711116008  0.7833888429879643  1.0000
  C   C18       1.0  0.8245858367958718  0.7796213312655843  0.7139219942791186  1.0000
  C   C19       1.0  0.8258596066326623  0.7894958382803694  0.5771971893026533  1.0000
  C   C20       1.0  0.8265557806065682  0.9134975717194592  0.5097731610119014  1.0000
  C   C21       1.0  0.8226639193733704  0.8802098620326221  0.928029425764143  1.0000
  C   C22       1.0  0.780356564470478  0.7880116589225687  0.9955201989272944  1.0000
  C   C23       1.0  0.7790630727899348  0.7772409923572939  0.131626552397489  1.0000
  C   C24       1.0  0.8205048086991474  0.8575019114504877  0.20270838163502736  1.0000
  C   C25       1.0  0.8621539177030132  0.9506645035747262  0.13585187327588966  1.0000
  C   C26       1.0  0.8634633798744046  0.961610700988863  0.9997454345026673  1.0000
  C   C27       1.0  0.8176682360154257  0.8483065656129225  0.3487763628350554  1.0000
  O   O1        1.0  0.7662445830677443  0.9323255557049177  0.3883668573340655  1.0000
  H   H10       1.0  0.8279410219787524  0.2563342851588559  0.31923252746388786  1.0000
  H   H11       1.0  0.8233196129019438  0.10165150178780945  0.7672843560104292  1.0000
  H   H12       1.0  0.8249770217660891  0.6844727329393864  0.7667669460595083  1.0000
  H   H13       1.0  0.8275363305858495  0.9218303154764064  0.40431320300315465  1.0000
  H   H14       1.0  0.8263032356329574  0.46581922410118765  0.5246074442008892  1.0000
  H   H15       1.0  0.7474551580013991  0.7255709767589397  0.9429860142625722  1.0000
  H   H16       1.0  0.7455937558681186  0.706450682255349  0.18158190723514667  1.0000
  H   H17       1.0  0.8937880066143888  0.01467900886180806  0.18911621068888618  1.0000
  H   H18       1.0  0.8969557278849848  0.03284576010733289  0.9505971148511402  1.0000
  H   H19       1.0  0.8682747799265427  0.8752770270466764  0.38959594429663413  1.0000
  H   H20       1.0  0.8064864780588279  0.7464576417293409  0.38645112110073065  1.0000
  H   H21       1.0  0.7664969299108285  0.9226081642891515  0.48500855592772507  1.0000
  C   C28       1.0  0.8259342054214459  0.4082264302853144  0.19591972231132357  1.0000
  C   C29       1.0  0.7544050700436246  0.4292825952319994  0.19251121419055983  1.0000
  C   C30       1.0  0.7181678018076375  0.4398115619667027  0.07363774666381273  1.0000
  C   C31       1.0  0.754384577216171  0.42901805637928153  0.957251345725099  1.0000
  C   C32       1.0  0.8259146897585551  0.40797375573281625  0.9587532850362539  1.0000
  C   C33       1.0  0.8612314746055392  0.3977099373202326  0.07854842674081386  1.0000
  C   C34       1.0  0.6425471197355954  0.4620664399482892  0.0710419418418533  1.0000
  C   C35       1.0  0.6121554815243675  0.5505112370611431  0.15153889660190956  1.0000
  C   C36       1.0  0.540973819059139  0.5714127066738393  0.14897600521806265  1.0000
  C   C37       1.0  0.49923662921901  0.5042446428124681  0.0661199170839144  1.0000
  C   C38       1.0  0.5289491837771186  0.41604752153369756  0.9857182330046994  1.0000
  C   C39       1.0  0.600123518227803  0.3950518019469762  0.9880444550815182  1.0000
  C   C40       1.0  0.4259550247227177  0.5258134264754393  0.06360206348573971  1.0000
  N   N4        1.0  0.3670415561735812  0.5431533971207934  0.06157791395706202  1.0000
  H   H22       1.0  0.9610393643863007  0.36763107201751033  0.4097473690558393  1.0000
  H   H23       1.0  0.72661843544366  0.43575419654412934  0.2826706855309651  1.0000
  H   H24       1.0  0.7268561705134348  0.43882500838478866  0.865193306079385  1.0000
  H   H25       1.0  0.9163603610898916  0.3814862571660924  0.08044054904462872  1.0000
  H   H26       1.0  0.9611466978192303  0.3690191960816479  0.7542040105790173  1.0000
  H   H27       1.0  0.6435288117444117  0.6047607883563975  0.21522168522996307  1.0000
  H   H28       1.0  0.5185330692155532  0.6401826363315382  0.21137233790323037  1.0000
  H   H29       1.0  0.4971000812881642  0.3632561801068494  0.9214571281350242  1.0000
  H   H30       1.0  0.6218889470434387  0.32516285416956897  0.9261867101734153  1.0000
  Zn  Zn1       1.0  0.750536754245979  0.4093585974837009  0.5763780495215036  1.0000
  Zn  Zn2       1.0  0.901305552164348  0.4068411060447825  0.5782943074977678  1.0000
  C   C41       1.0  0.8259177213044777  0.40284745750875395  0.8145633028369978  1.0000
  C   C42       1.0  0.8259262312145684  0.41335385724303075  0.34010920199144623  1.0000
  C   C43       1.0  0.8258807096836102  0.6453138186105432  0.5720739812175559  1.0000
  C   C44       1.0  0.8259631916521001  0.17088593654444595  0.5825985927744681  1.0000
  O   O2        1.0  0.8831395290330329  0.4141136274739574  0.3892277205448771  1.0000
  O   O3        1.0  0.8831344527296832  0.40017598984596997  0.7668988062133826  1.0000
  O   O4        1.0  0.8831037940445187  0.5959706552729407  0.5710869530567961  1.0000
  O   O5        1.0  0.8831701362719317  0.21831897222928753  0.5850394756572865  1.0000
  O   O6        1.0  0.7686721186884038  0.5978807321597084  0.5696328807012272  1.0000
  O   O7        1.0  0.7687027771069129  0.4020876271900453  0.7654446640334767  1.0000
  O   O8        1.0  0.7687078535036694  0.4160252200747074  0.3877720167853653  1.0000
  O   O9        1.0  0.7687384607388427  0.22023055550824908  0.583583869281195  1.0000
