data_image0
_chemical_formula_structural       NC9NC3NH7C7OCH10C8NH11Zn2C4O8
_chemical_formula_sum              "N4 C32 H28 O9 Zn2"
_cell_length_a       16.053384444249904
_cell_length_b       10.30083208314754
_cell_length_c       9.275652972338536
_cell_angle_alpha    85.92062759394871
_cell_angle_beta     90.23845156290304
_cell_angle_gamma    89.16926536021816

_space_group_name_H-M_alt    "P 1"
_space_group_IT_number       1

loop_
  _space_group_symop_operation_xyz
  'x, y, z'

loop_
  _atom_site_type_symbol
  _atom_site_label
  _atom_site_symmetry_multiplicity
  _atom_site_fract_x
  _atom_site_fract_y
  _atom_site_fract_z
  _atom_site_occupancy
  N   N1        1.0  0.7773841648962262  0.39444953084434303  0.40633882372793195  1.0000
  C   C1        1.0  0.7262703063605407  0.3731500758045662  0.32327936085745923  1.0000
  C   C2        1.0  0.6627499265575095  0.346685402458905  0.22009926220059925  1.0000
  C   C3        1.0  0.6757388753442551  0.33375428925239087  0.07501381971386253  1.0000
  C   C4        1.0  0.5988649330726212  0.3080879041911384  0.017031367043089038  1.0000
  C   C5        1.0  0.5422588743332839  0.30678804705315055  0.12986913331840097  1.0000
  C   C6        1.0  0.4515587237844481  0.28290183365674837  0.11850605110671308  1.0000
  C   C7        1.0  0.3961118324479884  0.32622453255413864  0.22270955574516124  1.0000
  C   C8        1.0  0.3105175773291032  0.3035700562062351  0.21182578557481646  1.0000
  C   C9        1.0  0.254301913607699  0.3486529590220615  0.3186610162425403  1.0000
  N   N2        1.0  0.2091211107944614  0.3848932456471552  0.4045398106136944  1.0000
  C   C10       1.0  0.2796442571017965  0.2374809965504139  0.09675376878815589  1.0000
  C   C11       1.0  0.3340836071089822  0.1942792844594028  0.9927851328624753  1.0000
  C   C12       1.0  0.4194699991465096  0.21676545767631294  0.003228830736506256  1.0000
  N   N3        1.0  0.5819827607875169  0.33048729019606005  0.2536661371812339  1.0000
  H   H1        1.0  0.7342243824190058  0.3420512086910932  0.01772620241958278  1.0000
  H   H2        1.0  0.5861186273577446  0.29365445533211787  0.9047503475114769  1.0000
  H   H3        1.0  0.4188100755765019  0.3792001092514239  0.3112514342019266  1.0000
  H   H4        1.0  0.2135826116422086  0.219460804826626  0.0874019709429161  1.0000
  H   H5        1.0  0.3100937932321753  0.14294379226145562  0.9039831015233963  1.0000
  H   H6        1.0  0.4602391055660542  0.1808456390495974  0.9219505017712052  1.0000
  H   H7        1.0  0.5562649903280006  0.3334610631843291  0.35661106346370164  1.0000
  C   C13       1.0  0.9932805340061367  0.008334954051454575  0.40559043809422973  1.0000
  C   C14       1.0  0.9694497254993124  0.017400265204891255  0.2593323567084628  1.0000
  C   C15       1.0  0.9564798023058743  0.9048418361320781  0.1861248569509475  1.0000
  C   C16       1.0  0.9693879198076111  0.7821404160835724  0.2589517829185408  1.0000
  C   C17       1.0  0.9932327770351737  0.7709977611471271  0.4053006366569486  1.0000
  C   C18       1.0  0.004844184802878185  0.8846353265367114  0.47784467495451877  1.0000
  C   C19       1.0  0.933365228970937  0.9156795266334321  0.02856116362770189  1.0000
  O   O1        1.0  0.006996008869391668  0.9194714771033311  0.9458561384952926  1.0000
  C   C20       1.0  0.9861346043947931  0.9296725896784198  0.7976516340492941  1.0000
  H   H8        1.0  0.003352310708917283  0.3322681518587183  0.461173785540933  1.0000
  H   H9        1.0  0.9608949570667086  0.1119294291481614  0.2017464752678586  1.0000
  H   H10       1.0  0.9607899646979807  0.6955215551022519  0.20110464075233936  1.0000
  H   H11       1.0  0.0232305949145315  0.8768807291343753  0.5906409773599104  1.0000
  H   H12       1.0  0.039126070049662065  0.5427356090091143  0.6809333147400436  1.0000
  H   H13       1.0  0.8949047523562984  0.005657584076782736  0.004625373681209413  1.0000
  H   H14       1.0  0.8949367501613166  0.830565428426171  0.004294737669780388  1.0000
  H   H15       1.0  0.044544555664364674  0.9325382849499233  0.7340985493128622  1.0000
  H   H16       1.0  0.9505189587749084  0.021188868835013256  0.7677422094649072  1.0000
  H   H17       1.0  0.950531870682248  0.843704427140442  0.767384977960889  1.0000
  C   C21       1.0  0.9914022104070189  0.38717648395271653  0.9821834772280895  1.0000
  C   C22       1.0  0.9373616914283761  0.4733158163630213  0.04852348650436844  1.0000
  C   C23       1.0  0.8898985159513157  0.5668871338587074  0.9659860334541981  1.0000
  C   C24       1.0  0.8953506381425359  0.5730929863373417  0.8151755325458331  1.0000
  C   C25       1.0  0.9475569010583502  0.48705205858995115  0.7474350671724882  1.0000
  C   C26       1.0  0.995111098847262  0.392156242714753  0.8287075614554664  1.0000
  C   C27       1.0  0.8314227367523304  0.6570217957650466  0.03873964023362263  1.0000
  C   C28       1.0  0.7457699532125941  0.5954696965590007  0.059908037480028486  1.0000
  N   N4        1.0  0.6892621240854607  0.6844772097659626  0.12831802159226213  1.0000
  H   H18       1.0  0.052476620440971004  0.19289007651040918  0.27860959307891275  1.0000
  H   H19       1.0  0.9333992396772347  0.4697906366768807  0.16536890244792546  1.0000
  H   H20       1.0  0.8584062682693482  0.6438562682670169  0.749719678832902  1.0000
  H   H21       1.0  0.9490606144218813  0.49259587850714565  0.6304068067871178  1.0000
  H   H22       1.0  0.1093644190086358  0.2706906868581505  0.5577965663398439  1.0000
  H   H23       1.0  0.8575107007656654  0.6792617921431578  0.1453365579616568  1.0000
  H   H24       1.0  0.824747461249684  0.7509224162343966  0.9724223057303174  1.0000
  H   H25       1.0  0.7197257693915903  0.574272099033545  0.95289338618868  1.0000
  H   H26       1.0  0.7516565196964267  0.5023336355066934  0.12811154996134255  1.0000
  H   H27       1.0  0.6304240846706595  0.6421719906245149  0.13298260765529624  1.0000
  H   H28       1.0  0.7087694386382217  0.6905450389679022  0.23535419232721355  1.0000
  Zn  Zn1       1.0  0.9019741558328783  0.3916883790507488  0.40582798464165787  1.0000
  Zn  Zn2       1.0  0.08453114867332401  0.3876438872402096  0.4050624339368535  1.0000
  C   C29       1.0  0.9944084833111111  0.38604175845981226  0.6686983640247943  1.0000
  C   C30       1.0  0.9920988152289325  0.3932921029774825  0.14219218703982903  1.0000
  C   C31       1.0  0.9932123294421201  0.626804565974292  0.399611750274267  1.0000
  C   C32       1.0  0.9932949072384104  0.15252773712561396  0.41127887848893274  1.0000
  O   O2        1.0  0.06161202990486836  0.39380403176670287  0.19560205140041265  1.0000
  O   O3        1.0  0.06345180036332398  0.38245917188983986  0.6147070498524021  1.0000
  O   O4        1.0  0.06248496363318058  0.5768782133260995  0.39741770881973393  1.0000
  O   O5        1.0  0.06257880386660418  0.19938500036424633  0.4128912846195684  1.0000
  O   O6        1.0  0.9239264383418228  0.5799472673082673  0.3979991342126063  1.0000
  O   O7        1.0  0.9248932746337041  0.38552978559095163  0.6152883978003605  1.0000
  O   O8        1.0  0.9230534966410762  0.39687459002043335  0.19618166644578064  1.0000
  O   O9        1.0  0.9240202710734445  0.20245554996572948  0.41347100773211226  1.0000
