data_image0
_chemical_formula_structural       NC8NH4C7NH5C6IH3Zn2C4O8
_chemical_formula_sum              "N3 C25 H12 I1 Zn2 O8"
_cell_length_a       11.048855714531884
_cell_length_b       9.275154477615127
_cell_length_c       9.275433903346869
_cell_angle_alpha    86.39417635758981
_cell_angle_beta     89.9656283209417
_cell_angle_gamma    89.43371274831733

_space_group_name_H-M_alt    "P 1"
_space_group_IT_number       1

loop_
  _space_group_symop_operation_xyz
  'x, y, z'

loop_
  _atom_site_type_symbol
  _atom_site_label
  _atom_site_symmetry_multiplicity
  _atom_site_fract_x
  _atom_site_fract_y
  _atom_site_fract_z
  _atom_site_occupancy
  N   N1        1.0  0.12752620713205934  0.5610505226833953  0.4167307551840307  1.0000
  C   C1        1.0  0.07354599039874943  0.5022086862646356  0.3315352197516723  1.0000
  C   C2        1.0  0.006195327468336176  0.42879084710053816  0.2252352390705754  1.0000
  C   C3        1.0  0.8784785736027154  0.4287906576394853  0.22523534001169154  1.0000
  C   C4        1.0  0.8163632679002777  0.3562138501401595  0.12015335830048302  1.0000
  C   C5        1.0  0.8804388096548161  0.2842111247944463  0.015902494701644846  1.0000
  C   C6        1.0  0.00684502297473411  0.28421101492940615  0.015902516923226976  1.0000
  C   C7        1.0  0.06962080591650555  0.3562139482648854  0.1201533309817242  1.0000
  C   C8        1.0  0.8098025687065482  0.5022087610456551  0.33153520691964  1.0000
  N   N2        1.0  0.7547600929000389  0.5610505656537479  0.41673078413713016  1.0000
  H   H1        1.0  0.7183092305778936  0.355305013135347  0.11883683758461251  1.0000
  H   H2        1.0  0.8320450393310412  0.22836413625696944  0.93504371341575  1.0000
  H   H3        1.0  0.05624707965052124  0.22836424565492375  0.9350437132409724  1.0000
  H   H4        1.0  0.1676912425844055  0.35530496702206893  0.11883711243843555  1.0000
  C   C9        1.0  0.4446522596955781  0.13764349750321236  0.41506323531615896  1.0000
  C   C10       1.0  0.41150604612862507  0.21947140679540578  0.2880081999742363  1.0000
  C   C11       1.0  0.36851139989142295  0.15215337996114808  0.16768345880060154  1.0000
  C   C12       1.0  0.35795470802108786  0.0020893586346981716  0.172996668226844  1.0000
  C   C13       1.0  0.3922243688508641  0.9190229753751328  0.2971555852967853  1.0000
  C   C14       1.0  0.437645747039619  0.9844466149244715  0.41841075978446396  1.0000
  C   C15       1.0  0.3337558973345054  0.23754681635749095  0.03909707891428505  1.0000
  N   N3        1.0  0.3058221154622196  0.3061875834518093  0.9357465665907267  1.0000
  H   H5        1.0  0.46791081156560677  0.21807620574432662  0.7687825004459914  1.0000
  H   H6        1.0  0.4164513328154964  0.3363853369873977  0.28373249959867564  1.0000
  H   H7        1.0  0.3242657255810102  0.9489793284868406  0.08051954761429059  1.0000
  H   H8        1.0  0.38586906960538797  0.8025540305531614  0.29702876699528247  1.0000
  H   H9        1.0  0.4584430351723923  0.6881967826111488  0.6554127290644403  1.0000
  C   C16       1.0  0.44139866955830215  0.5565448231689443  0.9935668582332108  1.0000
  C   C17       1.0  0.5529097593768841  0.5538455466863481  0.06701105433770804  1.0000
  C   C18       1.0  0.6618550356025632  0.5644327245475995  0.9909341662307704  1.0000
  C   C19       1.0  0.6610329406394309  0.5780557986764385  0.8404423756959362  1.0000
  C   C20       1.0  0.5515905335153111  0.5785756718543058  0.7654690428134471  1.0000
  C   C21       1.0  0.4408993183959464  0.5655452200687621  0.8399070609577093  1.0000
  I   I1        1.0  0.8276527349878655  0.5625186772825097  0.10371099491947655  1.0000
  H   H10       1.0  0.15218188541698563  0.6419643858656527  0.0913941362099957  1.0000
  H   H11       1.0  0.7453713964171798  0.5868696626191925  0.7812662867302733  1.0000
  H   H12       1.0  0.24562752672152713  0.6169916837385847  0.5556349046689008  1.0000
  Zn  Zn1       1.0  0.3085323990304256  0.561046755468763  0.41673906692784835  1.0000
  Zn  Zn2       1.0  0.5737540190204391  0.5610426323255486  0.41673421905255936  1.0000
  C   C22       1.0  0.4410385407072802  0.5581000172719246  0.6799079596216849  1.0000
  C   C23       1.0  0.4412507584194031  0.5639911912255846  0.1535654749352362  1.0000
  C   C24       1.0  0.43896728015722697  0.8243217127747602  0.412035557305678  1.0000
  C   C25       1.0  0.44332194275567344  0.29776776424695095  0.42143794723275835  1.0000
  O   O1        1.0  0.5418513927083759  0.5664824053831632  0.2072606076964827  1.0000
  O   O2        1.0  0.5417349884247848  0.5556045816156001  0.6262087283127662  1.0000
  O   O3        1.0  0.5400610616387596  0.770581983522826  0.40989987415218043  1.0000
  O   O4        1.0  0.5435252289706343  0.35150501264258627  0.4235693538517551  1.0000
  O   O5        1.0  0.33876109857309916  0.7705843751546219  0.4099039321227338  1.0000
  O   O6        1.0  0.34043501106577634  0.5556087047260903  0.626212716295885  1.0000
  O   O7        1.0  0.34055141686778684  0.5664864598243307  0.20726286293780127  1.0000
  O   O8        1.0  0.342225253146681  0.3515090579200011  0.4235717170924682  1.0000
