data_image0
_chemical_formula_structural       NC6NC2H4C7NH3C6IH3Zn2C4O8
_chemical_formula_sum              "N3 C25 H10 I1 Zn2 O8"
_cell_length_a       14.927258858638513
_cell_length_b       9.275154477615127
_cell_length_c       9.275433903346869
_cell_angle_alpha    86.39417635758981
_cell_angle_beta     89.9656234702017
_cell_angle_gamma    89.43371000992973

_space_group_name_H-M_alt    "P 1"
_space_group_IT_number       1

loop_
  _space_group_symop_operation_xyz
  'x, y, z'

loop_
  _atom_site_type_symbol
  _atom_site_label
  _atom_site_symmetry_multiplicity
  _atom_site_fract_x
  _atom_site_fract_y
  _atom_site_fract_z
  _atom_site_occupancy
  N   N1        1.0  0.8345721408595344  0.561050465411278  0.4167306450764572  1.0000
  C   C1        1.0  0.7570456498623213  0.561050437019321  0.4167306555483423  1.0000
  C   C2        1.0  0.6606131416329938  0.5610505515666848  0.4167306061624658  1.0000
  C   C3        1.0  0.6137617474821044  0.536017285840154  0.2899964149544376  1.0000
  C   C4        1.0  0.5200504360395709  0.5360173100526324  0.28999628164599023  1.0000
  C   C5        1.0  0.4727970787235637  0.5610503742467845  0.41673062408117845  1.0000
  C   C6        1.0  0.37636450350268463  0.5610504887970489  0.4167305746893908  1.0000
  N   N2        1.0  0.2988380125054715  0.5610504604050921  0.4167305851612759  1.0000
  C   C7        1.0  0.5196484058829014  0.5860836399762159  0.5434648152832956  1.0000
  C   C8        1.0  0.6133597173254349  0.5860836157637372  0.5434649485917431  1.0000
  H   H1        1.0  0.6496143184789367  0.5165399923449356  0.1913899406647817  1.0000
  H   H2        1.0  0.48451066175681934  0.5165401897943627  0.19138993651441835  1.0000
  H   H3        1.0  0.4837959018899339  0.6055609243047806  0.642071397578256  1.0000
  H   H4        1.0  0.6488994909600417  0.6055608345029381  0.6420714040984565  1.0000
  C   C9        1.0  0.0693024441874377  0.1376434241228386  0.4150630942399216  1.0000
  C   C10       1.0  0.044768285918671574  0.21947133509867722  0.2880080621348631  1.0000
  C   C11       1.0  0.012944516565275963  0.15215331044831085  0.16768332515983264  1.0000
  C   C12       1.0  0.005130666316038866  0.002089289658082636  0.17299653561697914  1.0000
  C   C13       1.0  0.030496377573414852  0.9190229046578073  0.29715544934034743  1.0000
  C   C14       1.0  0.06411636493690168  0.9844465418999904  0.4184106193924415  1.0000
  C   C15       1.0  0.9872191950675577  0.23754674861004135  0.039096948667533896  1.0000
  N   N3        1.0  0.9665431735329856  0.30618751712324155  0.9357464390718243  1.0000
  H   H5        1.0  0.08651795483781566  0.21807613118254765  0.7687823570984608  1.0000
  H   H6        1.0  0.9801947614824751  0.9489792612214398  0.08051941829429345  1.0000
  H   H7        1.0  0.07951009784639212  0.68819670853028  0.6554125866414775  1.0000
  C   C16       1.0  0.06689420243733918  0.5565447499538354  0.9935667174747005  1.0000
  C   C17       1.0  0.14943246041378944  0.5538454678070901  0.06701090268968059  1.0000
  C   C18       1.0  0.23007155495640397  0.564432640134522  0.9909340039437882  1.0000
  C   C19       1.0  0.22946305685761847  0.5780557143051194  0.8404422134892346  1.0000
  C   C20       1.0  0.14845599605792192  0.5785755930420571  0.765468891294248  1.0000
  C   C21       1.0  0.06652459278572148  0.5655451468790171  0.8399069202479623  1.0000
  I   I1        1.0  0.3527916656290697  0.5625185844478231  0.10371081644166691  1.0000
  H   H8        1.0  0.8528217762830287  0.6419643273411626  0.09139402369469374  1.0000
  H   H9        1.0  0.2918886795615516  0.586869573963944  0.7812661162875756  1.0000
  H   H10       1.0  0.9219883538971211  0.6169916204675707  0.5556347830282471  1.0000
  Zn  Zn1       1.0  0.9685492707265997  0.5610466890025283  0.41673893914427573  1.0000
  Zn  Zn2       1.0  0.16486096068750025  0.5610425523875173  0.41673406536900415  1.0000
  C   C22       1.0  0.06662764233054833  0.5580999440751087  0.6799078188983418  1.0000
  C   C23       1.0  0.06678472159772131  0.5639911180179891  0.15356533419116936  1.0000
  C   C24       1.0  0.06509453707711699  0.8243216396831521  0.41203541678460204  1.0000
  C   C25       1.0  0.06831777043924858  0.29776769093415023  0.42143780628643224  1.0000
  O   O1        1.0  0.14124728060460168  0.5664823270656093  0.20726045712835037  1.0000
  O   O2        1.0  0.1411611205033577  0.5556045033039588  0.626208577756001  1.0000
  O   O3        1.0  0.13992211368239116  0.7705819052962111  0.40989972375888134  1.0000
  O   O4        1.0  0.14248622042170353  0.3515049342400106  0.42356920312016555  1.0000
  O   O5        1.0  0.990923944000844  0.7705843071529361  0.40990380138720406  1.0000
  O   O6        1.0  0.9921629402421638  0.5556086366393787  0.6262125853968914  1.0000
  O   O7        1.0  0.9922491014673109  0.5664863917317067  0.20726273202744008  1.0000
  O   O8        1.0  0.9934880412967255  0.35150898974235495  0.42357158601864975  1.0000
