data_image0
_chemical_formula_structural       NC9NC3NH7C8H6C6SCNH5Zn2C4O8
_chemical_formula_sum              "N4 C31 H18 S1 Zn2 O8"
_cell_length_a       16.053384444249904
_cell_length_b       9.27514070457351
_cell_length_c       10.302218930750287
_cell_angle_alpha    85.68853581932115
_cell_angle_beta     89.81672032337951
_cell_angle_gamma    89.76770978158073

_space_group_name_H-M_alt    "P 1"
_space_group_IT_number       1

loop_
  _space_group_symop_operation_xyz
  'x, y, z'

loop_
  _atom_site_type_symbol
  _atom_site_label
  _atom_site_symmetry_multiplicity
  _atom_site_fract_x
  _atom_site_fract_y
  _atom_site_fract_z
  _atom_site_occupancy
  N   N1        1.0  0.7934768831913857  0.5588530049430559  0.5682372685571715  1.0000
  C   C1        1.0  0.7425724016312827  0.5357614497393222  0.4933607946712151  1.0000
  C   C2        1.0  0.6793120818430998  0.5070699383649524  0.4003459478604907  1.0000
  C   C3        1.0  0.6928293251181  0.4936845826537824  0.2696201226146211  1.0000
  C   C4        1.0  0.6160292346917006  0.4655767623810914  0.21732078905213872  1.0000
  C   C5        1.0  0.5589362478619179  0.46337813205463907  0.31895979542520725  1.0000
  C   C6        1.0  0.4681242911280952  0.4369346171073145  0.30865930640599215  1.0000
  C   C7        1.0  0.4125258996585078  0.48433584604279517  0.40264175409756775  1.0000
  C   C8        1.0  0.3268260558319231  0.4592566541739256  0.3927763634835204  1.0000
  C   C9        1.0  0.2704595263203495  0.508594524077115  0.48913420477754493  1.0000
  N   N2        1.0  0.2251574556795818  0.5482552142900159  0.5665908207990118  1.0000
  C   C10       1.0  0.2959978330808508  0.3866519119023406  0.28894196585073595  1.0000
  C   C11       1.0  0.3505884980547491  0.33938343569915763  0.1951714125133388  1.0000
  C   C12       1.0  0.4360812167746076  0.36427871590922534  0.20463993616656653  1.0000
  N   N3        1.0  0.5982941769029002  0.48886129962032554  0.4305385328004381  1.0000
  H   H1        1.0  0.7516131895185796  0.5032797615165785  0.21803882174842107  1.0000
  H   H2        1.0  0.6036621324483811  0.4503038120757786  0.11614061032366374  1.0000
  H   H3        1.0  0.43520366369220426  0.5425590092155483  0.4825426349803113  1.0000
  H   H4        1.0  0.2298551417272173  0.366707663033764  0.2804691243404589  1.0000
  H   H5        1.0  0.3266312493903407  0.2829829129115018  0.1150406391163461  1.0000
  H   H6        1.0  0.4769542397295167  0.32494302337657976  0.13132821832752817  1.0000
  H   H7        1.0  0.5721600259163523  0.4914736878448336  0.5232778138405381  1.0000
  C   C13       1.0  0.0067906369787285046  0.13017553039239327  0.5665156829203734  1.0000
  C   C14       1.0  0.018660889323340868  0.21334110823539354  0.4480351149233037  1.0000
  C   C15       1.0  0.03779612258217169  0.14757125266646076  0.3341802382813066  1.0000
  C   C16       1.0  0.04551897064682353  0.9974514259691828  0.3366190280927242  1.0000
  C   C17       1.0  0.032581492331827284  0.912731481055799  0.45297579248484743  1.0000
  C   C18       1.0  0.011851569532892686  0.9769214404101532  0.5683235937471272  1.0000
  C   C19       1.0  0.06578989111514799  0.9299032560283954  0.21913071614997914  1.0000
  C   C20       1.0  0.0827624162137095  0.8733332365202319  0.12076779749958866  1.0000
  H   H8        1.0  0.02047910386421115  0.20630408425296265  0.8854843785323228  1.0000
  H   H9        1.0  0.015078366781469784  0.3302544401462406  0.44407199075643794  1.0000
  H   H10       1.0  0.047384203011811454  0.2140882451066597  0.2443872747720912  1.0000
  H   H11       1.0  0.036780416575830976  0.7960211864369976  0.4527993904396837  1.0000
  H   H12       1.0  0.01787096383162678  0.6782199774161414  0.7832440154374857  1.0000
  H   H13       1.0  0.09766065042560124  0.8236749468837438  0.03442581172306868  1.0000
  C   C21       1.0  0.009243854165279288  0.5536179199514875  0.18614489476791407  1.0000
  C   C22       1.0  0.08729344009429929  0.4845151178528705  0.18948093789668796  1.0000
  C   C23       1.0  0.1260910864078526  0.4496772559096416  0.07416287803798016  1.0000
  C   C24       1.0  0.0874954729142643  0.4843315712881034  0.9543255351731226  1.0000
  C   C25       1.0  0.009398358000974659  0.5534790358534305  0.9486943448469338  1.0000
  C   C26       1.0  0.9706869356261778  0.5876901543536485  0.06517020139619567  1.0000
  S   S1        1.0  0.22586829966665078  0.3620240983601998  0.07986051703992425  1.0000
  C   C27       1.0  0.18125528997423646  0.18791256259362332  0.09191546276173246  1.0000
  N   N4        1.0  0.15198253887429258  0.07377503378647823  0.09981860162850699  1.0000
  H   H14       1.0  0.9795520613869058  0.5799838821413654  0.5122054919244841  1.0000
  H   H15       1.0  0.11822107877693466  0.45722082106686623  0.2813775680388617  1.0000
  H   H16       1.0  0.11856159004332589  0.4569113969492258  0.8659541523629329  1.0000
  H   H17       1.0  0.9104899565592659  0.640965202810845  0.06175054443720618  1.0000
  H   H18       1.0  0.8622341453828265  0.683952757990417  0.7308529028749615  1.0000
  Zn  Zn1       1.0  0.9180505478645022  0.5557908650701705  0.5677696220774324  1.0000
  Zn  Zn2       1.0  0.10058369949244562  0.55130560634859  0.5670690538268892  1.0000
  C   C28       1.0  0.009332976983285278  0.5477617605051028  0.8045439178543297  1.0000
  C   C29       1.0  0.009303274528611686  0.5593364810328052  0.33029488171876453  1.0000
  C   C30       1.0  0.010889626355094831  0.8168694851645332  0.5628079563157384  1.0000
  C   C31       1.0  0.007746552531895158  0.2902270257140234  0.5720309090195881  1.0000
  O   O1        1.0  0.07859355871456741  0.5595472602121847  0.37840705873643393  1.0000
  O   O2        1.0  0.07858112477678936  0.5441456861623861  0.7558996496686232  1.0000
  O   O3        1.0  0.07983720530675709  0.7614535998562519  0.5606961571888959  1.0000
  O   O4        1.0  0.07733741594031684  0.3422393583801461  0.5736104541266192  1.0000
  O   O5        1.0  0.9412967691270328  0.7648571145707843  0.5612282220099458  1.0000
  O   O6        1.0  0.9400406989323734  0.5475509330684389  0.7564316489596847  1.0000
  O   O7        1.0  0.940053132308947  0.5629524571600357  0.3789374969049504  1.0000
  O   O8        1.0  0.9387969894893815  0.3456445449983392  0.5741409896169221  1.0000
