data_image0
_chemical_formula_structural       NC9NC5H8C7NC2NH8C7NC2NH7Zn2C4O8
_chemical_formula_sum              "N6 C36 H23 Zn2 O8"
_cell_length_a       17.807436237873137
_cell_length_b       9.273995741505848
_cell_length_c       9.27399911348925
_cell_angle_alpha    85.20991922917831
_cell_angle_beta     89.04204372891122
_cell_angle_gamma    88.97465214434487

_space_group_name_H-M_alt    "P 1"
_space_group_IT_number       1

loop_
  _space_group_symop_operation_xyz
  'x, y, z'

loop_
  _atom_site_type_symbol
  _atom_site_label
  _atom_site_symmetry_multiplicity
  _atom_site_fract_x
  _atom_site_fract_y
  _atom_site_fract_z
  _atom_site_occupancy
  N   N1        1.0  0.7205557436280902  0.5542732744776604  0.40007835918308476  1.0000
  C   C1        1.0  0.6597993230036986  0.515313582941759  0.3877315809671753  1.0000
  C   C2        1.0  0.5842250135376938  0.4668520172988335  0.3723735296116533  1.0000
  C   C3        1.0  0.5660761997059728  0.3885713682384788  0.2554786149290982  1.0000
  C   C4        1.0  0.4926970803665585  0.3413959362674479  0.24047480344976105  1.0000
  C   C5        1.0  0.436415948070301  0.3720823624124754  0.3423288253412424  1.0000
  C   C6        1.0  0.3584332523364393  0.32207381795296586  0.32647518747405546  1.0000
  C   C7        1.0  0.2966481536268326  0.41258562332845194  0.35552394372180857  1.0000
  C   C8        1.0  0.223125488059561  0.3651846667727159  0.3405347927012514  1.0000
  C   C9        1.0  0.1603048715060425  0.45868070989446785  0.36999522700685383  1.0000
  N   N2        1.0  0.1098100522378926  0.5338450497450524  0.39368059306339886  1.0000
  C   C10       1.0  0.21080294664131347  0.22698575969293922  0.2964680183483419  1.0000
  C   C11       1.0  0.2717306230322338  0.13645865647996658  0.26740990035777834  1.0000
  C   C12       1.0  0.3451322356408889  0.18342355402696217  0.28217288510615557  1.0000
  C   C13       1.0  0.4552583168073943  0.45090972894022624  0.4594687254510226  1.0000
  C   C14       1.0  0.528689725242876  0.49787528148319143  0.4742990310137707  1.0000
  H   H1        1.0  0.6085865288593529  0.3642918298930926  0.17571462633946  1.0000
  H   H2        1.0  0.4797551628396722  0.28259076535108174  0.1481704953377334  1.0000
  H   H3        1.0  0.3056191121891652  0.5205078884843524  0.3878803789029226  1.0000
  H   H4        1.0  0.15417433494308438  0.18930270630483492  0.28460118433423376  1.0000
  H   H5        1.0  0.26207028846727987  0.02945819972772901  0.23372149529078426  1.0000
  H   H6        1.0  0.39145218665835957  0.11062039378050327  0.26082543975189143  1.0000
  H   H7        1.0  0.4134572273233127  0.47457856119873854  0.5406700095756818  1.0000
  H   H8        1.0  0.5421707679924204  0.5580453353070629  0.5654489221032724  1.0000
  C   C15       1.0  0.91294345456998  0.12069688674752821  0.3958619553797088  1.0000
  C   C16       1.0  0.9265378793959844  0.2043544436560163  0.2651132791493631  1.0000
  C   C17       1.0  0.9468362825594046  0.13926245169238416  0.13966797283289822  1.0000
  C   C18       1.0  0.9543818620104879  0.9884043884113759  0.14138377367013644  1.0000
  C   C19       1.0  0.93921396454211  0.9035622058117913  0.2709626772760396  1.0000
  C   C20       1.0  0.9174294184544982  0.9674098421762379  0.3979093532613289  1.0000
  C   C21       1.0  0.9768149326104906  0.9213957726841707  0.006892976181736678  1.0000
  N   N3        1.0  0.9799597504318082  0.9966554683042125  0.8756919272654927  1.0000
  C   C22       1.0  0.0027719451128309634  0.89835996086634  0.7845432876188758  1.0000
  C   C23       1.0  0.013250381205683219  0.766229476406052  0.8609918483510337  1.0000
  N   N4        1.0  0.9969583713113713  0.7808701079608077  0.0008095803901146927  1.0000
  H   H9        1.0  0.8513852896515539  0.3867232917924335  0.6045958075869384  1.0000
  H   H10       1.0  0.923284229158182  0.3214095448202694  0.2605116882669978  1.0000
  H   H11       1.0  0.9577425144801391  0.20774242204415325  0.041442617912006874  1.0000
  H   H12       1.0  0.9417510718877974  0.7868495663339616  0.27292113451666916  1.0000
  H   H13       1.0  0.9176641453591469  0.6672801088069205  0.6379217431957047  1.0000
  H   H14       1.0  0.011440539034424768  0.9219270739491089  0.6693287087738384  1.0000
  H   H15       1.0  0.031830777397609415  0.6665148537973327  0.8179004123232625  1.0000
  H   H16       1.0  0.0007775045307170127  0.6993954746815382  0.0851131227820805  1.0000
  C   C24       1.0  0.91650318320753  0.547675061640855  0.9730218829707336  1.0000
  C   C25       1.0  0.9750974111844157  0.4755469953227196  0.050370424637674834  1.0000
  C   C26       1.0  0.028665415958702756  0.39341615177661304  0.9806391704017071  1.0000
  C   C27       1.0  0.02507572011724668  0.380599344576975  0.8313692043161094  1.0000
  C   C28       1.0  0.9676247987730184  0.45510273967822834  0.7524493266653877  1.0000
  C   C29       1.0  0.9138696880189001  0.5404317235955163  0.8207494110327329  1.0000
  C   C30       1.0  0.08226134469132962  0.2913507485030329  0.7595177558585986  1.0000
  N   N5        1.0  0.14489153830538187  0.2376769246084398  0.8264010024730153  1.0000
  C   C31       1.0  0.1808693382436561  0.16363264478155903  0.7263059663969353  1.0000
  C   C32       1.0  0.13988013039183866  0.172970755380452  0.6014555799455503  1.0000
  N   N6        1.0  0.07786241187661047  0.2532285190812438  0.6225008062736759  1.0000
  H   H17       1.0  0.8375150282052427  0.7338419701063716  0.24135316673765095  1.0000
  H   H18       1.0  0.9785225235222614  0.47965865851372025  0.16647602975953116  1.0000
  H   H19       1.0  0.07243124458487338  0.3379942112502057  0.04451451840645105  1.0000
  H   H20       1.0  0.9657462169321419  0.4512993761618005  0.6363654342875029  1.0000
  H   H21       1.0  0.7971106722778035  0.6279503494405541  0.537110140379196  1.0000
  H   H22       1.0  0.23371112399012325  0.10597330289555007  0.7436684508050654  1.0000
  H   H23       1.0  0.15404208670812047  0.12407452199897695  0.502409542275077  1.0000
  Zn  Zn1       1.0  0.832886081230681  0.5483742119133261  0.3982404404771882  1.0000
  Zn  Zn2       1.0  0.9974795973128339  0.5397322590846259  0.3955303496292679  1.0000
  C   C33       1.0  0.9143353698513216  0.5360575938464077  0.6604969305202151  1.0000
  C   C34       1.0  0.9160321152456646  0.5520506006217609  0.133273976060438  1.0000
  C   C35       1.0  0.9165954769321121  0.8074124614743121  0.3917706115753402  1.0000
  C   C36       1.0  0.9137719425846759  0.28069400317527937  0.40200036869538036  1.0000
  O   O1        1.0  0.9783363687783619  0.5502332058091172  0.18602756186044522  1.0000
  O   O2        1.0  0.9769537821188229  0.5313148623721893  0.6056860303413025  1.0000
  O   O3        1.0  0.9787780004842944  0.7504373811187641  0.3886876439992546  1.0000
  O   O4        1.0  0.9765120946391169  0.3311107012493575  0.40302584092734706  1.0000
  O   O5        1.0  0.8538535277367406  0.7569957726993031  0.3907449500963416  1.0000
  O   O6        1.0  0.8520293187838099  0.5378749867220138  0.6077432636655544  1.0000
  O   O7        1.0  0.8534119106181592  0.5567932947449945  0.18808305967919758  1.0000
  O   O8        1.0  0.8515876360850304  0.33767077894912867  0.4050814469384778  1.0000
