data_image0
_chemical_formula_structural       NC8NC6H8C6NCOC6H10C7OC6H9Zn2C4O8
_chemical_formula_sum              "N3 C44 H27 O10 Zn2"
_cell_length_a       17.457602349358154
_cell_length_b       10.29965916528486
_cell_length_c       10.299382801718286
_cell_angle_alpha    85.58981362736998
_cell_angle_beta     92.85617812018302
_cell_angle_gamma    91.70433465767697

_space_group_name_H-M_alt    "P 1"
_space_group_IT_number       1

loop_
  _space_group_symop_operation_xyz
  'x, y, z'

loop_
  _atom_site_type_symbol
  _atom_site_label
  _atom_site_symmetry_multiplicity
  _atom_site_fract_x
  _atom_site_fract_y
  _atom_site_fract_z
  _atom_site_occupancy
  N   N1        1.0  0.7229574981317035  0.4525549325019036  0.6270060060327333  1.0000
  C   C1        1.0  0.6618735720160309  0.4066287028654901  0.6163751746361743  1.0000
  C   C2        1.0  0.5858825839914228  0.34950218919278786  0.6031599641115983  1.0000
  C   C3        1.0  0.5273460328095279  0.38967681206878635  0.6780700005402269  1.0000
  C   C4        1.0  0.45279337892605226  0.3346686304475437  0.6654699232542942  1.0000
  C   C5        1.0  0.3906654410634978  0.37708715847773466  0.7448024504456621  1.0000
  C   C6        1.0  0.3161332311299228  0.3955450968231089  0.6890457968085786  1.0000
  C   C7        1.0  0.2575966229164127  0.43553581741731207  0.7640637244593824  1.0000
  C   C8        1.0  0.1816268092849193  0.45459919564167284  0.7060918397932248  1.0000
  N   N2        1.0  0.12055999447381081  0.4699197721906414  0.6594825934496698  1.0000
  C   C9        1.0  0.27310000291945574  0.45731182841410606  0.8953468974443899  1.0000
  C   C10       1.0  0.3468474998834365  0.43924293923796315  0.9514912732828507  1.0000
  C   C11       1.0  0.4053724431959931  0.39943235228074303  0.8769311207592743  1.0000
  C   C12       1.0  0.4380660897146296  0.23880816045482847  0.5765266836110281  1.0000
  C   C13       1.0  0.496590891791951  0.19891228448624187  0.5020167378068288  1.0000
  C   C14       1.0  0.570358689562032  0.2540329390697251  0.5151667950415247  1.0000
  H   H1        1.0  0.5396900052026957  0.4648817239067311  0.7447248065582427  1.0000
  H   H2        1.0  0.3038060503669051  0.38055664410817713  0.5870176743841371  1.0000
  H   H3        1.0  0.2282326897070835  0.4882046407014047  0.9541922199382153  1.0000
  H   H4        1.0  0.3586613200109863  0.4557889540049532  0.053146657113948725  1.0000
  H   H5        1.0  0.4618461560349784  0.3844491864436643  0.9230319967992002  1.0000
  H   H6        1.0  0.38157555316499914  0.19347158076657744  0.5658599315408166  1.0000
  H   H7        1.0  0.484761167071504  0.12482359517841846  0.4341639967715392  1.0000
  H   H8        1.0  0.6152257903169464  0.2222705385659145  0.4568323021500853  1.0000
  C   C15       1.0  0.921694952432674  0.07987384183097591  0.6431236123826982  1.0000
  C   C16       1.0  0.9222439579559645  0.08915340445244713  0.506354143276478  1.0000
  C   C17       1.0  0.9236518205727972  0.9770415710013532  0.4376343891767021  1.0000
  C   C18       1.0  0.9223884489115218  0.8539694770528904  0.5066623261100927  1.0000
  C   C19       1.0  0.9218298555019991  0.8425911272448295  0.643376789130431  1.0000
  C   C20       1.0  0.9217562265834889  0.9561629551455068  0.7108578121971403  1.0000
  N   N3        1.0  0.9230345426980616  0.9900614465384089  0.2975195585291908  1.0000
  C   C21       1.0  0.9590130473086534  0.9004891252259506  0.22073318952829404  1.0000
  O   O1        1.0  0.01192884482932577  0.8299902087115236  0.2720328703975079  1.0000
  C   C22       1.0  0.936741105367621  0.8932942002548718  0.08054947221565367  1.0000
  C   C23       1.0  0.8658088616222814  0.9400450418655509  0.028410458358409947  1.0000
  C   C24       1.0  0.845277001418654  0.9321108238934184  0.8962123841372486  1.0000
  C   C25       1.0  0.8949630165766836  0.8771780151293374  0.8148152358434304  1.0000
  C   C26       1.0  0.9652201728568756  0.8296099141950182  0.8655229058129331  1.0000
  C   C27       1.0  0.9860449386411283  0.8372005726201844  0.9976404315958076  1.0000
  H   H9        1.0  0.91992708431802  0.26960148137323436  0.9010548609790661  1.0000
  H   H10       1.0  0.9221665353001204  0.18374937226705848  0.45252551103685856  1.0000
  H   H11       1.0  0.920493816278375  0.7670863663124097  0.45370290996214946  1.0000
  H   H12       1.0  0.9213432638729515  0.9481445195722007  0.8162924768594477  1.0000
  H   H13       1.0  0.9011534867846832  0.07523026562430135  0.24979245645162923  1.0000
  H   H14       1.0  0.8255929360329101  0.9809973914318483  0.0896070988058737  1.0000
  H   H15       1.0  0.79060788289793  0.9681501080069708  0.856961661829852  1.0000
  H   H16       1.0  0.8789168567342092  0.87110126962271  0.7125483839954394  1.0000
  H   H17       1.0  0.003621225925453779  0.7867822024104387  0.8024143283493608  1.0000
  H   H18       1.0  0.04090662364334688  0.7999831690962713  0.0346882036194025  1.0000
  C   C28       1.0  0.9218389289241778  0.46116262186888163  0.2618866516533065  1.0000
  C   C29       1.0  0.0024387995339822896  0.46554616934035  0.26716675433859566  1.0000
  C   C30       1.0  0.04309082542031531  0.46626905113677397  0.15277127885674902  1.0000
  C   C31       1.0  0.002251850700059065  0.46556604068312213  0.03190592437312435  1.0000
  C   C32       1.0  0.921685861248693  0.46130238905170967  0.02461372958275487  1.0000
  C   C33       1.0  0.8819466789203276  0.4587806952518192  0.1402079768161557  1.0000
  C   C34       1.0  0.12819405685852803  0.4722814397180675  0.15809483884949316  1.0000
  O   O2        1.0  0.1620081751497744  0.5344657342437464  0.06634923456420028  1.0000
  C   C35       1.0  0.17493705093864187  0.40774119188116553  0.26739787792393505  1.0000
  C   C36       1.0  0.24705700766930175  0.461349595338276  0.3044061538429945  1.0000
  C   C37       1.0  0.2919295212959392  0.4003768893082611  0.4063058140823668  1.0000
  C   C38       1.0  0.26562145753895217  0.2849269232897215  0.47148458604107374  1.0000
  C   C39       1.0  0.1945185811758866  0.22991600932932754  0.43453590792466784  1.0000
  C   C40       1.0  0.14942744706499841  0.29050046357038717  0.3327203309829374  1.0000
  H   H19       1.0  0.7697352636324538  0.4549018758888046  0.45908751883252363  1.0000
  H   H20       1.0  0.033694285784811706  0.46986162257670855  0.3603195171810598  1.0000
  H   H21       1.0  0.033514721109606745  0.46710275457613704  0.943508080906038  1.0000
  H   H22       1.0  0.8198102516319966  0.45540210912703794  0.13533318044144949  1.0000
  H   H23       1.0  0.26837246717873753  0.5509515629264072  0.2552399028266555  1.0000
  H   H24       1.0  0.34716168140141046  0.4426719323530093  0.4347025928416386  1.0000
  H   H25       1.0  0.30046465615676343  0.2378224921251193  0.5502585691090809  1.0000
  H   H26       1.0  0.1744518336258558  0.13991267932072418  0.4844327722926953  1.0000
  H   H27       1.0  0.09511593156940616  0.24496353373554294  0.3042114880318508  1.0000
  Zn  Zn1       1.0  0.837696987801125  0.45756256885445357  0.6363855448354778  1.0000
  Zn  Zn2       1.0  0.005820486537685411  0.46490149011339255  0.6501136834903958  1.0000
  C   C41       1.0  0.9217121908012392  0.45610228279325105  0.8804401582276091  1.0000
  C   C42       1.0  0.9218071197052222  0.4663634949357136  0.4060593480177421  1.0000
  C   C43       1.0  0.921801455239684  0.6984202327314539  0.6381535312740466  1.0000
  C   C44       1.0  0.9217177976080912  0.22404398222489033  0.648346039006539  1.0000
  O   O3        1.0  0.985598434826121  0.4708883721549351  0.45965477714539604  1.0000
  O   O4        1.0  0.9855227210101442  0.457146497221002  0.8372636945255091  1.0000
  O   O5        1.0  0.9855939428207829  0.6528212690280346  0.6416154592596637  1.0000
  O   O6        1.0  0.9855271556675009  0.2752136071158777  0.6553029103565404  1.0000
  O   O7        1.0  0.8579902612990122  0.6472504493489684  0.6311963132777627  1.0000
  O   O8        1.0  0.857919039774762  0.4515772378115555  0.8268444798168035  1.0000
  O   O9        1.0  0.857994753947043  0.46531906720627036  0.4492340010470661  1.0000
  O   O10       1.0  0.8579234747641062  0.26964429289623704  0.6448822316213417  1.0000
