data_image0
_chemical_formula_structural       NC8NC6H8C6FH5C6FH5Zn2C4O8
_chemical_formula_sum              "N2 C30 H18 F2 Zn2 O8"
_cell_length_a       17.457602349358154
_cell_length_b       9.275642734913903
_cell_length_c       9.275646106892307
_cell_angle_alpha    84.86962330666421
_cell_angle_beta     92.91404810424501
_cell_angle_gamma    92.2944494432906

_space_group_name_H-M_alt    "P 1"
_space_group_IT_number       1

loop_
  _space_group_symop_operation_xyz
  'x, y, z'

loop_
  _atom_site_type_symbol
  _atom_site_label
  _atom_site_symmetry_multiplicity
  _atom_site_fract_x
  _atom_site_fract_y
  _atom_site_fract_z
  _atom_site_occupancy
  N   N1        1.0  0.7312346457831698  0.6301947397648096  0.47197867096676727  1.0000
  C   C1        1.0  0.6698691608356436  0.5793022587279391  0.46022842664583474  1.0000
  C   C2        1.0  0.593527951687504  0.5159982474954599  0.44562172165960895  1.0000
  C   C3        1.0  0.5352618044326798  0.5597276745746316  0.52882093247833  1.0000
  C   C4        1.0  0.4603719620827012  0.49876956048619636  0.5148948966279152  1.0000
  C   C5        1.0  0.3985296188543234  0.5449385723733167  0.603006150232313  1.0000
  C   C6        1.0  0.3240885128964381  0.5661148017331117  0.5410112817209856  1.0000
  C   C7        1.0  0.2658212364461083  0.6096386296882039  0.6243306647137614  1.0000
  C   C8        1.0  0.18994537314459228  0.6315141107577824  0.5598728998062994  1.0000
  N   N2        1.0  0.1289540558851576  0.6490949085783919  0.5080490313723263  1.0000
  C   C9        1.0  0.2815045015716005  0.6322503162443343  0.7702098279632832  1.0000
  C   C10       1.0  0.3551633890615594  0.6115016242078477  0.8326350657164783  1.0000
  C   C11       1.0  0.41342025782553243  0.5681724020224934  0.7498242055266225  1.0000
  C   C12       1.0  0.4450324570116548  0.3933464315143565  0.416177812681652  1.0000
  C   C13       1.0  0.5032886873614779  0.3499218558552704  0.3334228736903792  1.0000
  C   C14       1.0  0.5773945556388594  0.4109983005599284  0.34796000587687215  1.0000
  H   H1        1.0  0.5480849277504938  0.6424723127351848  0.602795573677976  1.0000
  H   H2        1.0  0.3116332308197591  0.55069152730213  0.4276369901094166  1.0000
  H   H3        1.0  0.23684557548876442  0.6658616945973734  0.8355676261112162  1.0000
  H   H4        1.0  0.3671145899936495  0.6286597118504205  0.9455928854578491  1.0000
  H   H5        1.0  0.4698203261894155  0.5509725580117966  0.8010825863215447  1.0000
  H   H6        1.0  0.3882639132366089  0.3431094370859398  0.4043868109033488  1.0000
  H   H7        1.0  0.49098611984280605  0.26843166729114376  0.258115250315495  1.0000
  H   H8        1.0  0.6220481997440181  0.37641473176187423  0.2831711820184215  1.0000
  C   C15       1.0  0.9277249306977019  0.2159816323458421  0.4904195758982927  1.0000
  C   C16       1.0  0.9128507898602011  0.29997642849343187  0.3586802465862411  1.0000
  C   C17       1.0  0.905215844493443  0.23572062065382404  0.22804270441333618  1.0000
  C   C18       1.0  0.9123972914951978  0.08679084833376849  0.22684268954255857  1.0000
  C   C19       1.0  0.9258840848507065  0.0011621404725741214  0.3564371225238263  1.0000
  C   C20       1.0  0.9324710617765419  0.06329709416198015  0.48962126641515197  1.0000
  F   F1        1.0  0.8917263528885523  0.3185087822374224  0.10197247983605881  1.0000
  H   H9        1.0  0.007076565743928009  0.295464542077606  0.8200096211800696  1.0000
  H   H10       1.0  0.9089320783034263  0.41643525984180974  0.3564776348390212  1.0000
  H   H11       1.0  0.9067786667681799  0.03713765076188502  0.1253890143555758  1.0000
  H   H12       1.0  0.9293491972495427  0.8852091321784272  0.35278458003735613  1.0000
  H   H13       1.0  0.9828305138295698  0.7659345998516907  0.713079612462775  1.0000
  C   C21       1.0  0.9300339649879399  0.6441506982156178  0.06616763211714648  1.0000
  C   C22       1.0  0.00038623349825805833  0.6625684978077657  0.14458707684217953  1.0000
  C   C23       1.0  0.0697113739975446  0.6673945189681898  0.07542634234960599  1.0000
  C   C24       1.0  0.06990093949886611  0.653742694069932  0.9270870955197495  1.0000
  C   C25       1.0  0.0007647211725647568  0.6377875701635531  0.8468424906455814  1.0000
  C   C26       1.0  0.9301619804835629  0.6351280509078182  0.9138732216304771  1.0000
  F   F2        1.0  0.13699026504525166  0.6836135177171163  0.15294439190437825  1.0000
  H   H14       1.0  0.7514253453061792  0.5184838769383427  0.16329195966097432  1.0000
  H   H15       1.0  0.001788896780910319  0.6698080688971362  0.260631135922732  1.0000
  H   H16       1.0  0.12372001853745294  0.6569036378823514  0.8736518715181764  1.0000
  H   H17       1.0  0.0024761197311240486  0.6309748068739487  0.7310747768220685  1.0000
  H   H18       1.0  0.8092794821388051  0.5564246772565961  0.6281701005835236  1.0000
  Zn  Zn1       1.0  0.8460078559462801  0.6356449625773257  0.48239613524807784  1.0000
  Zn  Zn2       1.0  0.014180767000453235  0.643632731311866  0.4976433952092149  1.0000
  C   C27       1.0  0.9301039000248535  0.6310859803556146  0.7536439777941055  1.0000
  C   C28       1.0  0.9300865695826328  0.6481936195967816  0.22639585911377602  1.0000
  C   C29       1.0  0.9315691088112331  0.9031974692964502  0.484020142340462  1.0000
  C   C30       1.0  0.9286212937131533  0.376080393768847  0.49601976794935315  1.0000
  O   O1        1.0  0.993924932214358  0.6525754834706817  0.2859561774201833  1.0000
  O   O2        1.0  0.9939048794678328  0.6327655641740448  0.7056555625341443  1.0000
  O   O3        1.0  0.9950871939854773  0.8524989759755568  0.48793232835601463  1.0000
  O   O4        1.0  0.9927425603521527  0.43284208041588196  0.503679298163684  1.0000
  O   O5        1.0  0.8674460052054274  0.8464356107491281  0.4763602270828741  1.0000
  O   O6        1.0  0.8662637003817297  0.6267039331105326  0.694083382668335  1.0000
  O   O7        1.0  0.8662837526355676  0.646513820604978  0.2743822622681599  1.0000
  O   O8        1.0  0.8651013807287694  0.42678040607928386  0.4921054912355547  1.0000
