data_image0
_chemical_formula_structural       NC9NC4H8C7NC2NH8C6SCNH5Zn2C4O8
_chemical_formula_sum              "N5 C33 H21 S1 Zn2 O8"
_cell_length_a       16.32274767691083
_cell_length_b       9.273995741505848
_cell_length_c       10.302218930750287
_cell_angle_alpha    85.6945973122959
_cell_angle_beta     89.48597253194706
_cell_angle_gamma    90.10890436374608

_space_group_name_H-M_alt    "P 1"
_space_group_IT_number       1

loop_
  _space_group_symop_operation_xyz
  'x, y, z'

loop_
  _atom_site_type_symbol
  _atom_site_label
  _atom_site_symmetry_multiplicity
  _atom_site_fract_x
  _atom_site_fract_y
  _atom_site_fract_z
  _atom_site_occupancy
  N   N1        1.0  0.7802646368050543  0.5680774379826288  0.560639289631097  1.0000
  C   C1        1.0  0.7276222094313967  0.515411572873409  0.5062453662388218  1.0000
  C   C2        1.0  0.6621874239279488  0.4500001583840849  0.4386876784594871  1.0000
  C   C3        1.0  0.6732188318646538  0.360529016999748  0.34627649260194926  1.0000
  C   C4        1.0  0.5935988003425458  0.31686662487633277  0.30118289836669754  1.0000
  C   C5        1.0  0.5350381166230268  0.3807655279200082  0.3671838278333117  1.0000
  C   C6        1.0  0.4450022245575112  0.3638776216075845  0.34974390293804286  1.0000
  C   C7        1.0  0.38984029213541516  0.43835592109784316  0.4266648571681315  1.0000
  C   C8        1.0  0.305047674507912  0.4239227048216436  0.41175959272804324  1.0000
  C   C9        1.0  0.2494871581286122  0.5006906043411508  0.4910444711776813  1.0000
  N   N2        1.0  0.2048353707085962  0.5623993631651993  0.5547760858258517  1.0000
  C   C10       1.0  0.2743632492195929  0.33489073465598823  0.3198095962926417  1.0000
  C   C11       1.0  0.32820383817256876  0.26051108705904374  0.24299087068824443  1.0000
  C   C12       1.0  0.4128353943802907  0.2745555392263572  0.25749449963042914  1.0000
  C   C13       1.0  0.5733350568369394  0.473937183950826  0.46341450982639687  1.0000
  H   H1        1.0  0.7319236457283231  0.3257379095552595  0.3103398828961206  1.0000
  H   H2        1.0  0.5848774883189836  0.2437419725640131  0.22565516665650742  1.0000
  H   H3        1.0  0.41235764645274764  0.5078603830214838  0.4984474372004506  1.0000
  H   H4        1.0  0.2089022238900917  0.3230007544397979  0.30753097458793577  1.0000
  H   H5        1.0  0.3042941071091165  0.19163655780431577  0.1718591275352288  1.0000
  H   H6        1.0  0.4522700232447746  0.21505660888528258  0.19604485820705594  1.0000
  H   H7        1.0  0.5563564532900995  0.43534193242619806  0.5648071295101622  1.0000
  H   H8        1.0  0.5572194329779886  0.5894888176366744  0.44150713166754074  1.0000
  C   C14       1.0  0.9901036301975569  0.14178226404152697  0.5567930127467144  1.0000
  C   C15       1.0  0.004465761507568276  0.22484538554123049  0.439178289091144  1.0000
  C   C16       1.0  0.026159427681703654  0.15945901267042295  0.3263321826302128  1.0000
  C   C17       1.0  0.034396170277359195  0.008902515132865434  0.3278734784615316  1.0000
  C   C18       1.0  0.018313541699461533  0.9245849802413354  0.4444364071120758  1.0000
  C   C19       1.0  0.9950041666346258  0.9886832381001516  0.5586334379558995  1.0000
  C   C20       1.0  0.05838603120302464  0.9416038119732721  0.20689018524276115  1.0000
  N   N3        1.0  0.06134825179643699  0.015867798110541956  0.08887145177555422  1.0000
  C   C21       1.0  0.08590629487394434  0.9176650661098997  0.006875154780341177  1.0000
  C   C22       1.0  0.0976087952861475  0.7865829817600312  0.0756391843612223  1.0000
  N   N4        1.0  0.08033652999817355  0.8017925461947171  0.20141244827516955  1.0000
  H   H9        1.0  0.9237015087426048  0.4072418434415215  0.7445702451076024  1.0000
  H   H10       1.0  0.0009003039351078673  0.34173762377560646  0.43503997537200756  1.0000
  H   H11       1.0  0.037705351257368624  0.22751878268232129  0.23797355799295783  1.0000
  H   H12       1.0  0.021087973200424992  0.8079854827194519  0.4461973708700848  1.0000
  H   H13       1.0  0.9961165328654329  0.6906027331452942  0.7745291177769276  1.0000
  H   H14       1.0  0.0949508166744608  0.9405824527989423  0.9032350203121581  1.0000
  H   H15       1.0  0.1177223081649299  0.6872087125776708  0.03687244084499186  1.0000
  H   H16       1.0  0.08480317404308102  0.721179814381116  0.2772440376794951  1.0000
  C   C23       1.0  0.9924779047309398  0.5653013401304376  0.17643927223560185  1.0000
  C   C24       1.0  0.06924812228077326  0.4970802965920654  0.17900640710579818  1.0000
  C   C25       1.0  0.10740985210116483  0.46268069165882686  0.06330608364584278  1.0000
  C   C26       1.0  0.06944684385684985  0.4968990319382625  0.9438490135962647  1.0000
  C   C27       1.0  0.9926298761704833  0.565164201285739  0.9389872000121322  1.0000
  C   C28       1.0  0.9545530070143479  0.5989379735537584  0.05584441742456425  1.0000
  S   S1        1.0  0.20555148091837694  0.37615483769773816  0.06802083039271856  1.0000
  C   C29       1.0  0.1616891941870937  0.20151471205144778  0.08049459716233097  1.0000
  N   N5        1.0  0.13290901909566455  0.08703036202036074  0.08867255496626636  1.0000
  H   H17       1.0  0.9632728049737088  0.591331870759203  0.5027923866664161  1.0000
  H   H18       1.0  0.09966879518797  0.4701354123136634  0.270598361054321  1.0000
  H   H19       1.0  0.1000037256058528  0.4698298341788876  0.855171590050174  1.0000
  H   H20       1.0  0.8953427630326622  0.651532949275444  0.053017791045757656  1.0000
  H   H21       1.0  0.847877924521399  0.6939753688251022  0.7225955688112236  1.0000
  Zn  Zn1       1.0  0.9027865646837518  0.5664349966559004  0.5589547853760022  1.0000
  Zn  Zn2       1.0  0.08231338265121435  0.5640299695252431  0.5564712008970165  1.0000
  C   C30       1.0  0.9925660923908537  0.5594455228064015  0.7948368578684939  1.0000
  C   C31       1.0  0.9925358259249313  0.5710212365434966  0.32058923267254014  1.0000
  C   C32       1.0  0.994072611830597  0.8286019558980229  0.5531117542291031  1.0000
  C   C33       1.0  0.991029235214068  0.3018630717655211  0.5623144026158096  1.0000
  O   O1        1.0  0.06068472021107452  0.5720218997676834  0.36802475518351163  1.0000
  O   O2        1.0  0.06067389260498901  0.556618411863001  0.7455159760871903  1.0000
  O   O3        1.0  0.06188950795606532  0.7739656475929642  0.5503212606171921  1.0000
  O   O4        1.0  0.05946904363994321  0.3546746751913722  0.5632193741729816  1.0000
  O   O5        1.0  0.9256308424313389  0.7757902918120598  0.5522066129407364  1.0000
  O   O6        1.0  0.9244152370876982  0.55844478859074  0.7474012629475555  1.0000
  O   O7        1.0  0.9244260641463697  0.5738482265250758  0.3699084809219746  1.0000
  O   O8        1.0  0.9232103875316092  0.3565009916174011  0.5651031972326728  1.0000
