data_image0
_chemical_formula_structural       NC8NH4C6ClH5C6SCH6Zn2C4O8
_chemical_formula_sum              "N2 C25 H15 Cl1 S1 Zn2 O8"
_cell_length_a       13.859017124695912
_cell_length_b       9.276545438789551
_cell_length_c       9.275274088470228
_cell_angle_alpha    86.1334652357246
_cell_angle_beta     89.7257703154182
_cell_angle_gamma    89.40963735980037

_space_group_name_H-M_alt    "P 1"
_space_group_IT_number       1

loop_
  _space_group_symop_operation_xyz
  'x, y, z'

loop_
  _atom_site_type_symbol
  _atom_site_label
  _atom_site_symmetry_multiplicity
  _atom_site_fract_x
  _atom_site_fract_y
  _atom_site_fract_z
  _atom_site_occupancy
  N   N1        1.0  0.9028989635735843  0.5629756330875713  0.4112918187794323  1.0000
  C   C1        1.0  0.8308856787610343  0.5395865201423142  0.35512434975760043  1.0000
  C   C2        1.0  0.7413054017071594  0.5104938768173002  0.2852592372157885  1.0000
  C   C3        1.0  0.6532764338046491  0.5388562448308558  0.3533689322694493  1.0000
  C   C4        1.0  0.5660750752850856  0.5104950969735094  0.28525865872999256  1.0000
  C   C5        1.0  0.5670852136614111  0.453763883894027  0.14901778395743404  1.0000
  C   C6        1.0  0.6549300296892127  0.4255105289015033  0.08117026125553672  1.0000
  C   C7        1.0  0.7419505848912904  0.45376154594440465  0.14901896073726228  1.0000
  C   C8        1.0  0.4756458352792103  0.5395874418410509  0.3551238523655684  1.0000
  N   N2        1.0  0.4029500876425062  0.5629759536027943  0.41129160299453665  1.0000
  H   H1        1.0  0.6526357597689708  0.5827684006208464  0.45882263388686906  1.0000
  H   H2        1.0  0.5001154651544518  0.43144160912886215  0.09540799921747256  1.0000
  H   H3        1.0  0.655569467101596  0.38168805344536816  0.9759301216350217  1.0000
  H   H4        1.0  0.809571705354897  0.43143718022496214  0.09541017383018158  1.0000
  C   C9        1.0  0.15584201169170986  0.13953841198627592  0.41105415468510015  1.0000
  C   C10       1.0  0.15663275176842917  0.22192699708135402  0.2780380072505386  1.0000
  C   C11       1.0  0.14863577993981125  0.15561220290120859  0.14791698330276937  1.0000
  C   C12       1.0  0.13965524849351674  0.006029534654343525  0.14881022679180722  1.0000
  C   C13       1.0  0.14036097204197187  0.9220793550403426  0.279384860595989  1.0000
  C   C14       1.0  0.15001632904268036  0.986402264934026  0.41154175643550417  1.0000
  Cl  Cl1       1.0  0.14841448363815846  0.26067156591431684  0.9833909920846202  1.0000
  H   H5        1.0  0.20446564522557886  0.40464861026109483  0.6376282865751438  1.0000
  H   H6        1.0  0.16116308501161836  0.33862047652830674  0.2751847579484543  1.0000
  H   H7        1.0  0.13304633431586055  0.9543521540399003  0.048140833102393595  1.0000
  H   H8        1.0  0.13565220707759718  0.8057937264687856  0.2767348552897404  1.0000
  H   H9        1.0  0.11692545209009797  0.6898791545230311  0.6445763359878086  1.0000
  C   C15       1.0  0.15431176715479641  0.5589523261980124  0.9880987212083072  1.0000
  C   C16       1.0  0.2361317471147053  0.6097076175664402  0.057476255650217974  1.0000
  C   C17       1.0  0.3125135589840964  0.6719508444047531  0.9774479974209931  1.0000
  C   C18       1.0  0.3083558800938533  0.6835770719102305  0.826894566961268  1.0000
  C   C19       1.0  0.22860528067410324  0.6317302968006899  0.7560134912497483  1.0000
  C   C20       1.0  0.15154655442055076  0.5669883371797302  0.8344971730197407  1.0000
  S   S1        1.0  0.41569373317380354  0.7373280616546023  0.06817395095377177  1.0000
  C   C21       1.0  0.3648568577730749  0.9178125654069018  0.08001005117943705  1.0000
  H   H10       1.0  0.9210659188079638  0.49962170693532487  0.09676936371704882  1.0000
  H   H11       1.0  0.3673131826903191  0.7318902794167419  0.7644244876182925  1.0000
  H   H12       1.0  0.22827036732639328  0.6392010138914177  0.6389583292444891  1.0000
  H   H13       1.0  0.35071728705411775  0.9682034712975428  0.9700769783564273  1.0000
  H   H14       1.0  0.29667905138869366  0.9123959675725085  0.1433725264764727  1.0000
  H   H15       1.0  0.41710603305933414  0.985091889965057  0.13504808755152278  1.0000
  Zn  Zn1       1.0  0.04720291856976577  0.5629719548270258  0.411300080984228  1.0000
  Zn  Zn2       1.0  0.25864616731061973  0.5629679815482431  0.41129515402034167  1.0000
  C   C22       1.0  0.15210659807595195  0.55972495350655  0.6745064374046172  1.0000
  C   C23       1.0  0.15374478378026413  0.5662168035428219  0.14808894004123285  1.0000
  C   C24       1.0  0.15113128374189633  0.8262724128457897  0.40570677010266004  1.0000
  C   C25       1.0  0.1547200376300728  0.29966761251597096  0.4168886831804617  1.0000
  O   O1        1.0  0.23379615320657865  0.5686470299376529  0.20178124563120717  1.0000
  O   O2        1.0  0.23253577081864796  0.5572906197513325  0.6208099768855448  1.0000
  O   O3        1.0  0.23174710556842065  0.7725310783680197  0.403752344625419  1.0000
  O   O4        1.0  0.23458474658761017  0.3534065806114304  0.4188387698437799  1.0000
  O   O5        1.0  0.07126426713758603  0.7725333557666922  0.4037564651548917  1.0000
  O   O6        1.0  0.07205292071687053  0.5572946288404703  0.6208140215718476  1.0000
  O   O7        1.0  0.07331330917531466  0.5686509723282078  0.20178355762621591  1.0000
  O   O8        1.0  0.07410190227035264  0.35341051371437415  0.41884118988044416  1.0000
