data_image0
_chemical_formula_structural       NC12NC2H8C12NCOCH13C13NH9Zn2C4O8
_chemical_formula_sum              "N4 C45 H30 O9 Zn2"
_cell_length_a       19.240039667572717
_cell_length_b       10.299155265289647
_cell_length_c       10.298528502251457
_cell_angle_alpha    85.52481818200187
_cell_angle_beta     89.99709375093414
_cell_angle_gamma    89.9765233896273

_space_group_name_H-M_alt    "P 1"
_space_group_IT_number       1

loop_
  _space_group_symop_operation_xyz
  'x, y, z'

loop_
  _atom_site_type_symbol
  _atom_site_label
  _atom_site_symmetry_multiplicity
  _atom_site_fract_x
  _atom_site_fract_y
  _atom_site_fract_z
  _atom_site_occupancy
  N   N1        1.0  0.6542041635263619  0.42186788966128597  0.56690425013705  1.0000
  C   C1        1.0  0.5940557946928785  0.4218679736767097  0.5669041681681695  1.0000
  C   C2        1.0  0.519237757529707  0.4218680910179309  0.5669040308160159  1.0000
  C   C3        1.0  0.4827753839871822  0.35736272508340594  0.670345594670442  1.0000
  C   C4        1.0  0.410104657864874  0.3572518060555989  0.6704321762860247  1.0000
  C   C5        1.0  0.37290552257823634  0.42186818366765794  0.5669038030819631  1.0000
  C   C6        1.0  0.4100820656325316  0.4864847482135534  0.46337562439485575  1.0000
  C   C7        1.0  0.4827527761222848  0.4863735936269917  0.4634623285868913  1.0000
  C   C8        1.0  0.2957004321584462  0.4218681050332185  0.5669037076746459  1.0000
  C   C9        1.0  0.2585363325707036  0.3085846173673681  0.6088086153962033  1.0000
  C   C10       1.0  0.18586562321122854  0.308691556711818  0.608717251212633  1.0000
  C   C11       1.0  0.1493681452619333  0.4218679758299524  0.5669037686255564  1.0000
  C   C12       1.0  0.0745501081251973  0.4218678619937088  0.5669040173465468  1.0000
  N   N2        1.0  0.014401791276409802  0.42186782109592735  0.5669042258024192  1.0000
  C   C13       1.0  0.18581817815405038  0.5350444707993978  0.5250902331217318  1.0000
  C   C14       1.0  0.25848885336148403  0.5351515903337096  0.524998706277221  1.0000
  H   H1        1.0  0.5104990115387379  0.3074210362661556  0.7511097212780848  1.0000
  H   H2        1.0  0.3830199074342829  0.30810788021107505  0.7523117455843137  1.0000
  H   H3        1.0  0.38298028527043704  0.5356287011298917  0.3814960042348623  1.0000
  H   H4        1.0  0.510458920048336  0.5363151820800367  0.3826984778348097  1.0000
  H   H5        1.0  0.2856483191416918  0.21941196158346293  0.6400028955499166  1.0000
  H   H6        1.0  0.1581692674279276  0.22041779458482155  0.6409443978558739  1.0000
  H   H7        1.0  0.15808471049454967  0.6233182083827433  0.4928631010370122  1.0000
  H   H8        1.0  0.28556334559155094  0.6243243253154103  0.49380438132615195  1.0000
  C   C15       1.0  0.8343839391605752  0.04047033933689082  0.5670229410414829  1.0000
  C   C16       1.0  0.822514941595689  0.05022788416369049  0.43208145035798695  1.0000
  C   C17       1.0  0.8164298001173265  0.938037531876613  0.3635455338241449  1.0000
  C   C18       1.0  0.8223487661521118  0.8149682456695411  0.4317736283740605  1.0000
  C   C19       1.0  0.8342287146271133  0.8032554322870675  0.5667967194820293  1.0000
  C   C20       1.0  0.8401762558445465  0.9165240703721468  0.6335901172272076  1.0000
  C   C21       1.0  0.8038746918341666  0.9493335054151503  0.22079373077888498  1.0000
  C   C22       1.0  0.8391245704140694  0.04347907449296073  0.13936628858331382  1.0000
  C   C23       1.0  0.8273151052005177  0.05397845258442424  0.005027329649479163  1.0000
  C   C24       1.0  0.7804517958383345  0.9696598705037219  0.949270038713421  1.0000
  C   C25       1.0  0.7443529503399113  0.8773306161231901  0.030629313358751856  1.0000
  C   C26       1.0  0.7561877304091891  0.8665752345035636  0.16493093231074354  1.0000
  N   N3        1.0  0.7664057576874586  0.9799594342231761  0.8116923606346478  1.0000
  C   C27       1.0  0.8171568759629741  0.016937754289343392  0.7134627545317052  1.0000
  O   O1        1.0  0.8809168931119322  0.01946020019987915  0.7413245266637185  1.0000
  C   C28       1.0  0.7949878054333724  0.043443478438328624  0.5749061268216141  1.0000
  H   H9        1.0  0.8389708369389843  0.3641933595299771  0.6189215154232521  1.0000
  H   H10       1.0  0.817017386641993  0.14529503271575606  0.3802655523783893  1.0000
  H   H11       1.0  0.8186113791627793  0.7281915639756701  0.3791388200695383  1.0000
  H   H12       1.0  0.8493334014622748  0.9082830072241608  0.7376728634355061  1.0000
  H   H13       1.0  0.8570676770411498  0.5738648482184913  0.82151490676775  1.0000
  H   H14       1.0  0.8762366767678303  0.10851037090441039  0.1794634470289658  1.0000
  H   H15       1.0  0.8539799708842699  0.12945944236198992  0.9454396909839065  1.0000
  H   H16       1.0  0.7071741663943105  0.8130037390426784  0.9896650142134008  1.0000
  H   H17       1.0  0.7272895386852617  0.7947102386644934  0.22535161942936968  1.0000
  H   H18       1.0  0.7174538309186637  0.9511040877191996  0.780615170430154  1.0000
  H   H19       1.0  0.7448174306460008  0.09689104944850445  0.5704519570807137  1.0000
  H   H20       1.0  0.7885575563928832  0.949853093800765  0.5296765943064892  1.0000
  H   H21       1.0  0.8345554877132756  0.10355832144871838  0.5195041369624969  1.0000
  C   C29       1.0  0.8343161690886772  0.42198935190708714  0.18549292563892622  1.0000
  C   C30       1.0  0.7620565775343613  0.4418527814820019  0.18299695206964306  1.0000
  C   C31       1.0  0.7254492583822605  0.4517774991203538  0.064585773089878  1.0000
  C   C32       1.0  0.7620358840333383  0.44158790245225377  0.9477373270059346  1.0000
  C   C33       1.0  0.8342964623448142  0.421736353402564  0.9483267201094443  1.0000
  C   C34       1.0  0.8699738983080783  0.4120614352256476  0.0676713159668425  1.0000
  C   C35       1.0  0.6490563374038256  0.4727714159629226  0.06295470043676477  1.0000
  C   C36       1.0  0.6183518128712719  0.5607089863740142  0.1438446764665311  1.0000
  C   C37       1.0  0.5464432442917495  0.5804235149605408  0.1421898832471511  1.0000
  C   C38       1.0  0.5042823591299007  0.5125599424123188  0.05986096192289004  1.0000
  C   C39       1.0  0.5343008636826115  0.42485872396703717  0.9790749231833954  1.0000
  C   C40       1.0  0.6062020324778757  0.4050498237608729  0.9804931341566767  1.0000
  C   C41       1.0  0.430252402330223  0.5329067686170201  0.05827799982311067  1.0000
  N   N4        1.0  0.3707373089875434  0.5492643678632743  0.05700544002649278  1.0000
  H   H22       1.0  0.9708010493520476  0.38364685236716967  0.397596910342613  1.0000
  H   H23       1.0  0.7339862398550757  0.44786105540035215  0.2735107981718614  1.0000
  H   H24       1.0  0.7342263028559842  0.4509358135869275  0.8560305951712768  1.0000
  H   H25       1.0  0.9256657613293181  0.396757019237832  0.06886013057702578  1.0000
  H   H26       1.0  0.970909433753052  0.385036758131223  0.7420522771938983  1.0000
  H   H27       1.0  0.6500435101267652  0.615481321598907  0.2071314509599793  1.0000
  H   H28       1.0  0.5237713535954802  0.6488188960182419  0.2048766480786388  1.0000
  H   H29       1.0  0.502128493673526  0.3715366577055434  0.9152159899903851  1.0000
  H   H30       1.0  0.6281917476448551  0.3355241712143717  0.9183534846816036  1.0000
  Zn  Zn1       1.0  0.7581494278817515  0.42186439992898617  0.5669117335111975  1.0000
  Zn  Zn2       1.0  0.9104565475744684  0.4218607130382365  0.5669073458037939  1.0000
  C   C42       1.0  0.8342996877458966  0.4166101348471346  0.8041363575819256  1.0000
  C   C43       1.0  0.8343079505625106  0.4271166167800482  0.32968284868167275  1.0000
  C   C44       1.0  0.834254592379132  0.6590745013631125  0.5616636699221917  1.0000
  C   C45       1.0  0.8343529942733011  0.1846506898227473  0.5721556060529938  1.0000
  O   O2        1.0  0.8921049516714371  0.4288303083873295  0.3780726406142543  1.0000
  O   O3        1.0  0.8921002665459604  0.41489266530308044  0.7557428618784239  1.0000
  O   O4        1.0  0.8920630722637106  0.6106857072161611  0.5599444506806613  1.0000
  O   O5        1.0  0.8921420939822092  0.23303727579872072  0.5738709544238362  1.0000
  O   O6        1.0  0.7764638294990653  0.6106878371711764  0.5599481248858205  1.0000
  O   O7        1.0  0.7765010234623446  0.41489635570209216  0.7557464663666607  1.0000
  O   O8        1.0  0.7765057086836026  0.42883395404482805  0.378074683518713  1.0000
  O   O9        1.0  0.7765428509909075  0.23304091213442146  0.5738730947111409  1.0000
