data_image0
_chemical_formula_structural       NC9NC5H8C8H6C7OCH10Zn2C4O8
_chemical_formula_sum              "N2 C34 H24 O9 Zn2"
_cell_length_a       17.807436237873137
_cell_length_b       9.275140704573507
_cell_length_c       10.300835455316063
_cell_angle_alpha    85.70757600904483
_cell_angle_beta     89.41013499251636
_cell_angle_gamma    88.98377242316299

_space_group_name_H-M_alt    "P 1"
_space_group_IT_number       1

loop_
  _space_group_symop_operation_xyz
  'x, y, z'

loop_
  _atom_site_type_symbol
  _atom_site_label
  _atom_site_symmetry_multiplicity
  _atom_site_fract_x
  _atom_site_fract_y
  _atom_site_fract_z
  _atom_site_occupancy
  N   N1        1.0  0.7154549516084292  0.5401566186233799  0.5605318148190841  1.0000
  C   C1        1.0  0.6546549172560935  0.5010940128539978  0.5494282073341168  1.0000
  C   C2        1.0  0.5790263570535735  0.4525044330730568  0.5356165253653232  1.0000
  C   C3        1.0  0.5604888622446421  0.37321506637601676  0.43046337824536834  1.0000
  C   C4        1.0  0.4870567575272938  0.32591455305858563  0.41697025219791833  1.0000
  C   C5        1.0  0.4311111646712572  0.35748434209708857  0.5085969548134948  1.0000
  C   C6        1.0  0.35307246899552214  0.30734365064272007  0.49433958425195934  1.0000
  C   C7        1.0  0.2913898860939847  0.3980977224478465  0.5204635946255423  1.0000
  C   C8        1.0  0.217814264264463  0.3505718388852581  0.506983679219126  1.0000
  C   C9        1.0  0.15509775830066083  0.4443133806162684  0.533477753514827  1.0000
  N   N2        1.0  0.10468664071526457  0.5196750949466991  0.5547782493779072  1.0000
  C   C10       1.0  0.2053361325352956  0.2120055208193583  0.4673538118037792  1.0000
  C   C11       1.0  0.2661612612368029  0.12123607145943094  0.4412213809223859  1.0000
  C   C12       1.0  0.3396150543543415  0.168323978019592  0.4544978753802242  1.0000
  C   C13       1.0  0.45034306089279563  0.43732249505511006  0.6139704422123669  1.0000
  C   C14       1.0  0.5238268699760585  0.4844116427944398  0.6273074995980721  1.0000
  H   H1        1.0  0.6027364028137513  0.3482437776711298  0.35870863869631053  1.0000
  H   H2        1.0  0.47380817483169846  0.2663125077505686  0.3339373627148843  1.0000
  H   H3        1.0  0.3004756261715086  0.5062889999423743  0.5495615656994997  1.0000
  H   H4        1.0  0.1486655826264546  0.17422358180344702  0.4566818469865814  1.0000
  H   H5        1.0  0.2563818675918401  0.013954893952445872  0.41092505701653476  1.0000
  H   H6        1.0  0.3858591437438711  0.09534352376104094  0.435300385596908  1.0000
  H   H7        1.0  0.40880940783746583  0.4616956665239447  0.687018257284872  1.0000
  H   H8        1.0  0.5376109177417834  0.5453683564099545  0.7093017230391003  1.0000
  C   C15       1.0  0.9077927116656119  0.10659478529718845  0.5567806398151414  1.0000
  C   C16       1.0  0.9184960320066362  0.18944473302155762  0.4381741863303145  1.0000
  C   C17       1.0  0.9357499261038449  0.12319463150996236  0.32412481322648956  1.0000
  C   C18       1.0  0.9427133489563311  0.9728988966529278  0.3264903969246704  1.0000
  C   C19       1.0  0.9310477529549064  0.8885182291971376  0.4429829678295272  1.0000
  C   C20       1.0  0.9123559775444559  0.9532254969243602  0.5585406001848376  1.0000
  C   C21       1.0  0.9609912633170534  0.9048431344890158  0.20879638663529132  1.0000
  C   C22       1.0  0.9762950755082839  0.8478481189800874  0.11026124086978029  1.0000
  H   H9        1.0  0.92013428159486  0.18252804248460258  0.8756539860738223  1.0000
  H   H10       1.0  0.9152658039216277  0.3064386178547873  0.4342447118170476  1.0000
  H   H11       1.0  0.9443954127632732  0.18945886438057657  0.2342308130308961  1.0000
  H   H12       1.0  0.9348337805827186  0.7717117368065779  0.44276659922788675  1.0000
  H   H13       1.0  0.9177828845115085  0.6544657944899772  0.7734272562697225  1.0000
  H   H14       1.0  0.9897285379457487  0.7978167739036867  0.023768076601665248  1.0000
  C   C23       1.0  0.9100057137608847  0.5298401815837949  0.17634491984641507  1.0000
  C   C24       1.0  0.9793387823536644  0.5999639024224857  0.16954286581954833  1.0000
  C   C25       1.0  0.013831728286055835  0.6368320296948146  0.048903274922781334  1.0000
  C   C26       1.0  0.9795191934360438  0.6001460228930375  0.9342418275390791  1.0000
  C   C27       1.0  0.9101430084416503  0.5299800796593934  0.9389763117177059  1.0000
  C   C28       1.0  0.8757115934563482  0.49555298291971717  0.06045616055363334  1.0000
  C   C29       1.0  0.08904181165478085  0.7080326438698976  0.04298845453014287  1.0000
  O   O1        1.0  0.14587258253395796  0.5997928523461  0.04942935831642624  1.0000
  C   C30       1.0  0.21679331416827985  0.6652697896883257  0.04399047153851865  1.0000
  H   H15       1.0  0.8838620829978353  0.5014670104082541  0.5064435649915883  1.0000
  H   H16       1.0  0.006804671167915722  0.6261676103807396  0.25793503861199674  1.0000
  H   H17       1.0  0.007108829086751589  0.6264760760730356  0.8414576280581991  1.0000
  H   H18       1.0  0.8222424757896732  0.4414594266928795  0.06493978765398743  1.0000
  H   H19       1.0  0.7796792431373814  0.3961590704002654  0.7407484361146945  1.0000
  H   H20       1.0  0.09339556633230073  0.7781868634670153  0.1257586057592408  1.0000
  H   H21       1.0  0.09356970623155147  0.778199694079994  0.950642031210163  1.0000
  H   H22       1.0  0.2608340893415104  0.5789882813918552  0.04913584467507581  1.0000
  H   H23       1.0  0.2247514801245629  0.7318054283001421  0.12816019598267148  1.0000
  H   H24       1.0  0.22493518938896728  0.731855908456966  0.9506465941713497  1.0000
  Zn  Zn1       1.0  0.8277787886440079  0.534242248213054  0.5588789618647727  1.0000
  Zn  Zn2       1.0  0.9923627240686497  0.5255777166235103  0.556441753027273  1.0000
  C   C31       1.0  0.9100844151133652  0.524210936952636  0.7948107155493336  1.0000
  C   C32       1.0  0.9100589046773022  0.5356107521646458  0.3205101039580966  1.0000
  C   C33       1.0  0.9114886408887414  0.7931935228279503  0.5530335112612935  1.0000
  C   C34       1.0  0.9086546134183421  0.26662643731704194  0.5622873747064907  1.0000
  O   O2        1.0  0.9725354678947531  0.5342529747899802  0.36796833558578723  1.0000
  O   O3        1.0  0.9725232447413643  0.5189914477703006  0.7455023227526771  1.0000
  O   O4        1.0  0.9736563330831172  0.7361983321871777  0.5502655352604624  1.0000
  O   O5        1.0  0.9714023234297081  0.31704610362403884  0.5632050265700166  1.0000
  O   O6        1.0  0.848739133118537  0.7427738641708723  0.5521156891469015  1.0000
  O   O7        1.0  0.8476060540959558  0.5255687116846322  0.7473524110036356  1.0000
  O   O8        1.0  0.8476182767475102  0.540830188180971  0.3698168625488345  1.0000
  O   O9        1.0  0.846485132241345  0.32362330672244144  0.565053650865923  1.0000
