data_image0
_chemical_formula_structural       NC8NC6H8C6SCNH4C9H8Zn2C4O8
_chemical_formula_sum              "N3 C34 H20 S1 Zn2 O8"
_cell_length_a       17.457602349358154
_cell_length_b       10.302215558581764
_cell_length_c       9.272679976505534
_cell_angle_alpha    86.02649692228
_cell_angle_beta     93.25957942520282
_cell_angle_gamma    91.70712283406877

_space_group_name_H-M_alt    "P 1"
_space_group_IT_number       1

loop_
  _space_group_symop_operation_xyz
  'x, y, z'

loop_
  _atom_site_type_symbol
  _atom_site_label
  _atom_site_symmetry_multiplicity
  _atom_site_fract_x
  _atom_site_fract_y
  _atom_site_fract_z
  _atom_site_occupancy
  N   N1        1.0  0.7171098085549008  0.44118228386742775  0.4749561497446196  1.0000
  C   C1        1.0  0.6559793459103754  0.3951813022419528  0.46316117894490644  1.0000
  C   C2        1.0  0.5799305074395897  0.3379618724669118  0.44849883226904397  1.0000
  C   C3        1.0  0.5217156338136334  0.37872919228463114  0.531677175701251  1.0000
  C   C4        1.0  0.4471078103621232  0.32363254539578  0.5176974470508648  1.0000
  C   C5        1.0  0.3853205382326811  0.3666787913923916  0.6057864496855576  1.0000
  C   C6        1.0  0.3105499638355664  0.38468432302800776  0.5438644460154916  1.0000
  C   C7        1.0  0.2523354911590786  0.4252686504709256  0.6271626449469003  1.0000
  C   C8        1.0  0.1761178399454812  0.4438616774739366  0.5627804881959213  1.0000
  N   N2        1.0  0.11485176421564622  0.4588040943223921  0.5110174010204314  1.0000
  C   C9        1.0  0.2684015544992298  0.44809470593501977  0.7729475826069228  1.0000
  C   C10       1.0  0.3423890848657928  0.43048124902688817  0.8353000622265478  1.0000
  C   C11       1.0  0.4005938569728626  0.39008069240362936  0.7525101810751911  1.0000
  C   C12       1.0  0.4319975219210986  0.22707955297544347  0.41894804470816105  1.0000
  C   C13       1.0  0.4902023659188413  0.18659413069487066  0.3362139377348703  1.0000
  C   C14       1.0  0.5640276909542208  0.24180764451574932  0.35080439317499024  1.0000
  H   H1        1.0  0.5343467031526908  0.45445230287130434  0.6056800274048545  1.0000
  H   H2        1.0  0.2977855303070659  0.36887936674216043  0.43056567684209096  1.0000
  H   H3        1.0  0.22378691931832395  0.4794532643060783  0.8382881986196216  1.0000
  H   H4        1.0  0.35463859585058727  0.4478404092490574  0.9481845468916046  1.0000
  H   H5        1.0  0.4572646611280955  0.37547152202184636  0.8037086454628009  1.0000
  H   H6        1.0  0.3754603080012022  0.18166779539424388  0.407113048344919  1.0000
  H   H7        1.0  0.47808043882495593  0.11197735518897822  0.2608805225327862  1.0000
  H   H8        1.0  0.6086442820929691  0.20958380577711067  0.28603125343835734  1.0000
  C   C15       1.0  0.9159080778677511  0.06871745251097638  0.49294049176945576  1.0000
  C   C16       1.0  0.9929920768505205  0.06839144526019393  0.5452936269684023  1.0000
  C   C17       1.0  0.03135406515248352  0.951191896637742  0.571802852280741  1.0000
  C   C18       1.0  0.9931920090954215  0.8332259836986414  0.5454338261172984  1.0000
  C   C19       1.0  0.9160608476079817  0.8312592921408141  0.4930461543880791  1.0000
  C   C20       1.0  0.8778340393683757  0.949543742422599  0.4671422301961319  1.0000
  S   S1        1.0  0.12983446941142995  0.9522940764668728  0.6380472437110565  1.0000
  C   C21       1.0  0.10519349617245766  0.9397151978745115  0.8205557039381324  1.0000
  N   N3        1.0  0.08901580239630236  0.9314680218188112  0.9402034868781083  1.0000
  H   H9        1.0  0.023529100571408893  0.15884799202364652  0.5659513005151124  1.0000
  H   H10       1.0  0.023866078293070418  0.7434074593044451  0.5661876731321196  1.0000
  H   H11       1.0  0.8183837887005299  0.9489456588984878  0.4267856241544363  1.0000
  H   H12       1.0  0.7707010335889865  0.6203450076160602  0.39415525415048497  1.0000
  C   C22       1.0  0.9144278507856921  0.44685353678171374  0.06948917075958816  1.0000
  C   C23       1.0  0.9665669111591526  0.36885083225496884  0.1544728991918474  1.0000
  C   C24       1.0  0.022487431764815834  0.3015369104730965  0.090933509156637  1.0000
  C   C25       1.0  0.028159880163816556  0.31001426856344194  0.9405865415502057  1.0000
  C   C26       1.0  0.9750992708453262  0.3862140303681648  0.8541347719820869  1.0000
  C   C27       1.0  0.9175410890230824  0.45312325741291115  0.916497565844547  1.0000
  C   C28       1.0  0.09123545453879368  0.23459693412452665  0.8801476177919083  1.0000
  C   C29       1.0  0.07294942683747956  0.17436845183368901  0.7363826884808948  1.0000
  C   C30       1.0  0.12695305635152407  0.2930160900389107  0.7434744602693746  1.0000
  H   H13       1.0  0.7988900694804139  0.529519182312439  0.33197541349760457  1.0000
  H   H14       1.0  0.06220527666106792  0.24329469111930435  0.16015969788419682  1.0000
  H   H15       1.0  0.7433303933378941  0.5675489064663819  0.7860147607432437  1.0000
  H   H16       1.0  0.13133477666288879  0.17796683520064274  0.9559624557583045  1.0000
  H   H17       1.0  0.015948291605384798  0.19399938489837298  0.6815357517065834  1.0000
  H   H18       1.0  0.1027400886402614  0.08221796831498152  0.724778396522249  1.0000
  H   H19       1.0  0.10279304644996892  0.3846611253414839  0.6928220265757385  1.0000
  H   H20       1.0  0.18831543787296345  0.27020184481053655  0.7360119809427297  1.0000
  Zn  Zn1       1.0  0.8318895752003892  0.44626413749675714  0.4853709743454416  1.0000
  Zn  Zn2       1.0  7.202458572597497e-05  0.45371168286875935  0.5006143821982356  1.0000
  C   C31       1.0  0.9169498794942688  0.446765637572577  0.7563939287980312  1.0000
  C   C32       1.0  0.9150135576875014  0.45321190338771405  0.2295917359797586  1.0000
  C   C33       1.0  0.9160069176289362  0.6870799625763555  0.48727890933863766  1.0000
  C   C34       1.0  0.9159564621339583  0.2128960164896203  0.49870682690981694  1.0000
  O   O1        1.0  0.9790344881907795  0.4581664696006149  0.28910841247590535  1.0000
  O   O2        1.0  0.9805755348752957  0.4474626034159275  0.7084462308677999  1.0000
  O   O3        1.0  0.9798132263725339  0.6415194330461063  0.4911338708251489  1.0000
  O   O4        1.0  0.9797967389086731  0.2641096459166308  0.5064206591852665  1.0000
  O   O5        1.0  0.8521648034849988  0.635866171908761  0.479564692148998  1.0000
  O   O6        1.0  0.852927112014193  0.4418109016327727  0.6968769755115722  1.0000
  O   O7        1.0  0.8513860589985222  0.45251470974008257  0.2775374232071668  1.0000
  O   O8        1.0  0.8521483101088405  0.25845787756977967  0.49484977804040536  1.0000
