data_image0
_chemical_formula_structural       NC6NCNCH5C6BrH5C6OCH6Zn2C4O8
_chemical_formula_sum              "N3 C25 H16 Br1 O9 Zn2"
_cell_length_a       14.933214217465613
_cell_length_b       9.276564384272257
_cell_length_c       9.273891588657152
_cell_angle_alpha    86.03089208269444
_cell_angle_beta     89.64588733206324
_cell_angle_gamma    90.62004099175812

_space_group_name_H-M_alt    "P 1"
_space_group_IT_number       1

loop_
  _space_group_symop_operation_xyz
  'x, y, z'

loop_
  _atom_site_type_symbol
  _atom_site_label
  _atom_site_symmetry_multiplicity
  _atom_site_fract_x
  _atom_site_fract_y
  _atom_site_fract_z
  _atom_site_occupancy
  N   N1        1.0  0.8586927286960748  0.5647558249130523  0.40787191851493154  1.0000
  C   C1        1.0  0.7812121781989887  0.5657435982408494  0.4068806178033024  1.0000
  C   C2        1.0  0.6848258431982825  0.5669750980807771  0.4056445884420564  1.0000
  C   C3        1.0  0.6360684779425156  0.4720682492463435  0.5009098108992858  1.0000
  C   C4        1.0  0.5425456029520976  0.4731414414441814  0.499832596058497  1.0000
  C   C5        1.0  0.4968772046852521  0.5690671056632385  0.4035447480841674  1.0000
  C   C6        1.0  0.4002811329746553  0.5669772361308791  0.4056425158806256  1.0000
  N   N2        1.0  0.3227783541231102  0.5652338198632836  0.40739214450513145  1.0000
  C   C7        1.0  0.5457451163275214  0.6651723703568858  0.3070767136580471  1.0000
  N   N3        1.0  0.5014135641266974  0.764875988093791  0.20699688330222688  1.0000
  C   C8        1.0  0.6397389362931292  0.6631416843393976  0.309115184992395  1.0000
  H   H1        1.0  0.6703304789317098  0.3972405812619342  0.5760199890742661  1.0000
  H   H2        1.0  0.5057327864046534  0.3989432343074018  0.5743108076110737  1.0000
  H   H3        1.0  0.5384614004692371  0.8352962619972841  0.13631065736264647  1.0000
  H   H4        1.0  0.43172423910140834  0.7701810713992496  0.20167183974334146  1.0000
  H   H5        1.0  0.6776688508697121  0.7365933339662842  0.2353861842632101  1.0000
  C   C9        1.0  0.08804057513238717  0.14151438913652334  0.40800342295898395  1.0000
  C   C10       1.0  0.07701380763895904  0.22381362192492357  0.2762758356389463  1.0000
  C   C11       1.0  0.07431678132073594  0.15764437890136795  0.14577014547000688  1.0000
  C   C12       1.0  0.08263507251689961  0.008234528235875782  0.14451396767379943  1.0000
  C   C13       1.0  0.09209105722817945  0.9242223735046086  0.2742510628514039  1.0000
  C   C14       1.0  0.09343895771674034  0.9884642119054718  0.40727309203643736  1.0000
  Br  Br1       1.0  0.07960570392118772  0.918257766126147  0.9654366646544673  1.0000
  H   H6        1.0  0.0609825210777262  0.40615336750325465  0.6423671894942196  1.0000
  H   H7        1.0  0.0726030253468111  0.3404432062134999  0.27381277616290384  1.0000
  H   H8        1.0  0.06661191047530046  0.22295074196345555  0.0453768653536679  1.0000
  H   H9        1.0  0.09624497372031238  0.8079586287723708  0.2711391564571639  1.0000
  H   H10       1.0  0.142073319370019  0.6926072642229658  0.6317151381621884  1.0000
  C   C15       1.0  0.09218242918998532  0.5611715474211436  0.9843647264212957  1.0000
  C   C16       1.0  0.1659055734416064  0.6221576591787157  0.05281009956751537  1.0000
  C   C17       1.0  0.23461787850756244  0.6939069349618383  0.972867992402663  1.0000
  C   C18       1.0  0.22985341629436354  0.7050317029086921  0.821422781363069  1.0000
  C   C19       1.0  0.15800604945228502  0.6431743438583082  0.7516340184707437  1.0000
  C   C20       1.0  0.08929707913730735  0.5688070291095895  0.8309118137407605  1.0000
  O   O1        1.0  0.3058841529744365  0.7531149852346264  0.0479503322392447  1.0000
  C   C21       1.0  0.3801094922745789  0.8290853339299227  0.980732293828527  1.0000
  H   H11       1.0  0.8786177314123328  0.4723798693937735  0.09567851706027497  1.0000
  H   H12       1.0  0.2817894995715102  0.7601522939321983  0.7563998396282008  1.0000
  H   H13       1.0  0.946837721454046  0.5033119873214431  0.5556723434296265  1.0000
  H   H14       1.0  0.3566937686934031  0.926648066500696  0.916277418717652  1.0000
  H   H15       1.0  0.4169916347797713  0.7575530535297228  0.910342741141692  1.0000
  H   H16       1.0  0.4261686741047166  0.8636022375080161  0.06549873265997053  1.0000
  Zn  Zn1       1.0  0.992617762935853  0.5648899696052851  0.40774180181782094  1.0000
  Zn  Zn2       1.0  0.18885318947041763  0.5650879513791436  0.4075341081481665  1.0000
  C   C22       1.0  0.08980387165546144  0.561618833287834  0.6709012615126464  1.0000
  C   C23       1.0  0.09166923475107724  0.5683609106939622  0.14437478608882204  1.0000
  C   C24       1.0  0.09243351277752512  0.8283208780062982  0.4016673667954064  1.0000
  C   C25       1.0  0.08903951536226455  0.30165713400661287  0.41360875921740237  1.0000
  O   O2        1.0  0.1659672835890738  0.5708425683709177  0.1979968105826917  1.0000
  O   O3        1.0  0.1644439654585107  0.5592863475482828  0.617121188343196  1.0000
  O   O4        1.0  0.16656642491707138  0.7746516340715666  0.39971291325416636  1.0000
  O   O5        1.0  0.1638447576027634  0.3554772911213562  0.415404977659547  1.0000
  O   O6        1.0  0.017626127838022993  0.7745006297970127  0.3998709323697327  1.0000
  O   O7        1.0  0.015503679680726641  0.5591370751765535  0.6172791291107151  1.0000
  O   O8        1.0  0.0170270034570974  0.5706932301153216  0.19815301842680566  1.0000
  O   O9        1.0  0.014904477033052208  0.3553279435259779  0.4155612935791284  1.0000
