data_image0
_chemical_formula_structural       NC9NC5H8C6SCH8C6BrH4Zn2C4O8
_chemical_formula_sum              "N2 C31 H20 S1 Br1 Zn2 O8"
_cell_length_a       17.807436237873137
_cell_length_b       10.302809429070853
_cell_length_c       10.302972455390005
_cell_angle_alpha    85.56069891033052
_cell_angle_beta     89.39215201277248
_cell_angle_gamma    88.39000425637651

_space_group_name_H-M_alt    "P 1"
_space_group_IT_number       1

loop_
  _space_group_symop_operation_xyz
  'x, y, z'

loop_
  _atom_site_type_symbol
  _atom_site_label
  _atom_site_symmetry_multiplicity
  _atom_site_fract_x
  _atom_site_fract_y
  _atom_site_fract_z
  _atom_site_occupancy
  N   N1        1.0  0.7074117225705792  0.3873420232403568  0.5576062691705643  1.0000
  C   C1        1.0  0.6468242072754313  0.3521630818700119  0.5465859750505577  1.0000
  C   C2        1.0  0.5714599973792972  0.30840435291309226  0.5328779257360976  1.0000
  C   C3        1.0  0.5533686588998381  0.23701170613428296  0.4279097015823312  1.0000
  C   C4        1.0  0.480193899922952  0.19441389057626912  0.41451746800864914  1.0000
  C   C5        1.0  0.42406176103133175  0.22283130730243816  0.5060610174959086  1.0000
  C   C6        1.0  0.3462958552992634  0.17767568137261525  0.4919105887405171  1.0000
  C   C7        1.0  0.284119468785024  0.2594067896229076  0.5178409747491661  1.0000
  C   C8        1.0  0.2108024049881592  0.21660599771007716  0.5044624176991692  1.0000
  C   C9        1.0  0.14757592790602056  0.3010276361853286  0.530756587615091  1.0000
  N   N2        1.0  0.0967548286266618  0.3688967928864919  0.5518963739773823  1.0000
  C   C10       1.0  0.1990781829283404  0.09181619630680318  0.4651281331491446  1.0000
  C   C11       1.0  0.2603971996284004  0.01007124003089399  0.4391893602052819  1.0000
  C   C12       1.0  0.3335948316397487  0.05247761232853909  0.4523654455382782  1.0000
  C   C13       1.0  0.4428445037510618  0.29471816853644756  0.6112483991516555  1.0000
  C   C14       1.0  0.5160721342004196  0.3371256486658621  0.624485033240517  1.0000
  H   H1        1.0  0.5957636259446517  0.21453378346480068  0.35622059710210685  1.0000
  H   H2        1.0  0.46728140808457563  0.1407484914006567  0.33162434917823846  1.0000
  H   H3        1.0  0.2926168934025866  0.35684179727871707  0.5467085105877239  1.0000
  H   H4        1.0  0.1426131725440381  0.05779058465963297  0.454536737328477  1.0000
  H   H5        1.0  0.251201430820391  0.913456089543546  0.409121809352063  1.0000
  H   H6        1.0  0.3802356923238607  0.9867527315430098  0.43332331349049763  1.0000
  H   H7        1.0  0.4011664164281514  0.3166571979854713  0.6842315747798517  1.0000
  H   H8        1.0  0.5295129758614597  0.39201126815867793  0.7063368692862677  1.0000
  C   C15       1.0  0.902086880478055  0.9968658336778742  0.5547569305121414  1.0000
  C   C16       1.0  0.9454257719478527  0.002476700584673087  0.4398868823897226  1.0000
  C   C17       1.0  0.966783615051781  0.8882992258067437  0.38258716124616954  1.0000
  C   C18       1.0  0.9454256772200467  0.7673255471518218  0.43988681400782137  1.0000
  C   C19       1.0  0.9020868505338504  0.7593626964655675  0.5547569241358559  1.0000
  C   C20       1.0  0.880609746185558  0.8747568886877568  0.611606276561977  1.0000
  S   S1        1.0  0.022294049744098876  0.8969519834565655  0.23597335477412854  1.0000
  C   C21       1.0  0.9408820485330742  0.9091068460143007  0.13002663902385914  1.0000
  H   H9        1.0  0.8857298414989465  0.3220678580109393  0.5980183414943265  1.0000
  H   H10       1.0  0.9626395136441758  0.09527217958973888  0.39425873941439304  1.0000
  H   H11       1.0  0.9626393478588627  0.6799217939558365  0.3942586406777389  1.0000
  H   H12       1.0  0.8471682730053547  0.8695235296565306  0.700197499256084  1.0000
  H   H13       1.0  0.8857286143466847  0.42905214816908177  0.5980169318835535  1.0000
  H   H14       1.0  0.9064062646017054  0.8212849771527972  0.14784394230326048  1.0000
  H   H15       1.0  0.9064069681647291  0.997519905487066  0.14784346005316107  1.0000
  H   H16       1.0  0.9602804267395768  0.916129280962907  0.0271262592500563  1.0000
  C   C22       1.0  0.902086839744226  0.37811425019646383  0.17351435301870932  1.0000
  C   C23       1.0  0.9239903533504602  0.24571737351438452  0.18214419725803044  1.0000
  C   C24       1.0  0.9348557197722966  0.1800413724173453  0.06948723012130831  1.0000
  C   C25       1.0  0.9239904799724269  0.24571731684221554  0.9470618047997545  1.0000
  C   C26       1.0  0.9020868752890286  0.3781142520654793  0.9359994345719276  1.0000
  C   C27       1.0  0.891240852546431  0.4436733159391426  0.04988139590661734  1.0000
  Br  Br1       1.0  0.9646481175838922  0.9999587437551838  0.08287970012574175  1.0000
  H   H17       1.0  0.8938428654528919  0.42794740585508073  0.4975677010010516  1.0000
  H   H18       1.0  0.9327096292444865  0.19301260497978154  0.2760630550862524  1.0000
  H   H19       1.0  0.9327099261017199  0.19301263440926575  0.8609821481033951  1.0000
  H   H20       1.0  0.8743479842123195  0.5457828660104272  0.04228767297863123  1.0000
  Zn  Zn1       1.0  0.8197677315120498  0.3820156639626935  0.5559660250622793  1.0000
  Zn  Zn2       1.0  0.9843988014891425  0.3742125691964435  0.5535472911607364  1.0000
  C   C28       1.0  0.9020852007819885  0.37294223117935477  0.7918734683026667  1.0000
  C   C29       1.0  0.9020831299853023  0.3832875548935487  0.317639948931951  1.0000
  C   C30       1.0  0.9020829850515932  0.6152347308005827  0.5495834869621534  1.0000
  C   C31       1.0  0.902085289538695  0.14099349810494147  0.559930000313607  1.0000
  O   O1        1.0  0.9645585180308506  0.38205686538548234  0.3650919186141117  1.0000
  O   O2        1.0  0.9645609855454187  0.36824957288536503  0.7425853618328329  1.0000
  O   O3        1.0  0.9645583541002882  0.5639038704552591  0.5469345000323265  1.0000
  O   O4        1.0  0.9645610932985428  0.18640257976566213  0.5607426838975638  1.0000
  O   O5        1.0  0.839605383522145  0.5698256560577009  0.5487706331440181  1.0000
  O   O6        1.0  0.8396080149637734  0.37417291831941224  0.7444214257219484  1.0000
  O   O7        1.0  0.8396055474990777  0.3879801655748683  0.3669264216191701  1.0000
  O   O8        1.0  0.839608122763704  0.1923258706692011  0.5625772842382426  1.0000
