data_image0
_chemical_formula_structural       NC8NH4C7NH3C6FH3Zn2C4O8
_chemical_formula_sum              "N3 C25 H10 F1 Zn2 O8"
_cell_length_a       14.927258825633057
_cell_length_b       9.275154477615127
_cell_length_c       9.275646106892307
_cell_angle_alpha    85.17883559390603
_cell_angle_beta     90.02253336154234
_cell_angle_gamma    89.43370909507247

_space_group_name_H-M_alt    "P 1"
_space_group_IT_number       1

loop_
  _space_group_symop_operation_xyz
  'x, y, z'

loop_
  _atom_site_type_symbol
  _atom_site_label
  _atom_site_symmetry_multiplicity
  _atom_site_fract_x
  _atom_site_fract_y
  _atom_site_fract_z
  _atom_site_occupancy
  N   N1        1.0  0.8333872815376856  0.5947709549985916  0.41428951474345466  1.0000
  C   C1        1.0  0.7558608573555017  0.5947709284514626  0.4142895243028846  1.0000
  C   C2        1.0  0.6594282156285964  0.5947709275745967  0.41428957945310435  1.0000
  C   C3        1.0  0.6128901885374808  0.5074375337717938  0.3240864015628262  1.0000
  C   C4        1.0  0.5191788775241484  0.5074374442686829  0.3240863727057232  1.0000
  C   C5        1.0  0.471612217866994  0.5947709815390729  0.4142894917342994  1.0000
  C   C6        1.0  0.5181502448649733  0.6821043868058024  0.5044925614586673  1.0000
  C   C7        1.0  0.6118616228698619  0.682104476305885  0.5044925903216904  1.0000
  C   C8        1.0  0.375179576705633  0.5947708845320485  0.41428943633919757  1.0000
  N   N2        1.0  0.2976531518647686  0.5947709655790048  0.4142894482780384  1.0000
  H   H1        1.0  0.6489864658481889  0.4394870281061187  0.2539032847431124  1.0000
  H   H2        1.0  0.4838828101408336  0.43948700340208985  0.25390338200324436  1.0000
  H   H3        1.0  0.48205396755426516  0.7500548924714772  0.5746756782783808  1.0000
  H   H4        1.0  0.6471576233547566  0.7500549057115795  0.5746756891841598  1.0000
  C   C9        1.0  0.06811633748928769  0.17139942298110597  0.41261939564786226  1.0000
  C   C10       1.0  0.04348709578873122  0.25593335598904215  0.2853684653285853  1.0000
  C   C11       1.0  0.011573279694749859  0.19117801156485115  0.1648582070572786  1.0000
  C   C12       1.0  0.0037634056407471746  0.04100083008890576  0.1701796095150445  1.0000
  C   C13       1.0  0.029222032982034515  0.9552901046389022  0.2945299561254445  1.0000
  C   C14       1.0  0.06293276339271503  0.018131245219066512  0.415972082069919  1.0000
  C   C15       1.0  0.9857517287598621  0.2793100864030662  0.03607357125575161  1.0000
  N   N3        1.0  0.9649983634067562  0.3501520173086702  0.9325637119590938  1.0000
  H   H5        1.0  0.08559655883557402  0.24429860752518137  0.7668840355177493  1.0000
  H   H6        1.0  0.9787582942305504  0.9898603823671571  0.07755990741880978  1.0000
  H   H7        1.0  0.07850386000702846  0.7168337373785018  0.653339467475689  1.0000
  C   C16       1.0  0.06539266314701297  0.5992777896661473  0.9904731409110656  1.0000
  C   C17       1.0  0.14732544925408497  0.614345979428649  0.06259365144105122  1.0000
  C   C18       1.0  0.22823069654159028  0.6158769268600635  0.9871538907877233  1.0000
  C   C19       1.0  0.22862492076053975  0.6022218689399339  0.838723568866749  1.0000
  C   C20       1.0  0.14808120970078376  0.5895575497680974  0.764680617382874  1.0000
  C   C21       1.0  0.06565639827151037  0.5902528759630763  0.8381182896073995  1.0000
  F   F1        1.0  0.3066018540384694  0.62889323475314  0.05864063814864284  1.0000
  H   H8        1.0  0.8583826536125105  0.4821482359625151  0.10316228424343718  1.0000
  H   H9        1.0  0.2914413800652771  0.6028250008520903  0.7804105908802669  1.0000
  H   H10       1.0  0.9254714460669657  0.5173248500562978  0.5629837846176038  1.0000
  Zn  Zn1       1.0  0.9673644179303375  0.5947669983637751  0.41429782321434805  1.0000
  Zn  Zn2       1.0  0.16367610471072536  0.5947629603066804  0.41429294429090197  1.0000
  C   C22       1.0  0.06563973580310023  0.586215273174052  0.6778724671881373  1.0000
  C   C23       1.0  0.0654029194633268  0.6033165030350168  0.15071844912245  1.0000
  C   C24       1.0  0.06390616456506869  0.8581421222069733  0.40958704996220097  1.0000
  C   C25       1.0  0.06713643434182637  0.3313879210358348  0.41900393643780803  1.0000
  O   O1        1.0  0.13990566212795394  0.604664109969401  0.20449636198683496  1.0000
  O   O2        1.0  0.1401330275905719  0.5848635182457995  0.6240904315650289  1.0000
  O   O3        1.0  0.13873214307316184  0.8044478718668209  0.4074480649518242  1.0000
  O   O4        1.0  0.14130647956067155  0.3850797678153348  0.4211386204282077  1.0000
  O   O5        1.0  0.9897339760888353  0.8044501908581492  0.4074521470711219  1.0000
  O   O6        1.0  0.9911348499742216  0.5848675702064177  0.6240944435889841  1.0000
  O   O7        1.0  0.990907484338786  0.6046681301646757  0.20449863859738748  1.0000
  O   O8        1.0  0.9923083018646396  0.38508377654668297  0.42114100520467246  1.0000
