data_image0
_chemical_formula_structural       NC8NC6H8C8NH7C6NCOCH9Zn2C4O8
_chemical_formula_sum              "N4 C34 H24 O9 Zn2"
_cell_length_a       17.457602349358154
_cell_length_b       9.274263428431858
_cell_length_c       10.300272075376752
_cell_angle_alpha    85.50073118393561
_cell_angle_beta     92.87481935650747
_cell_angle_gamma    92.30649601595262

_space_group_name_H-M_alt    "P 1"
_space_group_IT_number       1

loop_
  _space_group_symop_operation_xyz
  'x, y, z'

loop_
  _atom_site_type_symbol
  _atom_site_label
  _atom_site_symmetry_multiplicity
  _atom_site_fract_x
  _atom_site_fract_y
  _atom_site_fract_z
  _atom_site_occupancy
  N   N1        1.0  0.731701974615483  0.6146206268250771  0.6262897648272379  1.0000
  C   C1        1.0  0.6703317988030233  0.5636020853724768  0.6156831780210799  1.0000
  C   C2        1.0  0.5939847532686482  0.5001413647527846  0.6024981245062682  1.0000
  C   C3        1.0  0.5357104655397465  0.5447319418515186  0.677385011571817  1.0000
  C   C4        1.0  0.4608149798805665  0.4836243610199078  0.6648139693301351  1.0000
  C   C5        1.0  0.3989639969977688  0.5307053507066473  0.744122047123277  1.0000
  C   C6        1.0  0.32453597863467454  0.5512452427232494  0.6883574254277565  1.0000
  C   C7        1.0  0.26626051484860674  0.5956314378492156  0.7633522963467245  1.0000
  C   C8        1.0  0.19039824052800833  0.6168452874305121  0.7053721936915212  1.0000
  N   N2        1.0  0.12941784785426252  0.6338941346282468  0.658756343404459  1.0000
  C   C9        1.0  0.2819224454829196  0.6197476727556002  0.8946202388763478  1.0000
  C   C10       1.0  0.3555682295663691  0.5996397925724999  0.9507723685867088  1.0000
  C   C11       1.0  0.4138332264185473  0.5554534594448128  0.8762351653923797  1.0000
  C   C12       1.0  0.4454781409271618  0.3771741490753393  0.5759233095935086  1.0000
  C   C13       1.0  0.5037424776003379  0.3328930288977616  0.5014363560734572  1.0000
  C   C14       1.0  0.5778539028991152  0.3941252453306969  0.514557303388389  1.0000
  H   H1        1.0  0.54853208008753  0.6282466068070498  0.743998659754991  1.0000
  H   H2        1.0  0.3120975581121198  0.5346528776782586  0.5863401312699092  1.0000
  H   H3        1.0  0.2372570278521223  0.6540354607805474  0.9534477236070747  1.0000
  H   H4        1.0  0.36750286487243333  0.6179628541417421  0.05241612360338477  1.0000
  H   H5        1.0  0.47022251410384713  0.5387797803375356  0.9223424846062831  1.0000
  H   H6        1.0  0.38870499868781555  0.32681073958437  0.5652804959364732  1.0000
  H   H7        1.0  0.4914418046308264  0.2506192106833671  0.4336242267003594  1.0000
  H   H8        1.0  0.6225138168416805  0.358871029781638  0.4562410862504524  1.0000
  C   C15       1.0  0.9281350878029375  0.20055630082957587  0.6426010816077117  1.0000
  C   C16       1.0  0.9182194213709955  0.2834821623387469  0.5231082391998538  1.0000
  C   C17       1.0  0.9158307499032092  0.21850131170360537  0.40530419303150755  1.0000
  C   C18       1.0  0.9239224930113182  0.06911233214465828  0.40413005693630777  1.0000
  C   C19       1.0  0.9317786232800425  0.9845823746573958  0.5226587213797405  1.0000
  C   C20       1.0  0.932992009564153  0.047947721098552165  0.6424568765665246  1.0000
  C   C21       1.0  0.9202021916383958  0.9989940332242763  0.2771194427096315  1.0000
  C   C22       1.0  0.8405784866538281  0.9562104350036608  0.2417575124735067  1.0000
  N   N3        1.0  0.7777331939104449  0.9224409038436698  0.21385568257088725  1.0000
  H   H9        1.0  0.9943526190230776  0.28191427462981444  0.9474073672116715  1.0000
  H   H10       1.0  0.9139771638541534  0.39989631663372305  0.5206350051781838  1.0000
  H   H11       1.0  0.9083857646041176  0.28510378405842496  0.31470004822327624  1.0000
  H   H12       1.0  0.9350922948052147  0.8682540655672607  0.5212186441490596  1.0000
  H   H13       1.0  0.9745873856473126  0.7523885941847037  0.8491897369460912  1.0000
  H   H14       1.0  0.9556580843478432  0.9015949826593278  0.28503938037615617  1.0000
  H   H15       1.0  0.9428680633318002  0.07493718681182848  0.19815412973586446  1.0000
  C   C23       1.0  0.9305706813483532  0.6243988188370728  0.26117672728189256  1.0000
  C   C24       1.0  0.8522254532395416  0.6547244246203356  0.2513203602017082  1.0000
  C   C25       1.0  0.8129899302167235  0.6719659895350305  0.12895770513464044  1.0000
  C   C26       1.0  0.8522313246338232  0.6543958444703031  0.01618709046714817  1.0000
  C   C27       1.0  0.9305564338450404  0.6241051104536628  0.023881245314133267  1.0000
  C   C28       1.0  0.9693809028947736  0.6098074219358911  0.14685115855765063  1.0000
  N   N4        1.0  0.7324956388948135  0.7007768000973107  0.11738421138853328  1.0000
  C   C29       1.0  0.6949145848284308  0.7887484813976211  0.20171099364603529  1.0000
  O   O1        1.0  0.7334489452136446  0.8677647278903423  0.27707019681740364  1.0000
  C   C30       1.0  0.6094286806342195  0.7952150661541997  0.19361335558084547  1.0000
  H   H16       1.0  0.960093533017671  0.6107796888685051  0.5924735714475535  1.0000
  H   H17       1.0  0.8213829094467641  0.6620874419272584  0.33894008901509465  1.0000
  H   H18       1.0  0.8213551705403083  0.6657140787831375  0.9222891588186428  1.0000
  H   H19       1.0  0.02981108604003624  0.5864574928364488  0.15364184993367913  1.0000
  H   H20       1.0  0.959969044890589  0.610502438345819  0.6995159775695976  1.0000
  H   H21       1.0  0.7002258961026105  0.6632409346368437  0.03781612118460553  1.0000
  H   H22       1.0  0.5833279636434525  0.6861537092131011  0.1791757187342744  1.0000
  H   H23       1.0  0.5886226113252866  0.8327359996266712  0.2849354004954292  1.0000
  H   H24       1.0  0.5914322870935702  0.8714335834531677  0.11023260587460036  1.0000
  Zn  Zn1       1.0  0.8464741622112302  0.6201786726735854  0.6356664168871795  1.0000
  Zn  Zn2       1.0  0.014645578006220234  0.6283242549479171  0.649390325420544  1.0000
  C   C31       1.0  0.9305244499576285  0.6184126216392587  0.8797145709090806  1.0000
  C   C32       1.0  0.930597137118509  0.6300922153906161  0.40534244841432954  1.0000
  C   C33       1.0  0.9320700904151747  0.8877744696621681  0.6373088509836273  1.0000
  C   C34       1.0  0.9290514293387854  0.36072863106385555  0.6477482331874127  1.0000
  O   O2        1.0  0.9944261556997062  0.6350878826616588  0.45893393423349704  1.0000
  O   O3        1.0  0.9943336385114414  0.6195981745097754  0.8365388404726729  1.0000
  O   O4        1.0  0.995580902376439  0.8371112311429406  0.6407944361074513  1.0000
  O   O5        1.0  0.9931788345101763  0.41757483360789355  0.6546782365435111  1.0000
  O   O6        1.0  0.8679408483186327  0.8309280912354953  0.6303785010740848  1.0000
  O   O7        1.0  0.8666935943871703  0.6134167681280662  0.8261228359015496  1.0000
  O   O8        1.0  0.8667861113675069  0.6289064266041522  0.44851636834267095  1.0000
  O   O9        1.0  0.8655387901138677  0.41139336719287245  0.6442607680177657  1.0000
