data_image0
_chemical_formula_structural       NC8NH4C6ClH5C6BrH2Zn2C4O8
_chemical_formula_sum              "N2 C24 H11 Cl1 Br1 Zn2 O8"
_cell_length_a       13.859017124695912
_cell_length_b       9.276545438789551
_cell_length_c       9.275428193871797
_cell_angle_alpha    86.19890630967393
_cell_angle_beta     89.9409138534418
_cell_angle_gamma    89.40963735980037

_space_group_name_H-M_alt    "P 1"
_space_group_IT_number       1

loop_
  _space_group_symop_operation_xyz
  'x, y, z'

loop_
  _atom_site_type_symbol
  _atom_site_label
  _atom_site_symmetry_multiplicity
  _atom_site_fract_x
  _atom_site_fract_y
  _atom_site_fract_z
  _atom_site_occupancy
  N   N1        1.0  0.8989185209482117  0.5612177133451891  0.41145306761749606  1.0000
  C   C1        1.0  0.8267645108655985  0.537766450595556  0.3552912994155022  1.0000
  C   C2        1.0  0.737009189662474  0.5085965009016993  0.285433277960872  1.0000
  C   C3        1.0  0.649150867783316  0.5370342328990234  0.35353606009665506  1.0000
  C   C4        1.0  0.561778861791028  0.508597720417809  0.2854326995337899  1.0000
  C   C5        1.0  0.5624476542917087  0.45171575559781574  0.1492056527776125  1.0000
  C   C6        1.0  0.6501224811581396  0.4233873267175645  0.08136501638393079  1.0000
  C   C7        1.0  0.7373130284699613  0.45171341895031114  0.14920682943800068  1.0000
  C   C8        1.0  0.47152466613757943  0.5377673717439244  0.355290802073954  1.0000
  N   N2        1.0  0.3989696444764935  0.5612180336216441  0.41145285185450164  1.0000
  H   H1        1.0  0.6487744036345654  0.5810630741484157  0.4589790584980551  1.0000
  H   H2        1.0  0.4953435886868466  0.4293341611286976  0.09560130926065225  1.0000
  H   H3        1.0  0.6504982437543437  0.3794484021102786  0.9761355583035699  1.0000
  H   H4        1.0  0.8047998343356939  0.42932973463102564  0.09560348365264473  1.0000
  C   C9        1.0  0.1518609736087806  0.13778022926645828  0.4112154276453152  1.0000
  C   C10       1.0  0.15231844723079857  0.22002163081052603  0.2782127809275443  1.0000
  C   C11       1.0  0.14399546255960716  0.15356285655927593  0.1481049638507204  1.0000
  C   C12       1.0  0.13501716909792205  0.0039811766942818875  0.14899811667837892  1.0000
  C   C13       1.0  0.13605004198968043  0.9201754790747289  0.27955949757165494  1.0000
  C   C14       1.0  0.14603651262576567  0.9846446217498849  0.411702979905689  1.0000
  Cl  Cl1       1.0  0.14336195319317158  0.2584401700987833  0.9835956714984976  1.0000
  H   H5        1.0  0.20105227925703995  0.4031411338347741  0.6377665629800853  1.0000
  H   H6        1.0  0.15684163177589605  0.3367119531117313  0.2753598212212083  1.0000
  H   H7        1.0  0.12815603191893166  0.9521924044997409  0.04833894061291444  1.0000
  H   H8        1.0  0.13133463754663777  0.8038869182487147  0.2769097612325335  1.0000
  H   H9        1.0  0.11352949417193092  0.6883793661752248  0.644713907187787  1.0000
  C   C15       1.0  0.14927103173037648  0.5567261395266536  0.9883029228026206  1.0000
  C   C16       1.0  0.23813594750171152  0.5594106724982593  0.06134975523166398  1.0000
  C   C17       1.0  0.32460482175242733  0.5752540156268054  0.9848221035230563  1.0000
  C   C18       1.0  0.3235702571281682  0.5888330066763856  0.8342726782471974  1.0000
  C   C19       1.0  0.23640586341957118  0.5840682065698088  0.7597175008447611  1.0000
  C   C20       1.0  0.1486264569354748  0.5656986833861428  0.8346154776106864  1.0000
  Br  Br1       1.0  0.4442017489933212  0.5807666481683604  0.08638915849703713  1.0000
  H   H10       1.0  0.9166529597783893  0.6281761162163939  0.08690950622381369  1.0000
  H   H11       1.0  0.3904744358278529  0.6017188512231288  0.7747002000414216  1.0000
  Zn  Zn1       1.0  0.04322249664500567  0.5612140442268465  0.41146132898370413  1.0000
  Zn  Zn2       1.0  0.25466573304155515  0.5612100654963345  0.411456402519889  1.0000
  C   C21       1.0  0.14878562878871773  0.5582582830823464  0.6746409707942955  1.0000
  C   C22       1.0  0.14910489723055487  0.564167647472551  0.1482769031361202  1.0000
  C   C23       1.0  0.1471368480081099  0.8245083131973385  0.40586858580543844  1.0000
  C   C24       1.0  0.1507536177169229  0.2979158857538622  0.4170493639545523  1.0000
  O   O1        1.0  0.22929079050734802  0.5666572848813909  0.2019637591274888  1.0000
  O   O2        1.0  0.22908026727093178  0.5557645337156534  0.6209499602955415  1.0000
  O   O3        1.0  0.2277477731024529  0.7707648161303833  0.4039143586961802  1.0000
  O   O4        1.0  0.230623212535922  0.3516570116375704  0.41899925269026306  1.0000
  O   O5        1.0  0.06726494499543433  0.7707670980884584  0.40391847880743204  1.0000
  O   O6        1.0  0.06859742730294838  0.5557685472802727  0.6209540045713207  1.0000
  O   O7        1.0  0.06880795226869199  0.5666612298301885  0.2019660708878379  1.0000
  O   O8        1.0  0.0701403742819664  0.35166094741830634  0.4190016724813015  1.0000
