data_image0
_chemical_formula_structural       NC6NCNCH5C6NCH9C6NH7Zn2C4O8
_chemical_formula_sum              "N5 C25 H21 Zn2 O8"
_cell_length_a       14.933214217465613
_cell_length_b       9.273386996610927
_cell_length_c       9.274774538082514
_cell_angle_alpha    84.97283399596293
_cell_angle_beta     90.31607823643775
_cell_angle_gamma    89.43266693644959

_space_group_name_H-M_alt    "P 1"
_space_group_IT_number       1

loop_
  _space_group_symop_operation_xyz
  'x, y, z'

loop_
  _atom_site_type_symbol
  _atom_site_label
  _atom_site_symmetry_multiplicity
  _atom_site_fract_x
  _atom_site_fract_y
  _atom_site_fract_z
  _atom_site_occupancy
  N   N1        1.0  0.8267976658216262  0.5936242520696957  0.40456635733630386  1.0000
  C   C1        1.0  0.7492970825931785  0.5946300050716233  0.4035729878200611  1.0000
  C   C2        1.0  0.6528857709453599  0.5958839232882681  0.40233437901909774  1.0000
  C   C3        1.0  0.6060533262664889  0.4992492133635838  0.4977984008402583  1.0000
  C   C4        1.0  0.5125086847870403  0.5003419434231724  0.49671893804525324  1.0000
  C   C5        1.0  0.46489470238915487  0.5980140164900581  0.40023015666406736  1.0000
  C   C6        1.0  0.3683410179000898  0.5958860989586605  0.40233230207476134  1.0000
  N   N2        1.0  0.290873596645927  0.5941109488715544  0.4040855821142526  1.0000
  C   C7        1.0  0.5118133878862374  0.6958689581777622  0.30356081274564106  1.0000
  N   N3        1.0  0.4654596280580587  0.7973877614648729  0.20327213569178104  1.0000
  C   C8        1.0  0.605848395516445  0.693801299687696  0.3056035378674504  1.0000
  H   H1        1.0  0.6418329973634381  0.42305924387338273  0.5730653188884853  1.0000
  H   H2        1.0  0.4772007705396803  0.4247928969447625  0.5713525707852367  1.0000
  H   H3        1.0  0.5010791853594787  0.869090097958458  0.13243840184415512  1.0000
  H   H4        1.0  0.3956627047540576  0.8027894271125657  0.1979359797810249  1.0000
  H   H5        1.0  0.6422885484059059  0.7685901998719662  0.23172067953361505  1.0000
  C   C9        1.0  0.06159631015640213  0.17021031280515062  0.40503234388536313  1.0000
  C   C10       1.0  0.07681736367393754  0.25483801918732274  0.27452059371349846  1.0000
  C   C11       1.0  0.08360700572654478  0.19147846555291692  0.14400951099498013  1.0000
  C   C12       1.0  0.07527305918289723  0.04119818215902704  0.14067339210900554  1.0000
  C   C13       1.0  0.0616283210968096  0.9556131611231514  0.27073019556003336  1.0000
  C   C14       1.0  0.056083613855956185  0.01751362867863393  0.4036321493599253  1.0000
  N   N4        1.0  0.08129533791165011  0.9728248574628986  0.007468719122863734  1.0000
  C   C15       1.0  0.0956708126475909  0.051962634446585554  0.8666137193157613  1.0000
  H   H6        1.0  0.08080291655579619  0.43031220568468087  0.6419619196214938  1.0000
  H   H7        1.0  0.08137789995344541  0.3715041110898867  0.2727451972949362  1.0000
  H   H8        1.0  0.09452250154519543  0.26094555936610875  0.045963151431351656  1.0000
  H   H9        1.0  0.05739287413918781  0.8392274727448851  0.2684577741323195  1.0000
  H   H10       1.0  0.09040714107623488  0.8831271792743068  0.7551202185718606  1.0000
  H   H11       1.0  0.07497599205380495  0.8604250514538277  0.010468087501326771  1.0000
  H   H12       1.0  0.04006148536364229  0.13069620376599755  0.8415950973655435  1.0000
  H   H13       1.0  0.1604861043939625  0.10958032415564659  0.8667794700829331  1.0000
  H   H14       1.0  0.09759938558226282  0.9752719543760413  0.781169436476715  1.0000
  C   C16       1.0  0.057208905755763435  0.5975502050269481  0.9805114847101358  1.0000
  C   C17       1.0  0.12010651406819609  0.6827529992750692  0.04704156858413366  1.0000
  C   C18       1.0  0.1870988060433825  0.7560759181381174  0.9660857037088361  1.0000
  C   C19       1.0  0.19173776597555953  0.7445288407895012  0.8171226509388918  1.0000
  C   C20       1.0  0.12910677511701185  0.6625044635488291  0.7488844548357729  1.0000
  C   C21       1.0  0.06047102889620405  0.5901737159083729  0.8281529771905762  1.0000
  N   N5        1.0  0.2510257298942373  0.8410790798934886  0.035620299463301475  1.0000
  H   H15       1.0  0.9251924205429529  0.315388016998295  0.10703652077153977  1.0000
  H   H16       1.0  0.1184501013114872  0.6895936243050884  0.16305206037103948  1.0000
  H   H17       1.0  0.24346615816368355  0.8003234798931129  0.753445802896096  1.0000
  H   H18       1.0  0.13312597454540076  0.6584956211168522  0.6327139005085347  1.0000
  H   H19       1.0  0.9687745434592291  0.4045166618688143  0.5624740881024262  1.0000
  H   H20       1.0  0.24836651038675162  0.8501234515235211  0.1469779652154155  1.0000
  H   H21       1.0  0.30146901012901894  0.8957378534148366  0.9762353498621302  1.0000
  Zn  Zn1       1.0  0.9607200127662132  0.5937607585536171  0.404435965543533  1.0000
  Zn  Zn2       1.0  0.15695135765483137  0.5939625037548197  0.4042278455130668  1.0000
  C   C22       1.0  0.059889818222876895  0.5858206946013691  0.6679400867368919  1.0000
  C   C23       1.0  0.057783683740252334  0.6019043889961846  0.14072386069414566  1.0000
  C   C24       1.0  0.057098902983700364  0.8574053247535162  0.39814555487466774  1.0000
  C   C25       1.0  0.060574543592725634  0.3303180247880186  0.4105184724376884  1.0000
  O   O1        1.0  0.13244539814910006  0.6034359601744772  0.1944136275667958  1.0000
  O   O2        1.0  0.13416315958237918  0.5844411586186364  0.6140919479148083  1.0000
  O   O3        1.0  0.13190846213153054  0.8037491680312838  0.39623095318070223  1.0000
  O   O4        1.0  0.13470002815587837  0.38412796195507326  0.41227451414099825  1.0000
  O   O5        1.0  0.9829712753009996  0.803595300286154  0.39638929697902836  1.0000
  O   O6        1.0  0.9852259611743851  0.5842890248623163  0.6142502118952429  1.0000
  O   O7        1.0  0.9835081934498449  0.6032837912443534  0.19457015642326003  1.0000
  O   O8        1.0  0.9857628239365268  0.3839757817644973  0.4124311512207939  1.0000
