data_image0
_chemical_formula_structural       NC8NH4C6NH7C7NH4Zn2C4O8
_chemical_formula_sum              "N4 C25 H15 Zn2 O8"
_cell_length_a       13.859017981522156
_cell_length_b       9.274771166103582
_cell_length_c       9.275157849593905
_cell_angle_alpha    86.00874675488272
_cell_angle_beta     89.7408760017346
_cell_angle_gamma    90.59707920365587

_space_group_name_H-M_alt    "P 1"
_space_group_IT_number       1

loop_
  _space_group_symop_operation_xyz
  'x, y, z'

loop_
  _atom_site_type_symbol
  _atom_site_label
  _atom_site_symmetry_multiplicity
  _atom_site_fract_x
  _atom_site_fract_y
  _atom_site_fract_z
  _atom_site_occupancy
  N   N1        1.0  0.9243118384672673  0.5633177766183592  0.4075128772392038  1.0000
  C   C1        1.0  0.8520895903118784  0.5556948951069216  0.34622729256012774  1.0000
  C   C2        1.0  0.7622493738107663  0.5462134000221327  0.26999599907962124  1.0000
  C   C3        1.0  0.76238790328315  0.5277235823824404  0.12134123781884076  1.0000
  C   C4        1.0  0.675115126421002  0.518516680774505  0.04731085321884976  1.0000
  C   C5        1.0  0.5875226400892865  0.5277253027862236  0.12134098643217238  1.0000
  C   C6        1.0  0.5870191442588085  0.5462143717697381  0.2699958135558429  1.0000
  C   C7        1.0  0.6744738496698992  0.5554572277151011  0.34431205363719086  1.0000
  C   C8        1.0  0.49684978056476714  0.5556957967789906  0.34622705054253644  1.0000
  N   N2        1.0  0.4243629252668754  0.5633180892807022  0.407512783085477  1.0000
  H   H1        1.0  0.8298096867591409  0.5204477124829828  0.06284715796580853  1.0000
  H   H2        1.0  0.6753630440515986  0.5042343511971739  0.9324814460670886  1.0000
  H   H3        1.0  0.5203534398983493  0.5204508069721914  0.06284673245170169  1.0000
  H   H4        1.0  0.6742254185082447  0.569768368829259  0.45937491699640987  1.0000
  C   C9        1.0  0.17137736218507654  0.13972896065642135  0.4082983242741523  1.0000
  C   C10       1.0  0.14955527796739035  0.2217960520182054  0.2794260837453757  1.0000
  C   C11       1.0  0.13674442785200625  0.15549713468788884  0.14973620281504996  1.0000
  C   C12       1.0  0.1458090254755109  0.00574460261804788  0.14797920645943163  1.0000
  C   C13       1.0  0.16585210042531373  0.9223410253790575  0.275081119501317  1.0000
  C   C14       1.0  0.17730654294659368  0.9868959879690412  0.40673984062921065  1.0000
  N   N3        1.0  0.11551935623433973  0.24065007803576166  0.0194475815148476  1.0000
  H   H5        1.0  0.2790346532412944  0.2224280375120915  0.7236883333346584  1.0000
  H   H6        1.0  0.14469181900848763  0.33838342330610716  0.2788725154219107  1.0000
  H   H7        1.0  0.13640904710285962  0.9532959917193752  0.04819592743384704  1.0000
  H   H8        1.0  0.17011658525177725  0.8061372480793991  0.2709538607900317  1.0000
  H   H9        1.0  0.2459009173762572  0.6918971059259864  0.6213167171533716  1.0000
  H   H10       1.0  0.10887151911299699  0.35272352375570626  0.019400776062135746  1.0000
  H   H11       1.0  0.10620320352211325  0.19224150888593702  0.9220342741191221  1.0000
  C   C15       1.0  0.1755937292267802  0.5592351519233445  0.9843287977113722  1.0000
  C   C16       1.0  0.259088432975505  0.6062591970629403  0.05393830395970922  1.0000
  C   C17       1.0  0.33771290526772635  0.6646257981368668  0.9739527472106709  1.0000
  C   C18       1.0  0.33376099187093616  0.676896262163821  0.8232712272214613  1.0000
  C   C19       1.0  0.2522418757314837  0.6287041598238228  0.7523223275631152  1.0000
  C   C20       1.0  0.1730901878982361  0.5673897213651519  0.8307093670121924  1.0000
  C   C21       1.0  0.4221673710982692  0.7136586580992377  0.046866149835369963  1.0000
  N   N4        1.0  0.49004713217160156  0.7530678561996719  0.10547623440260634  1.0000
  H   H12       1.0  0.9404850623813679  0.5105996484605022  0.09225592779528502  1.0000
  H   H13       1.0  0.39416398815290193  0.7225234564683731  0.7603644792467016  1.0000
  H   H14       1.0  0.25208149615051667  0.6362878157406588  0.6352439363666131  1.0000
  H   H15       1.0  0.015761619479529587  0.5285877121108578  0.5533742799511465  1.0000
  Zn  Zn1       1.0  0.0686157348483527  0.5633140951083198  0.40752117539581056  1.0000
  Zn  Zn2       1.0  0.280058914341204  0.563310115245781  0.40751629765859354  1.0000
  C   C22       1.0  0.17352101710864098  0.5601019233512281  0.670735862864551  1.0000
  C   C23       1.0  0.17515595335349943  0.5665241083480634  0.14430174823289565  1.0000
  C   C24       1.0  0.1761978100450552  0.8267080267373622  0.4012917154254998  1.0000
  C   C25       1.0  0.17247907590982248  0.2999162726648832  0.4137459756932613  1.0000
  O   O1        1.0  0.2552505724000462  0.5689625453951519  0.19798829230006532  1.0000
  O   O2        1.0  0.253906872446118  0.5576593734992625  0.6170452038671832  1.0000
  O   O3        1.0  0.2560673304675831  0.7729471881355202  0.39946714571381814  1.0000
  O   O4        1.0  0.2530900426191829  0.35367474003790944  0.4155662423832258  1.0000
  O   O5        1.0  0.0955845344152273  0.7729494703190469  0.39947123066525925  1.0000
  O   O6        1.0  0.0934240887458786  0.5576633879826904  0.6170492087913906  1.0000
  O   O7        1.0  0.09476779353723087  0.5689664929191751  0.1979905646910605  1.0000
  O   O8        1.0  0.09260726336061943  0.3536786782857726  0.41556862283850715  1.0000
