data_image0
_chemical_formula_structural       NC6NC2H4C10H5C8H9Zn2C4O8
_chemical_formula_sum              "N2 C30 H18 Zn2 O8"
_cell_length_a       14.927258858638513
_cell_length_b       9.275150299802178
_cell_length_c       9.275657083861812
_cell_angle_alpha    85.52524859498646
_cell_angle_beta     89.50283401398404
_cell_angle_gamma    89.48389287567745

_space_group_name_H-M_alt    "P 1"
_space_group_IT_number       1

loop_
  _space_group_symop_operation_xyz
  'x, y, z'

loop_
  _atom_site_type_symbol
  _atom_site_label
  _atom_site_symmetry_multiplicity
  _atom_site_fract_x
  _atom_site_fract_y
  _atom_site_fract_z
  _atom_site_occupancy
  N   N1        1.0  0.8433980806549027  0.5708505936469583  0.4010061678071475  1.0000
  C   C1        1.0  0.7658715895886135  0.5708505651775819  0.40100617855719695  1.0000
  C   C2        1.0  0.669439081673591  0.5708506800765634  0.40100612804601765  1.0000
  C   C3        1.0  0.6232053337263134  0.5464972678851565  0.27445910693924125  1.0000
  C   C4        1.0  0.529494022963402  0.5464972928480063  0.27445897334044034  1.0000
  C   C5        1.0  0.4816230185697153  0.570850502534404  0.4010061476816979  1.0000
  C   C6        1.0  0.3851904436631729  0.5708506174363206  0.40100609716457813  1.0000
  N   N2        1.0  0.30766395259688367  0.5708505889669442  0.40100610791462765  1.0000
  C   C7        1.0  0.527856699525473  0.5952039147287467  0.5275531687825339  1.0000
  C   C8        1.0  0.6215680102883839  0.5952038897658964  0.5275533023813341  1.0000
  H   H1        1.0  0.6595384689316965  0.5275489394751269  0.17599826149956163  1.0000
  H   H2        1.0  0.4944348123472348  0.527549137085097  0.1759982554440695  1.0000
  H   H3        1.0  0.49152363077952016  0.6141522333714663  0.6260141223620236  1.0000
  H   H4        1.0  0.6566272197639018  0.6141521434711177  0.6260141297506736  1.0000
  C   C9        1.0  0.07788593472049676  0.1471574318780524  0.4034194256297521  1.0000
  C   C10       1.0  0.12558800173116305  0.2286498821469083  0.2943607295950371  1.0000
  C   C11       1.0  0.16563732330495073  0.1619122719174606  0.1797598137616667  1.0000
  C   C12       1.0  0.15839266715739908  0.012708746095976501  0.1727414819980097  1.0000
  C   C13       1.0  0.1126499056947115  0.9297691306832873  0.2811523137954097  1.0000
  C   C14       1.0  0.07318465306853139  0.9945326636656503  0.3986054060137769  1.0000
  C   C15       1.0  0.21336378421599522  0.24713406444568276  0.06820760173146921  1.0000
  C   C16       1.0  0.2533228667508361  0.3185098109012616  0.9748151496654834  1.0000
  C   C17       1.0  0.3001130995216894  0.4020957726234311  0.8654566613420034  1.0000
  C   C18       1.0  0.3400644779958901  0.4734661287934623  0.7720821119526293  1.0000
  H   H5        1.0  0.12988018540747448  0.34510967334223897  0.29658766839423145  1.0000
  H   H6        1.0  0.18890323971409595  0.9601085691117021  0.0840644515508957  1.0000
  H   H7        1.0  0.10994394659418341  0.8137371358394934  0.2749287445126034  1.0000
  H   H8        1.0  0.013117614271097821  0.8658192865765075  0.7411041859408596  1.0000
  H   H9        1.0  0.37514512055701754  0.5361353613601847  0.6900915453424488  1.0000
  C   C19       1.0  0.0778292921537227  0.5686700534866902  0.9777048901083195  1.0000
  C   C20       1.0  0.12362446305872693  0.6786549865747318  0.042020429260531955  1.0000
  C   C21       1.0  0.16147516138461748  0.7948151747263428  0.9576219204647693  1.0000
  C   C22       1.0  0.15486571523040227  0.8000060921607508  0.8069535443267383  1.0000
  C   C23       1.0  0.11100184947155128  0.6906671434044225  0.7411817312555469  1.0000
  C   C24       1.0  0.07324131932413928  0.5730200533423693  0.8243199641643648  1.0000
  C   C25       1.0  0.21138035924460788  0.9105158171163159  0.028164505699415983  1.0000
  C   C26       1.0  0.3100087165236833  0.8693449367992099  0.04624300716120322  1.0000
  H   H10       1.0  0.12827117312503372  0.6759800577870629  0.1587606513433941  1.0000
  H   H11       1.0  0.18457777082061158  0.888190095385485  0.7400663266380603  1.0000
  H   H12       1.0  0.10866533515998959  0.6962898655430609  0.6241754678123002  1.0000
  H   H13       1.0  0.9683913406436071  0.4067349199781205  0.5574302640244277  1.0000
  H   H14       1.0  0.20589314639818002  0.015259581051550336  0.9617291359261313  1.0000
  H   H15       1.0  0.1814937781731759  0.9268563956228149  0.13594817032176199  1.0000
  H   H16       1.0  0.3169555513027316  0.7667052506678089  0.1155742999109628  1.0000
  H   H17       1.0  0.3416080998808322  0.8560660558427875  0.9391436302262255  1.0000
  H   H18       1.0  0.3455541254792479  0.9559552743287096  0.0983175688142528  1.0000
  Zn  Zn1       1.0  0.9773751668933973  0.5708467689691099  0.4010145018218385  1.0000
  Zn  Zn2       1.0  0.17368687872709898  0.5708426562854256  0.4010096658401638  1.0000
  C   C27       1.0  0.07413843715565684  0.5664499703305297  0.6643242182230351  1.0000
  C   C28       1.0  0.07692574131588108  0.5752412760793744  0.13770008052762472  1.0000
  C   C29       1.0  0.07409983621359256  0.8343312143374514  0.3937710758636036  1.0000
  C   C30       1.0  0.07696428447129433  0.30735829900402956  0.40825330958940054  1.0000
  O   O1        1.0  0.1511218078766075  0.577438783143839  0.19139412853644622  1.0000
  O   O2        1.0  0.1489384258203854  0.5642482512502607  0.6106260910422623  1.0000
  O   O3        1.0  0.14890624266295993  0.7805657513290423  0.3921525058805022  1.0000
  O   O4        1.0  0.15115392457460275  0.3611212928323666  0.4098676055583961  1.0000
  O   O5        1.0  0.9999080540543737  0.7805681324251039  0.3921565620976657  1.0000
  O   O6        1.0  0.99994022800693  0.5642523654176803  0.6106300605511399  1.0000
  O   O7        1.0  0.002123619793709789  0.5774428381278749  0.1913963652252153  1.0000
  O   O8        1.0  0.002155735959615159  0.3611253380520283  0.4098699503810346  1.0000
