data_image0
_chemical_formula_structural       NC6NC3H6C6NH5C9H9Zn2C4O8
_chemical_formula_sum              "N3 C28 H20 Zn2 O8"
_cell_length_a       14.934028789175542
_cell_length_b       9.274771166103582
_cell_length_c       10.297187173949778
_cell_angle_alpha    85.46307945309522
_cell_angle_beta     89.94921482241688
_cell_angle_gamma    90.55950156128424

_space_group_name_H-M_alt    "P 1"
_space_group_IT_number       1

loop_
  _space_group_symop_operation_xyz
  'x, y, z'

loop_
  _atom_site_type_symbol
  _atom_site_label
  _atom_site_symmetry_multiplicity
  _atom_site_fract_x
  _atom_site_fract_y
  _atom_site_fract_z
  _atom_site_occupancy
  N   N1        1.0  0.8538437698051059  0.5776047490421781  0.5640960369169754  1.0000
  C   C1        1.0  0.7763507788808095  0.5765062503754825  0.5634861297851927  1.0000
  C   C2        1.0  0.6799455608847544  0.5751346673395217  0.5627247746959623  1.0000
  C   C3        1.0  0.6328591032753148  0.6819544575124752  0.6219231918926253  1.0000
  C   C4        1.0  0.5393404076651397  0.6808531723666733  0.6213127541939232  1.0000
  C   C5        1.0  0.49199596559799336  0.572986610165725  0.5615342905936389  1.0000
  C   C6        1.0  0.39536484645228476  0.575300996335393  0.5628180644411376  1.0000
  N   N2        1.0  0.31789635238019126  0.5771377535899804  0.5638371967257778  1.0000
  C   C7        1.0  0.5390674988691514  0.46468899149364584  0.5015163761949588  1.0000
  C   C8        1.0  0.4900089818687732  0.3474156166715785  0.4365258694496585  1.0000
  C   C9        1.0  0.6332243753328014  0.46691403347245775  0.5027495185372519  1.0000
  H   H1        1.0  0.6684360871775538  0.766118543664206  0.668566584535913  1.0000
  H   H2        1.0  0.5038333437867284  0.7643690729614973  0.6675967991986209  1.0000
  H   H3        1.0  0.4476017832650553  0.39648665391768056  0.35659825204416973  1.0000
  H   H4        1.0  0.4468350275685328  0.28456465280920185  0.5088228036743851  1.0000
  H   H5        1.0  0.5369870425184469  0.27145596174870823  0.39442399959621816  1.0000
  H   H6        1.0  0.6702315310892606  0.3845091433456389  0.4570814464074134  1.0000
  C   C10       1.0  0.0831250827721483  0.1537775490022728  0.5646761680909558  1.0000
  C   C11       1.0  0.06255614991803314  0.23709112017929487  0.44852544083867585  1.0000
  C   C12       1.0  0.05034771966318649  0.1720380396144281  0.33163305113609587  1.0000
  C   C13       1.0  0.05875542762040806  0.02229375160959135  0.3300446505285515  1.0000
  C   C14       1.0  0.07766905556583616  0.9376622000597387  0.4446005721282962  1.0000
  C   C15       1.0  0.08862358081895527  0.0009538621496378786  0.5632683240720617  1.0000
  N   N3        1.0  0.030329327776744228  0.2584503801813425  0.2142053268838635  1.0000
  H   H7        1.0  0.1838099517155187  0.23337540165148818  0.8489046475212321  1.0000
  H   H8        1.0  0.049786074464578146  0.9708032595912361  0.2401075135508337  1.0000
  H   H9        1.0  0.1528090416333041  0.7038493962134634  0.7566467336795091  1.0000
  H   H10       1.0  0.02415995035069263  0.3705304843805941  0.21416657777214934  1.0000
  H   H11       1.0  0.021443610290481127  0.21097730376634427  0.12640437609835886  1.0000
  C   C16       1.0  0.08599236440648167  0.5773134260918051  0.18251909968015578  1.0000
  C   C17       1.0  0.9955056843049302  0.617025126389927  0.1790219657225578  1.0000
  C   C18       1.0  0.9491466895005801  0.6373703590165303  0.06061387755103742  1.0000
  C   C19       1.0  0.9951549098755219  0.6171785151192386  0.9437991825435241  1.0000
  C   C20       1.0  0.08575629464910722  0.5774179756179414  0.9454253680842251  1.0000
  C   C21       1.0  0.13058335215794623  0.5577436609289068  0.06517420417780606  1.0000
  C   C22       1.0  0.8512788211022743  0.680321106069826  0.06626364774313442  1.0000
  C   C23       1.0  0.7882138582761442  0.6223652300908653  0.9661231900315559  1.0000
  C   C24       1.0  0.8158733699429747  0.7814764224393046  0.9547443750287722  1.0000
  H   H12       1.0  0.9605729324273657  0.6323563828285068  0.26909423771489194  1.0000
  H   H13       1.0  0.9611914742957478  0.6320806472056433  0.8511863736738041  1.0000
  H   H14       1.0  0.20039554612984323  0.527104532570168  0.06714497053576385  1.0000
  H   H15       1.0  0.25687328283724853  0.5023030576671195  0.7412816586591915  1.0000
  H   H16       1.0  0.819822632517835  0.6941274219364919  0.16233563566658127  1.0000
  H   H17       1.0  0.8181157084583689  0.5572278941021651  0.8916894894102053  1.0000
  H   H18       1.0  0.7184935496707275  0.6029173495126523  0.0013130251510127288  1.0000
  H   H19       1.0  0.8625772990170176  0.8129902546735404  0.8733995949430069  1.0000
  H   H20       1.0  0.762318032187475  0.855022463498258  0.9832813764190457  1.0000
  Zn  Zn1       1.0  0.987759307154799  0.5774661198653452  0.5640288431603115  1.0000
  Zn  Zn2       1.0  0.18398076511957495  0.577264568248173  0.5639150301781117  1.0000
  C   C25       1.0  0.0857616137992007  0.5716516895743682  0.8012292956155487  1.0000
  C   C26       1.0  0.08598061298070477  0.5830808164015071  0.3267147009500144  1.0000
  C   C27       1.0  0.08758122953703878  0.8408187703690926  0.5583581022511344  1.0000
  C   C28       1.0  0.08416091901658856  0.31391200262739916  0.5695859664872502  1.0000
  O   O1        1.0  0.1604416489315953  0.5849336244405088  0.37506488100369717  1.0000
  O   O2        1.0  0.16022811724101518  0.5696448202739384  0.7527923620216459  1.0000
  O   O3        1.0  0.16169647571944112  0.787000643314161  0.5566721531156067  1.0000
  O   O4        1.0  0.15897322359318958  0.36757781177454474  0.5711849925352541  1.0000
  O   O5        1.0  0.01276678172044376  0.7871528764093221  0.5567588808351727  1.0000
  O   O6        1.0  0.01129843450755485  0.569798786418833  0.7528790176003946  1.0000
  O   O7        1.0  0.011511966414716964  0.5850875401047184  0.3751499749204561  1.0000
  O   O8        1.0  0.010043540975549492  0.3677317171348453  0.571270183858499  1.0000
