data_image0
_chemical_formula_structural       NC5NC4H6C6ClH5C6NCOH5Zn2C4O8
_chemical_formula_sum              "N3 C26 H16 Cl1 O9 Zn2"
_cell_length_a       13.854160002989762
_cell_length_b       10.30297070629231
_cell_length_c       9.27373355559583
_cell_angle_alpha    86.17407986501598
_cell_angle_beta     90.01106291040419
_cell_angle_gamma    89.9983107048755

_space_group_name_H-M_alt    "P 1"
_space_group_IT_number       1

loop_
  _space_group_symop_operation_xyz
  'x, y, z'

loop_
  _atom_site_type_symbol
  _atom_site_label
  _atom_site_symmetry_multiplicity
  _atom_site_fract_x
  _atom_site_fract_y
  _atom_site_fract_z
  _atom_site_occupancy
  N   N1        1.0  0.9086725234967853  0.40546911290500626  0.4102793741074171  1.0000
  C   C1        1.0  0.8363317263771011  0.4275943906161132  0.35124700571187184  1.0000
  C   C2        1.0  0.7463387562235758  0.4551188298253537  0.27780847909340783  1.0000
  C   C3        1.0  0.6587773775338109  0.4292709701636722  0.34951468757773996  1.0000
  C   C4        1.0  0.5711963438490529  0.4551188425008166  0.2778084559263916  1.0000
  C   C5        1.0  0.48122358502744544  0.4275942588846979  0.35124709731032655  1.0000
  N   N2        1.0  0.4088989529002016  0.4054690557443856  0.4102793740197779  1.0000
  C   C6        1.0  0.5712093136996087  0.5073606284778287  0.13441501571956116  1.0000
  C   C7        1.0  0.6587379038677857  0.5351430256767122  0.06260542554270265  1.0000
  C   C8        1.0  0.6587167392284489  0.5874908960416252  0.9077256414959128  1.0000
  C   C9        1.0  0.7462864027236573  0.5073606264126633  0.13441492546214318  1.0000
  H   H1        1.0  0.6587926459906538  0.3887366575697184  0.460498575575528  1.0000
  H   H2        1.0  0.5033287364137145  0.5264351640674325  0.07877862032007621  1.0000
  H   H3        1.0  0.7235665937953678  0.6486191400270778  0.8839455668520153  1.0000
  H   H4        1.0  0.5938581161450527  0.6486191423453547  0.8839456319218625  1.0000
  H   H5        1.0  0.6587093372952116  0.5053098590505667  0.8361865605037089  1.0000
  H   H6        1.0  0.8141516954824713  0.5264352644996291  0.07877853491521103  1.0000
  C   C10       1.0  0.1587903451402033  0.024221691917614585  0.41028560837610906  1.0000
  C   C11       1.0  0.2584625872780457  0.021346949598913815  0.43804534595078715  1.0000
  C   C12       1.0  0.30791729351958486  0.9029637343046817  0.4518188860728034  1.0000
  C   C13       1.0  0.25846258649861653  0.7862389802738111  0.4380452781696347  1.0000
  C   C14       1.0  0.1587903554519281  0.7867066345277967  0.41028569087854816  1.0000
  C   C15       1.0  0.10944009155383982  0.9062916618501883  0.39654110663608844  1.0000
  Cl  Cl1       1.0  0.43243167144776407  0.9008760122050671  0.4864973128487408  1.0000
  H   H7        1.0  0.12124555711837903  0.3526076675245753  0.3998281945376724  1.0000
  H   H8        1.0  0.29810466028033894  0.1107288580271999  0.44908594449228695  1.0000
  H   H9        1.0  0.29810462209572464  0.6955276641981766  0.44908584094536463  1.0000
  H   H10       1.0  0.03256983368232235  0.9075804228099208  0.3751319181665296  1.0000
  H   H11       1.0  0.12124555244675526  0.45957970347866806  0.39982846664413224  1.0000
  C   C16       1.0  0.15873512883091503  0.40137374149479704  0.9870586185130628  1.0000
  C   C17       1.0  0.07002086459921797  0.39392214305689016  0.061010078819870195  1.0000
  C   C18       1.0  0.9821844019084813  0.3969917374344482  0.9860605920961256  1.0000
  C   C19       1.0  0.9830364752520062  0.4117330262969233  0.8347128577529652  1.0000
  C   C20       1.0  0.07029937483134874  0.41724733606286507  0.759557404811412  1.0000
  C   C21       1.0  0.15884558861682962  0.4095545308457464  0.8335126513032767  1.0000
  N   N3        1.0  0.8931840632439524  0.3924382592127568  0.06607507582136551  1.0000
  C   C22       1.0  0.806222900121742  0.3326538890743702  0.019292649441234423  1.0000
  O   O1        1.0  0.8057153374147067  0.263948187615183  0.9119418156325366  1.0000
  H   H12       1.0  0.3861892781390457  0.49152218214844523  0.08337207333485949  1.0000
  H   H13       1.0  0.9163751135820425  0.42037702594024906  0.7740982438541528  1.0000
  H   H14       1.0  0.31280091294763435  0.4647836969212067  0.5484064175886121  1.0000
  H   H15       1.0  0.8928383861917542  0.42695820150164476  0.16949407516296608  1.0000
  H   H16       1.0  0.7402503453750838  0.3435419266148949  0.07971348897591657  1.0000
  Zn  Zn1       1.0  0.05302707217740421  0.40546570107033597  0.4102877058330867  1.0000
  Zn  Zn2       1.0  0.26454440693873704  0.40546195802705154  0.4102828787089545  1.0000
  C   C23       1.0  0.15882255731510941  0.40283616997114646  0.673514695448695  1.0000
  C   C24       1.0  0.15875123158227633  0.4080931285501763  0.14705603049754676  1.0000
  C   C25       1.0  0.15878465234923222  0.6425252134109829  0.40454244753528745  1.0000
  C   C26       1.0  0.15878906438203622  0.16840252604864284  0.41602835525062687  1.0000
  O   O2        1.0  0.23902636202257677  0.4103411318261109  0.20075079168527019  1.0000
  O   O3        1.0  0.23908418972650453  0.4005843423918054  0.6198158557069755  1.0000
  O   O4        1.0  0.2390524991084496  0.5941362907539189  0.40261886251836865  1.0000
  O   O5        1.0  0.23905798044999124  0.2167891917081379  0.4179476768132586  1.0000
  O   O6        1.0  0.0785134264856635  0.5941384673918667  0.4026229077228489  1.0000
  O   O7        1.0  0.07854511708934964  0.40058807809406777  0.6198198240658499  1.0000
  O   O8        1.0  0.07848728922348647  0.4103448055398913  0.20075302726805377  1.0000
  O   O9        1.0  0.07851890766105485  0.2167928571803952  0.4179500204507274  1.0000
