data_image0
_chemical_formula_structural       NC6NC3H6C6BrH3C7F3H4Zn2C4O8
_chemical_formula_sum              "N2 C26 H13 Br1 F3 Zn2 O8"
_cell_length_a       14.934028789175542
_cell_length_b       9.276564384272257
_cell_length_c       10.299327507215196
_cell_angle_alpha    85.50433020317719
_cell_angle_beta     89.95631350132989
_cell_angle_gamma    90.54840447220178

_space_group_name_H-M_alt    "P 1"
_space_group_IT_number       1

loop_
  _space_group_symop_operation_xyz
  'x, y, z'

loop_
  _atom_site_type_symbol
  _atom_site_label
  _atom_site_symmetry_multiplicity
  _atom_site_fract_x
  _atom_site_fract_y
  _atom_site_fract_z
  _atom_site_occupancy
  N   N1        1.0  0.8535323618975187  0.5775910823322313  0.5657648493446884  1.0000
  C   C1        1.0  0.7760394530890278  0.5764930604819059  0.5651540819546716  1.0000
  C   C2        1.0  0.6796343376371188  0.5751220727474204  0.5643916527163424  1.0000
  C   C3        1.0  0.6325398857527332  0.6818955284392794  0.6236737434261017  1.0000
  C   C4        1.0  0.5390212725517354  0.6807947210242546  0.62306244309646  1.0000
  C   C5        1.0  0.49168490310413226  0.5729749473369463  0.5631994860191969  1.0000
  C   C6        1.0  0.3950536108498303  0.5752883292731219  0.5644850725410306  1.0000
  N   N2        1.0  0.3175849794190008  0.5771242894559181  0.5655056433558621  1.0000
  C   C7        1.0  0.5387645412074402  0.4647243043185534  0.5030967405963451  1.0000
  C   C8        1.0  0.4897148009153406  0.34750179801456516  0.4380143716704177  1.0000
  C   C9        1.0  0.6329212511553607  0.46694838114260073  0.5043316258379045  1.0000
  H   H1        1.0  0.6681105709523029  0.7660231071636798  0.6703830629366786  1.0000
  H   H2        1.0  0.5035079584692699  0.7642743953884326  0.669411907259523  1.0000
  H   H3        1.0  0.4472949647612522  0.3965826471919127  0.35814527264011264  1.0000
  H   H4        1.0  0.446554515942825  0.284646997699987  0.510241992374341  1.0000
  H   H5        1.0  0.5366985458145944  0.27157509327467055  0.39585300259255823  1.0000
  H   H6        1.0  0.6699345739910412  0.38457923525492554  0.4585990047713526  1.0000
  C   C10       1.0  0.0828650994770956  0.15387936963916382  0.5659688527928415  1.0000
  C   C11       1.0  0.07141693725350651  0.23740840817143025  0.44727422054614774  1.0000
  C   C12       1.0  0.06830186791515275  0.17244073615116395  0.32968366021217843  1.0000
  C   C13       1.0  0.07661557022261362  0.023025385155685637  0.32855490774448004  1.0000
  C   C14       1.0  0.08648667718993569  0.9378048797177514  0.4454554609845358  1.0000
  C   C15       1.0  0.08826077605183436  0.0008248447292158427  0.5653128154761273  1.0000
  Br  Br1       1.0  0.0730125258729113  0.9346960215411408  0.16719973843527547  1.0000
  H   H7        1.0  0.06027579302646277  0.23868293908609606  0.23922342043115208  1.0000
  H   H8        1.0  0.09063033981485313  0.8215611591370757  0.44265308848042917  1.0000
  H   H9        1.0  0.13761110364706997  0.7028114677913974  0.7675599878345869  1.0000
  C   C16       1.0  0.08564905740770268  0.5774106090210118  0.18425918109528272  1.0000
  C   C17       1.0  0.17303310216119616  0.6351453521800123  0.17889531597778952  1.0000
  C   C18       1.0  0.2164766527766243  0.666718597841625  0.05889167866326317  1.0000
  C   C19       1.0  0.17280696737103707  0.6349926571541682  0.9436581025399887  1.0000
  C   C20       1.0  0.08547684292159037  0.5772936573419116  0.9470225438927057  1.0000
  C   C21       1.0  0.04227476580937739  0.549371996598746  0.06779579754181175  1.0000
  C   C22       1.0  0.3114815343548538  0.7238086918605722  0.05453218482992917  1.0000
  F   F1        1.0  0.327659008826932  0.8080053131751381  0.15734938479575855  1.0000
  F   F2        1.0  0.3698953406332617  0.6087720323842385  0.0624571576003361  1.0000
  F   F3        1.0  0.3274128939537224  0.8079859949527407  0.939706133694815  1.0000
  H   H10       1.0  0.9213371960949385  0.4660467568933187  0.4017890452940747  1.0000
  H   H11       1.0  0.20750140016696672  0.6553935283341286  0.26825695458314636  1.0000
  H   H12       1.0  0.2071201316945075  0.6551322162783286  0.8512433487549225  1.0000
  H   H13       1.0  0.9749230131910018  0.5048761781641455  0.07112504582820289  1.0000
  Zn  Zn1       1.0  0.9874479104282659  0.5774525104911721  0.5656975451920061  1.0000
  Zn  Zn2       1.0  0.1836693832999214  0.5772510469136749  0.565583574727953  1.0000
  C   C23       1.0  0.0854707733438198  0.5715708085965865  0.8028483753373462  1.0000
  C   C24       1.0  0.08564867467985192  0.5831345661387799  0.3284328693994592  1.0000
  C   C25       1.0  0.08723743478359333  0.8407349424030226  0.5602615134286801  1.0000
  C   C26       1.0  0.0838819352299105  0.3139686998049114  0.5710198019299201  1.0000
  O   O1        1.0  0.16011353249041815  0.5849728327266361  0.3767756299129959  1.0000
  O   O2        1.0  0.15993346634070882  0.5695785479723687  0.7544187408627699  1.0000
  O   O3        1.0  0.16135906366669006  0.786931990889681  0.5585281329508915  1.0000
  O   O4        1.0  0.15868786829505033  0.3676194002090183  0.5726661404778484  1.0000
  O   O5        1.0  0.01242935847239002  0.7870841572661496  0.5586149794741708  1.0000
  O   O6        1.0  0.011003772195829603  0.5697324469465894  0.754505516796314  1.0000
  O   O7        1.0  0.011183838437543116  0.5851266816872915  0.3768608444325002  1.0000
  O   O8        1.0  0.00975817415081481  0.36777323884029944  0.572751452376439  1.0000
