data_image0
_chemical_formula_structural       NC9NC5H8C12ClH9C11NCOCH12Zn2C4O8
_chemical_formula_sum              "N3 C43 H29 Cl1 O9 Zn2"
_cell_length_a       17.807436237873137
_cell_length_b       10.299768534541528
_cell_length_c       10.299158637457994
_cell_angle_alpha    85.58253282463849
_cell_angle_beta     89.37443015321587
_cell_angle_gamma    88.408414792471

_space_group_name_H-M_alt    "P 1"
_space_group_IT_number       1

loop_
  _space_group_symop_operation_xyz
  'x, y, z'

loop_
  _atom_site_type_symbol
  _atom_site_label
  _atom_site_symmetry_multiplicity
  _atom_site_fract_x
  _atom_site_fract_y
  _atom_site_fract_z
  _atom_site_occupancy
  N   N1        1.0  0.7079360853537892  0.38720270217971636  0.5571329280585489  1.0000
  C   C1        1.0  0.6473440665434036  0.35200965391524885  0.546108210085038  1.0000
  C   C2        1.0  0.5719742547734159  0.30823337752925517  0.5323946579781158  1.0000
  C   C3        1.0  0.5538890370647146  0.23678148761701068  0.4273889472701608  1.0000
  C   C4        1.0  0.4807088336721277  0.1941665724242254  0.4139913403756154  1.0000
  C   C5        1.0  0.4245650654296276  0.22262601309946908  0.5055669852434609  1.0000
  C   C6        1.0  0.34679337988007  0.17745227780709077  0.4914108763813855  1.0000
  C   C7        1.0  0.2846273959606314  0.2592162817374033  0.5173516531614513  1.0000
  C   C8        1.0  0.2113048474901472  0.21639833743011902  0.5039677239308554  1.0000
  C   C9        1.0  0.1480892059399329  0.3008537729491638  0.5302724576226578  1.0000
  N   N2        1.0  0.0972768174766937  0.3687501005403645  0.5514207369070976  1.0000
  C   C10       1.0  0.1995646949022316  0.09155840508364552  0.464617663134188  1.0000
  C   C11       1.0  0.2608733079826924  0.009780546074023901  0.4386684962801108  1.0000
  C   C12       1.0  0.3340763887538216  0.05220388335519321  0.4518498769588259  1.0000
  C   C13       1.0  0.4433417387607616  0.294572339493703  0.6107919378070725  1.0000
  C   C14       1.0  0.5165748069899834  0.3369968073627714  0.6240338881582239  1.0000
  H   H1        1.0  0.5962930696190875  0.2142705916047889  0.3556747044762069  1.0000
  H   H2        1.0  0.4678016797426939  0.14045516209966902  0.33106866636825716  1.0000
  H   H3        1.0  0.293137599760204  0.3566897477153659  0.5462308704307246  1.0000
  H   H4        1.0  0.1430953161601025  0.05751917408656637  0.45402201182574964  1.0000
  H   H5        1.0  0.2516651340882806  0.9131267260957433  0.40858886429790675  1.0000
  H   H6        1.0  0.3807085496982976  0.9864532200191307  0.4328000137652528  1.0000
  H   H7        1.0  0.4016542466850629  0.3165446683605285  0.6838006888639545  1.0000
  H   H8        1.0  0.5300107299368584  0.39192839972933297  0.7059149415266641  1.0000
  C   C15       1.0  0.9025391839822978  0.9966142089792124  0.5542757192161454  1.0000
  C   C16       1.0  0.9075123622991219  0.005896035120082071  0.4177326555402567  1.0000
  C   C17       1.0  0.9101045333775594  0.8934564227153725  0.3485515285795004  1.0000
  C   C18       1.0  0.9076558432639792  0.7706015229406048  0.417746040570202  1.0000
  C   C19       1.0  0.9026808976350165  0.7593282515010227  0.5542890681247016  1.0000
  C   C20       1.0  0.9001509812187876  0.872890092360518  0.6217892574468677  1.0000
  C   C21       1.0  0.9153667403345273  0.9043294414686793  0.2041003353415795  1.0000
  C   C22       1.0  0.8726414076395259  0.9998681772741694  0.13026272961198937  1.0000
  C   C23       1.0  0.8776612816906116  0.00990320796001632  0.9943081642140659  1.0000
  C   C24       1.0  0.9253342527444481  0.9249244639936333  0.9305003919608725  1.0000
  C   C25       1.0  0.9680475537119673  0.8296980094191888  0.002826940691785129  1.0000
  C   C26       1.0  0.9631610890941902  0.8192644097999411  0.13879419218293587  1.0000
  Cl  Cl1       1.0  0.9315487242142829  0.9377649109356685  0.759922752833562  1.0000
  H   H9        1.0  0.9006056120504572  0.3205329523363655  0.606302660362581  1.0000
  H   H10       1.0  0.9104185248514449  0.1007520540241218  0.36495697497679513  1.0000
  H   H11       1.0  0.9086014938867667  0.6837042282766183  0.36478556624130176  1.0000
  H   H12       1.0  0.8963136422356998  0.8649614381046961  0.7271259567724118  1.0000
  H   H13       1.0  0.9008151216331003  0.4275774456179753  0.6063228156625518  1.0000
  H   H14       1.0  0.8346482424467904  0.06566126073699285  0.1775640093498283  1.0000
  H   H15       1.0  0.8443162827247973  0.08357768653764097  0.9386851381401103  1.0000
  H   H16       1.0  0.005203205273601965  0.7638974079748733  0.953848455903118  1.0000
  H   H17       1.0  0.9974596738460121  0.7458375181865353  0.19290890985678327  1.0000
  C   C27       1.0  0.9026804447894349  0.3778299484473705  0.17290828852317386  1.0000
  C   C28       1.0  0.9044513504809417  0.5144480136342274  0.16157153611506048  1.0000
  C   C29       1.0  0.9052902872034683  0.5838579121720022  0.038666881008348364  1.0000
  C   C30       1.0  0.9043076027311301  0.5148146929014079  0.9262621738031882  1.0000
  C   C31       1.0  0.9025396305216756  0.37811258057100255  0.9356565753193387  1.0000
  C   C32       1.0  0.9017402219864102  0.31046060125998043  0.05936733215374579  1.0000
  C   C33       1.0  0.9071645884185059  0.7283830181487857  0.027647513428862736  1.0000
  C   C34       1.0  0.9550573540112894  0.9300357865207273  0.0990388351910325  1.0000
  C   C35       1.0  0.9112159925066339  0.003098333653530631  0.0055339304836297155  1.0000
  C   C36       1.0  0.8641985694309785  0.9378538056566924  0.9254380671887192  1.0000
  C   C37       1.0  0.8624594789095709  0.8018747959957648  0.9356773814552264  1.0000
  N   N3        1.0  0.9109551166894723  0.14315537675137732  0.9943052205047683  1.0000
  C   C38       1.0  0.9753353113995287  0.21909127440393572  0.01659384531547325  1.0000
  O   O1        1.0  0.04009867517348975  0.16660964174908166  0.02415881124234631  1.0000
  C   C39       1.0  0.9665496671221856  0.3633214845505642  0.021328219543165435  1.0000
  H   H18       1.0  0.9020228149705571  0.3252778195274704  0.5047443164227495  1.0000
  H   H19       1.0  0.9041327567290637  0.5672798721141585  0.2485281367189642  1.0000
  H   H20       1.0  0.9059461550037169  0.5677501469856745  0.8312676009553858  1.0000
  H   H21       1.0  0.9003768527865667  0.20508377382999066  0.06739669928086944  1.0000
  H   H22       1.0  0.8996587504374568  0.12005750212624024  0.7460891088864074  1.0000
  H   H23       1.0  0.9897330749635044  0.9777314741226122  0.16556261343967438  1.0000
  H   H24       1.0  0.8290686818989688  0.9926203250273007  0.8543312973264943  1.0000
  H   H25       1.0  0.8253225413113013  0.7542489767562239  0.8728739534820756  1.0000
  H   H26       1.0  0.8622650963560781  0.19291757045347688  0.9600737972414953  1.0000
  H   H27       1.0  0.9137283593955717  0.3875393994211471  0.07352142135678386  1.0000
  H   H28       1.0  0.9645385075621721  0.4100837118809654  0.9206398773014612  1.0000
  H   H29       1.0  0.014486076390405776  0.4018168301925211  0.07328051594154905  1.0000
  Zn  Zn1       1.0  0.8202914071983637  0.38187421750403877  0.5554920239165257  1.0000
  Zn  Zn2       1.0  0.9849214734970442  0.37406800318885847  0.5530723176211094  1.0000
  C   C40       1.0  0.9025636079749279  0.3728856314039082  0.791480725245598  1.0000
  C   C41       1.0  0.9026510707565885  0.3830581426826214  0.31708371736588936  1.0000
  C   C42       1.0  0.9026511929783128  0.6151573635349852  0.5491113962949501  1.0000
  C   C43       1.0  0.9025634292738001  0.14078485296648324  0.5594531163543892  1.0000
  O   O2        1.0  0.9651174636937493  0.38184468913872965  0.36455204231610744  1.0000
  O   O3        1.0  0.9650476259650309  0.3681733690627387  0.7421755253370004  1.0000
  O   O4        1.0  0.965117509503859  0.5638108971379638  0.5464605898086965  1.0000
  O   O5        1.0  0.9650475239975348  0.1862071729812118  0.560266881294258  1.0000
  O   O6        1.0  0.8401653005177128  0.5697350503769747  0.5482974610622731  1.0000
  O   O7        1.0  0.8400954172781278  0.37409908255209934  0.744012327371621  1.0000
  O   O8        1.0  0.8401652553366677  0.3877703567920454  0.36638728292716904  1.0000
  O   O9        1.0  0.8400953156176791  0.19213283138210976  0.562102219274369  1.0000
