data_image0
_chemical_formula_structural       NC8NH4C9H8C6OCH7Zn2C4O8
_chemical_formula_sum              "N2 C28 H19 O9 Zn2"
_cell_length_a       13.859017124695912
_cell_length_b       9.275152443626249
_cell_length_c       9.273891588657152
_cell_angle_alpha    85.88202133130156
_cell_angle_beta     89.68011635111247
_cell_angle_gamma    90.57357307376715

_space_group_name_H-M_alt    "P 1"
_space_group_IT_number       1

loop_
  _space_group_symop_operation_xyz
  'x, y, z'

loop_
  _atom_site_type_symbol
  _atom_site_label
  _atom_site_symmetry_multiplicity
  _atom_site_fract_x
  _atom_site_fract_y
  _atom_site_fract_z
  _atom_site_occupancy
  N   N1        1.0  0.9250301443361325  0.5643941886977559  0.4046861221954863  1.0000
  C   C1        1.0  0.8527285715749842  0.5410214743584365  0.34860256068535445  1.0000
  C   C2        1.0  0.7627897069075319  0.5119492289662935  0.27884181666071184  1.0000
  C   C3        1.0  0.6751103263567835  0.5402917118623539  0.3468497627115963  1.0000
  C   C4        1.0  0.5875593974073628  0.5119504499184417  0.2788412331417982  1.0000
  C   C5        1.0  0.5878702844277913  0.45525901440645694  0.14280387850239928  1.0000
  C   C6        1.0  0.6753668565628512  0.4270254679190969  0.07505771379527948  1.0000
  C   C7        1.0  0.7627356231968251  0.4552566748995643  0.14280506493899314  1.0000
  C   C8        1.0  0.4974887409082789  0.5410223966868533  0.3486020594800436  1.0000
  N   N2        1.0  0.4250812728844103  0.5643945094521008  0.40468590507654123  1.0000
  H   H1        1.0  0.675010901027632  0.5841730792214026  0.45214593148885135  1.0000
  H   H2        1.0  0.5206253998198834  0.43295239226922905  0.08927417323835107  1.0000
  H   H3        1.0  0.6754661516101204  0.38323371886414964  0.9699747849539015  1.0000
  H   H4        1.0  0.8300815785573095  0.4329479604410178  0.08927636613418066  1.0000
  C   C9        1.0  0.1722085396653401  0.14077535075576586  0.4061575563597817  1.0000
  C   C10       1.0  0.13785075888861575  0.22240942638507952  0.28370578121284185  1.0000
  C   C11       1.0  0.11247048135288606  0.15584206851364435  0.15896139955739086  1.0000
  C   C12       1.0  0.1210513446098367  0.006457147015183517  0.1541988910666956  1.0000
  C   C13       1.0  0.15352610030151426  0.9231255820201107  0.27561579070055875  1.0000
  C   C14       1.0  0.17791199597047072  0.9880024206386915  0.40322695744806336  1.0000
  C   C15       1.0  0.09538426342209005  0.9381415822131448  0.0250182382488815  1.0000
  C   C16       1.0  0.07389411721460815  0.8809098389815435  0.9168496956033079  1.0000
  C   C17       1.0  0.047820081492669246  0.8114572404288991  0.7856061397263172  1.0000
  H   H5        1.0  0.3097973546719164  0.22502523032707256  0.694016683233968  1.0000
  H   H6        1.0  0.13276968427096333  0.3389228163415525  0.2832523954204669  1.0000
  H   H7        1.0  0.08701571204369962  0.22123919351082286  0.0656107278052398  1.0000
  H   H8        1.0  0.1576033810508084  0.8067792606430321  0.27159488919266095  1.0000
  H   H9        1.0  0.26744197965413374  0.6944802579620335  0.6001129374097283  1.0000
  H   H10       1.0  0.065409821874437  0.6948569690745551  0.7990716669692182  1.0000
  H   H11       1.0  0.9693590830241435  0.8238616388795449  0.7658738703259576  1.0000
  H   H12       1.0  0.08891083920404964  0.8629636560366917  0.692308073384563  1.0000
  C   C18       1.0  0.17661524264071904  0.5605683415681522  0.9814301577466366  1.0000
  C   C19       1.0  0.25604360435668516  0.6214989161243376  0.04979306941981898  1.0000
  C   C20       1.0  0.33007135856650316  0.6932014063939451  0.9697352770588247  1.0000
  C   C21       1.0  0.32493617331548186  0.7043347931046476  0.8182561557457144  1.0000
  C   C22       1.0  0.2475290740150462  0.6425307493261732  0.7485540667636137  1.0000
  C   C23       1.0  0.17350526319295678  0.5682093426633854  0.8279543693415404  1.0000
  O   O1        1.0  0.40685268654417706  0.7523558551845564  0.044737241079629175  1.0000
  C   C24       1.0  0.4868201579158231  0.8282751519497269  0.9773982351644211  1.0000
  H   H13       1.0  0.9465116458834724  0.4719668823985072  0.09275395507328499  1.0000
  H   H14       1.0  0.3808898112054291  0.7594203181603302  0.7531434581049821  1.0000
  H   H15       1.0  0.24680057112756426  0.6499655144071015  0.631447174002571  1.0000
  H   H16       1.0  0.020014391673830893  0.5028390954223014  0.5527378941046623  1.0000
  H   H17       1.0  0.4615767188037676  0.9258945604599629  0.912665000467289  1.0000
  H   H18       1.0  0.5265701506979723  0.7566810220860212  0.9072331970471925  1.0000
  H   H19       1.0  0.5364442039687498  0.8627561614713687  0.06212249179656015  1.0000
  Zn  Zn1       1.0  0.06933404482237515  0.5643905049697782  0.404694400791477  1.0000
  Zn  Zn2       1.0  0.2807772421136352  0.564386532304763  0.4046894889441679  1.0000
  C   C25       1.0  0.17405229250023457  0.5610182254332183  0.6679630637302452  1.0000
  C   C26       1.0  0.1760613151222905  0.5677606332297709  0.14142096112442037  1.0000
  C   C27       1.0  0.17685004948555205  0.8278065976159799  0.39803727040851467  1.0000
  C   C28       1.0  0.17326347403640674  0.3009705285805063  0.4113468372873035  1.0000
  O   O2        1.0  0.25611696104676174  0.5701666309847022  0.195113494020571  1.0000
  O   O3        1.0  0.25447713505551595  0.5586081205107454  0.6142663917070887  1.0000
  O   O4        1.0  0.2567352720026024  0.7740431185961331  0.39629939866679575  1.0000
  O   O5        1.0  0.25385875241493616  0.35473164224462184  0.4130803789556148  1.0000
  O   O6        1.0  0.09625246236592645  0.7740453950327781  0.39630351077411974  1.0000
  O   O7        1.0  0.09399433736425888  0.5586121294167509  0.6142704209673497  1.0000
  O   O8        1.0  0.09563416944766234  0.5701705739790341  0.1951157905348695  1.0000
  O   O9        1.0  0.09337596034542828  0.3547355758965043  0.41308278356925254  1.0000
