data_image0
_chemical_formula_structural       NC6NC2H4C6NH7C6NH7Zn2C4O8
_chemical_formula_sum              "N4 C24 H18 Zn2 O8"
_cell_length_a       14.927258858638513
_cell_length_b       9.274771166103582
_cell_length_c       9.274774538082514
_cell_angle_alpha    84.9550519661537
_cell_angle_beta     90.34966586359073
_cell_angle_gamma    90.59705168739298

_space_group_name_H-M_alt    "P 1"
_space_group_IT_number       1

loop_
  _space_group_symop_operation_xyz
  'x, y, z'

loop_
  _atom_site_type_symbol
  _atom_site_label
  _atom_site_symmetry_multiplicity
  _atom_site_fract_x
  _atom_site_fract_y
  _atom_site_fract_z
  _atom_site_occupancy
  N   N1        1.0  0.8478319142633207  0.5925437730800285  0.4051315781131395  1.0000
  C   C1        1.0  0.770305422950814  0.5925437444700152  0.4051315887665783  1.0000
  C   C2        1.0  0.6738729159646678  0.5925438600352921  0.4051315386367689  1.0000
  C   C3        1.0  0.6261934825273489  0.5699505055852139  0.2783392223279799  1.0000
  C   C4        1.0  0.5324821708505353  0.5699505323914682  0.2783390886651016  1.0000
  C   C5        1.0  0.48605685089400463  0.5925436822727486  0.405131557613162  1.0000
  C   C6        1.0  0.3896242769163197  0.5925437978410424  0.40513150747741555  1.0000
  N   N2        1.0  0.31209778560381274  0.5925437692310291  0.4051315181308546  1.0000
  C   C7        1.0  0.5337362173397847  0.6151370367258435  0.5319238739160141  1.0000
  C   C8        1.0  0.6274475290165982  0.6151370099195894  0.5319240075788927  1.0000
  H   H1        1.0  0.6614017917381948  0.5523716031074184  0.17968752323504633  1.0000
  H   H2        1.0  0.49629813748658286  0.5523718007438201  0.1796875179322932  1.0000
  H   H3        1.0  0.498527975454256  0.6327159279411754  0.630575681240771  1.0000
  H   H4        1.0  0.6636315634194954  0.6327158379646136  0.6305756882925238  1.0000
  C   C9        1.0  0.0772217594346658  0.16894036180290284  0.40591823177292774  1.0000
  C   C10       1.0  0.05612510732488718  0.25337264141196414  0.27685327174502317  1.0000
  C   C11       1.0  0.04338951196645757  0.18945391178722093  0.14696944977835957  1.0000
  C   C12       1.0  0.05179401810359696  0.03973361899159533  0.14520982717140618  1.0000
  C   C13       1.0  0.07122748509648824  0.9539973453494393  0.2725018121184719  1.0000
  C   C14       1.0  0.08271651697060656  0.016135987402526863  0.40435741832741434  1.0000
  N   N3        1.0  0.022837957796887354  0.27699803756477315  0.01648599098839809  1.0000
  H   H5        1.0  0.1792212579704715  0.24585105601704416  0.7217798917614346  1.0000
  H   H6        1.0  0.05160610058854753  0.36997017579963787  0.27629887497957295  1.0000
  H   H7        1.0  0.0424192593577315  0.9891163220634089  0.045277330144239736  1.0000
  H   H8        1.0  0.07516000927917998  0.8378693118827305  0.26836838202205815  1.0000
  H   H9        1.0  0.14779440787125853  0.7171989590571739  0.6192551838768929  1.0000
  H   H10       1.0  0.01666555680755999  0.3890723471446762  0.01643911467974757  1.0000
  H   H11       1.0  0.013556404117273324  0.23037728660082912  0.9189270096781197  1.0000
  C   C15       1.0  0.07838534419536014  0.5962275972723572  0.9813146980462828  1.0000
  C   C16       1.0  0.1424149414229019  0.6813530229361933  0.04789436767077304  1.0000
  C   C17       1.0  0.21038647913581832  0.7545958713734455  0.9669945026721298  1.0000
  C   C18       1.0  0.2148772355463413  0.7430454768804895  0.8180383670643314  1.0000
  C   C19       1.0  0.15115566066680453  0.6610977627954022  0.7497502803320408  1.0000
  C   C20       1.0  0.08155291034038759  0.5888486759242815  0.8289609187657021  1.0000
  N   N4        1.0  0.2754432052538949  0.8395206119810301  0.03657978706525933  1.0000
  H   H12       1.0  0.9426502878408329  0.3142416436003852  0.10775454934096751  1.0000
  H   H13       1.0  0.14084675821055104  0.6881944682908787  0.16390189273474287  1.0000
  H   H14       1.0  0.26735107614051024  0.7987783993859845  0.7544049098508268  1.0000
  H   H15       1.0  0.15512436086940284  0.6570852430698932  0.6335846228933448  1.0000
  H   H16       1.0  0.987407767546537  0.4033126475550306  0.5632209734702847  1.0000
  H   H17       1.0  0.27290045328123824  0.848566560181043  0.14793304426440268  1.0000
  H   H18       1.0  0.3266166662618293  0.8941191686257912  0.9772371045599986  1.0000
  Zn  Zn1       1.0  0.9818090301114099  0.5925398340681811  0.4051399074045152  1.0000
  Zn  Zn2       1.0  0.17812064824641594  0.5925357895700316  0.4051350498110695  1.0000
  C   C21       1.0  0.08091490783040234  0.5844968472992822  0.6687482220152379  1.0000
  C   C22       1.0  0.0790169265782732  0.6005805951489469  0.14152687345012205  1.0000
  C   C23       1.0  0.0816517767355609  0.8560480155800707  0.39890114580609737  1.0000
  C   C24       1.0  0.0782799797326943  0.3290276931025542  0.41137402980023086  1.0000
  O   O1        1.0  0.15372808657480186  0.6020336729456532  0.19529371123490713  1.0000
  O   O2        1.0  0.15519971504616725  0.5830396152175679  0.6149772839715453  1.0000
  O   O3        1.0  0.15579374732872342  0.8023206047943772  0.3970738579813178  1.0000
  O   O4        1.0  0.1531339869669286  0.3827526946313078  0.4131970289933111  1.0000
  O   O5        1.0  0.006795624399358102  0.8023229290099216  0.3970779282163368  1.0000
  O   O6        1.0  0.006201603065683292  0.5830436732017323  0.6149812740596596  1.0000
  O   O7        1.0  0.004729967843530192  0.6020376957673244  0.1952959661989635  1.0000
  O   O8        1.0  0.004135868569435264  0.38275670619353175  0.41319939218325463  1.0000
