data_image0
_chemical_formula_structural       NC6NC2H4C6NH7C6H6Zn2C4O8
_chemical_formula_sum              "N3 C24 H17 Zn2 O8"
_cell_length_a       14.927258858638513
_cell_length_b       9.274771166103582
_cell_length_c       10.681121600428288
_cell_angle_alpha    85.45578074471726
_cell_angle_beta     89.99986493836576
_cell_angle_gamma    90.59705168739298

_space_group_name_H-M_alt    "P 1"
_space_group_IT_number       1

loop_
  _space_group_symop_operation_xyz
  'x, y, z'

loop_
  _atom_site_type_symbol
  _atom_site_label
  _atom_site_symmetry_multiplicity
  _atom_site_fract_x
  _atom_site_fract_y
  _atom_site_fract_z
  _atom_site_occupancy
  N   N1        1.0  0.853791861804461  0.578660140457284  0.6161555729827695  1.0000
  C   C1        1.0  0.7762653704521426  0.578660111940011  0.6161555822266054  1.0000
  C   C2        1.0  0.6798328636533294  0.5786602270688985  0.6161555387296893  1.0000
  C   C3        1.0  0.6326272470798027  0.5549631214159874  0.506139666633521  1.0000
  C   C4        1.0  0.5389159359024812  0.5549631470586807  0.5061395506561603  1.0000
  C   C5        1.0  0.4920167985117523  0.5786600494715477  0.6161555551952334  1.0000
  C   C6        1.0  0.3955842247214221  0.5786601646034004  0.6161555116931665  1.0000
  N   N2        1.0  0.3180577333691039  0.5786601360861272  0.6161555209370024  1.0000
  C   C7        1.0  0.5392223480937621  0.6023571551274243  0.7261714272862507  1.0000
  C   C8        1.0  0.6329336592710837  0.602357129484731  0.7261715432636109  1.0000
  H   H1        1.0  0.6682042130045004  0.536525437154679  0.42054100399022576  1.0000
  H   H2        1.0  0.5031005587727044  0.5365256347449194  0.4205409993891036  1.0000
  H   H3        1.0  0.5036454490899248  0.6207948290684471  0.8117701838407441  1.0000
  H   H4        1.0  0.6687490370288122  0.6207947391532724  0.8117701899594489  1.0000
  C   C9        1.0  0.08317876728844298  0.15506357714972419  0.6168381410668518  1.0000
  C   C10       1.0  0.06256442480409152  0.23837232176059575  0.5048503286512593  1.0000
  C   C11       1.0  0.05031419911926083  0.17332292878891042  0.39215200149044005  1.0000
  C   C12       1.0  0.058725280882505615  0.023587318144179248  0.3906252022229466  1.0000
  C   C13       1.0  0.07768306377363587  0.9389591454152848  0.5010746296211981  1.0000
  C   C14       1.0  0.0886793575100957  0.002245615571764503  0.615483845653797  1.0000
  N   N3        1.0  0.030250255437616946  0.25973117126704803  0.27893337806895824  1.0000
  H   H5        1.0  0.18399790580335007  0.2347239071248537  0.89090676759742  1.0000
  H   H6        1.0  0.058047489822131926  0.3549650300190961  0.5043692865391356  1.0000
  H   H7        1.0  0.04972396513153754  0.9721000898431231  0.30391520960465135  1.0000
  H   H8        1.0  0.08163103438827246  0.8227951296542735  0.4974881116834864  1.0000
  H   H9        1.0  0.15295418566788643  0.7051793131041038  0.8019475508428873  1.0000
  H   H10       1.0  0.024078029622828234  0.37180507277977815  0.27889270416909673  1.0000
  H   H11       1.0  0.021333275037401567  0.2122611508354959  0.1942828509540111  1.0000
  C   C15       1.0  0.08592907528728366  0.5786545581873515  0.248415752250426  1.0000
  C   C16       1.0  0.02128789914869378  0.4984290385848682  0.1871215147177454  1.0000
  C   C17       1.0  0.021287843817703767  0.4984291310780493  0.056239374616993354  1.0000
  C   C18       1.0  0.08592900532183201  0.5786546288976355  0.983906187813735  1.0000
  C   C19       1.0  0.15051682676771794  0.6588136655699308  0.04519995128099308  1.0000
  C   C20       1.0  0.1505168151609746  0.6588136432022427  0.176092249979797  1.0000
  H   H12       1.0  0.15129844466912012  0.6597846020001488  0.5415437985648959  1.0000
  H   H13       1.0  0.9706190936434794  0.4355444846926555  0.2402588782977122  1.0000
  H   H14       1.0  0.9706190753748607  0.43554455259271063  0.011754848963634323  1.0000
  H   H15       1.0  0.20119224946319103  0.72170650602735  0.9921069098216311  1.0000
  H   H16       1.0  0.2011922039991194  0.721706455460295  0.22053127738687617  1.0000
  H   H17       1.0  0.15129872099981  0.6597840994336115  0.6796147736548597  1.0000
  Zn  Zn1       1.0  0.9877689465263838  0.5786562739535004  0.616162800189286  1.0000
  Zn  Zn2       1.0  0.18408058281398598  0.5786521871690773  0.6161585853252087  1.0000
  C   C21       1.0  0.08588973249427756  0.5729080476464243  0.844891949304843  1.0000
  C   C22       1.0  0.08596195238030857  0.5844022334896599  0.3874295561669965  1.0000
  C   C23       1.0  0.08763500710630545  0.842110145860369  0.6107495163402987  1.0000
  C   C24       1.0  0.0842165995283779  0.31519840220775386  0.6215720586687081  1.0000
  O   O1        1.0  0.16047218825779885  0.5863233618244839  0.4340822692094848  1.0000
  O   O2        1.0  0.16037547915155415  0.57098272933306  0.798235678526581  1.0000
  O   O3        1.0  0.16178380618727828  0.7883668281869931  0.609164004934984  1.0000
  O   O4        1.0  0.15906379430121453  0.3689392732908361  0.6231538488898831  1.0000
  O   O5        1.0  0.012785668047638366  0.7883691878347063  0.6091675366194607  1.0000
  O   O6        1.0  0.011377352260300677  0.5709868220516996  0.7982391406687392  1.0000
  O   O7        1.0  0.011474061099833621  0.5863274042760458  0.43408422580941464  1.0000
  O   O8        1.0  0.01006566707259271  0.3689433054250777  0.623155899395861  1.0000
