data_image0
_chemical_formula_structural       NC6NC2H4C6H6C6H6Zn2C4O8
_chemical_formula_sum              "N2 C24 H16 Zn2 O8"
_cell_length_a       14.927258858638513
_cell_length_b       10.681118228259551
_cell_length_c       10.681121600428288
_cell_angle_alpha    85.56070829977578
_cell_angle_beta     89.99986493836576
_cell_angle_gamma    89.99830799242187

_space_group_name_H-M_alt    "P 1"
_space_group_IT_number       1

loop_
  _space_group_symop_operation_xyz
  'x, y, z'

loop_
  _atom_site_type_symbol
  _atom_site_label
  _atom_site_symmetry_multiplicity
  _atom_site_fract_x
  _atom_site_fract_y
  _atom_site_fract_z
  _atom_site_occupancy
  N   N1        1.0  0.8435419010498285  0.37053116587977253  0.6186793499690286  1.0000
  C   C1        1.0  0.7660154098826677  0.37053114112218855  0.6186793591672743  1.0000
  C   C2        1.0  0.669582902336343  0.3705312410725985  0.6186793158544133  1.0000
  C   C3        1.0  0.6225311468737141  0.34995833813666155  0.5086255596004357  1.0000
  C   C4        1.0  0.5288198355298991  0.3499583603986476  0.5086254436640698  1.0000
  C   C5        1.0  0.4817668383478741  0.3705310868895051  0.6186793320360349  1.0000
  C   C6        1.0  0.3853342638100132  0.3705311868424892  0.6186792887180277  1.0000
  N   N2        1.0  0.3078077726428525  0.370531162084905  0.6186792979162732  1.0000
  C   C7        1.0  0.5288185268189669  0.3911039898280164  0.7287330882848664  1.0000
  C   C8        1.0  0.622529838162782  0.39110396756602994  0.728733204221232  1.0000
  H   H1        1.0  0.6582278254175128  0.3339514597344144  0.4229974209464238  1.0000
  H   H2        1.0  0.49312416990279845  0.33395163127455496  0.42299741666118496  1.0000
  H   H3        1.0  0.49312191526303634  0.4071108592705941  0.814361320833578  1.0000
  H   H4        1.0  0.6582255037857268  0.4071107812097461  0.8143613268085366  1.0000
  C   C9        1.0  0.0756791440120479  0.0027811499679188945  0.6186847214668818  1.0000
  C   C10       1.0  0.1150057463606089  0.9282678847615224  0.7181376770207022  1.0000
  C   C11       1.0  0.11500573266438652  0.7973856465857262  0.718137619766356  1.0000
  C   C12       1.0  0.07567912897133433  0.7382715539247439  0.6186847756019351  1.0000
  C   C13       1.0  0.03638508131462603  0.8127734193496361  0.5193140053931478  1.0000
  C   C14       1.0  0.0363850949659934  0.9436656774484824  0.5193140562191128  1.0000
  H   H5        1.0  0.0359090624435523  0.30927726456834104  0.5181113738496486  1.0000
  H   H6        1.0  0.1458318457522978  0.9710435057136731  0.7960935584738422  1.0000
  H   H7        1.0  0.1458317356108536  0.7425394771179333  0.7960935363529873  1.0000
  H   H8        1.0  0.005554962627756677  0.7700433414499618  0.44134794530997046  1.0000
  H   H9        1.0  0.005554939145712368  0.9984677804838566  0.4413479351272278  1.0000
  H   H10       1.0  0.035909392268680174  0.4473479136788174  0.5181110350922082  1.0000
  C   C15       1.0  0.07567915077734155  0.3705263195707267  0.2509395203124054  1.0000
  C   C16       1.0  0.011558864731793905  0.3008776522633656  0.18951702761264078  1.0000
  C   C17       1.0  0.011558808800262499  0.30087773256233774  0.058634887659755774  1.0000
  C   C18       1.0  0.07567908035278048  0.3705263809586379  0.9864299559887582  1.0000
  C   C19       1.0  0.13974644336751707  0.4401173303788579  0.047851868337976056  1.0000
  C   C20       1.0  0.13974643190600355  0.4401173109601033  0.17874416700102036  1.0000
  H   H11       1.0  0.1405217571506041  0.4409602595208557  0.5441972678413556  1.0000
  H   H12       1.0  0.9612983574998742  0.24628373508448553  0.24255385873103674  1.0000
  H   H13       1.0  0.9612983387903925  0.24628379403266565  0.014049829505509592  1.0000
  H   H14       1.0  0.1900135139864949  0.4947184416304724  0.9948593725877752  1.0000
  H   H15       1.0  0.19001346885074644  0.49471839773012727  0.22328374007217944  1.0000
  H   H16       1.0  0.14052203674436958  0.4409598232121881  0.6822682421278747  1.0000
  Zn  Zn1       1.0  0.9775190108762759  0.37052780913198213  0.6186865709942315  1.0000
  Zn  Zn2       1.0  0.17383067369864524  0.3705242611451314  0.6186823495966822  1.0000
  C   C21       1.0  0.07567711905972829  0.36553742323416905  0.847406530518632  1.0000
  C   C22       1.0  0.07567470923238395  0.3755162271076897  0.38996251293925077  1.0000
  C   C23       1.0  0.07567451211635179  0.5992481859671577  0.6136944663476702  1.0000
  C   C24       1.0  0.07567724918836083  0.14180395979268767  0.623674643876754  1.0000
  O   O1        1.0  0.15017247156377533  0.37718407580359004  0.43661829725677426  1.0000
  O   O2        1.0  0.15017536646789265  0.3638659369623105  0.8007471817668879  1.0000
  O   O3        1.0  0.15017225704251236  0.5525903335634079  0.6120230364188981  1.0000
  O   O4        1.0  0.15017551400128748  0.18845968816216208  0.625342348710064  1.0000
  O   O5        1.0  0.0011741035820973522  0.5525923821175258  0.6120265718757034  1.0000
  O   O6        1.0  0.001177213003341615  0.36386949010101666  0.800750650452005  1.0000
  O   O7        1.0  0.0011743181588876883  0.3771875853023794  0.4366202603193021  1.0000
  O   O8        1.0  0.0011773605927318798  0.18846318870385614  0.6253444056621462  1.0000
