data_image0
_chemical_formula_structural       NC8NH4C6H6C6H6Zn2C4O8
_chemical_formula_sum              "N2 C24 H16 Zn2 O8"
_cell_length_a       14.927258825633057
_cell_length_b       10.681118228259551
_cell_length_c       10.681121600428288
_cell_angle_alpha    85.56070829977578
_cell_angle_beta     89.9998652976436
_cell_angle_gamma    89.99830707925858

_space_group_name_H-M_alt    "P 1"
_space_group_IT_number       1

loop_
  _space_group_symop_operation_xyz
  'x, y, z'

loop_
  _atom_site_type_symbol
  _atom_site_label
  _atom_site_symmetry_multiplicity
  _atom_site_fract_x
  _atom_site_fract_y
  _atom_site_fract_z
  _atom_site_occupancy
  N   N1        1.0  0.8435419029153689  0.3705311464022367  0.6186793588689106  1.0000
  C   C1        1.0  0.7660154785682903  0.37053112343217776  0.6186793672543518  1.0000
  C   C2        1.0  0.6695828368224469  0.3705311231805699  0.6186794151084614  1.0000
  C   C3        1.0  0.6225322772083707  0.2938403690588214  0.5407146390684443  1.0000
  C   C4        1.0  0.5288209656541276  0.2938402910508058  0.5407146143380541  1.0000
  C   C5        1.0  0.4817668394128408  0.3705311692421396  0.6186793388138361  1.0000
  C   C6        1.0  0.5288173990305849  0.44722193232098295  0.6966440209642999  1.0000
  C   C7        1.0  0.6225287775763642  0.44722201032642306  0.6966440456998368  1.0000
  C   C8        1.0  0.3853341976711533  0.3705310844709082  0.6186792910835259  1.0000
  N   N2        1.0  0.3078077733235868  0.3705311549775676  0.6186793011638332  1.0000
  H   H1        1.0  0.6582297740761669  0.23417046394913466  0.4800536841240004  1.0000
  H   H2        1.0  0.4931261181936242  0.23417044339101722  0.48005376859663795  1.0000
  H   H3        1.0  0.4931199021627887  0.5068918374306699  0.757304975908744  1.0000
  H   H4        1.0  0.6582235580416635  0.506891849031692  0.7573049853256599  1.0000
  C   C9        1.0  0.07567914639097295  0.0027811251302922724  0.618684732815953  1.0000
  C   C10       1.0  0.11500574882650705  0.9282678590158373  0.7181376887846935  1.0000
  C   C11       1.0  0.11500573513028445  0.7973856208400413  0.7181376315303472  1.0000
  C   C12       1.0  0.07567913135025894  0.7382715290871175  0.6186847869510066  1.0000
  C   C13       1.0  0.036385083606649715  0.8127733954193161  0.5193140163276428  1.0000
  C   C14       1.0  0.03638509725801775  0.9436656535181621  0.5193140671536085  1.0000
  H   H5        1.0  0.03590906473452349  0.3092772406490125  0.5181113847791214  1.0000
  H   H6        1.0  0.14583184828636941  0.9710434792562076  0.7960935705630678  1.0000
  H   H7        1.0  0.145831738144925  0.7425394506604702  0.7960935484422114  1.0000
  H   H8        1.0  0.00555496485159801  0.770043318231515  0.44134795591918885  1.0000
  H   H9        1.0  0.005554941369553479  0.9984677572654105  0.4413479457364464  1.0000
  H   H10       1.0  0.03590939455965225  0.44734788975948125  0.5181110460216849  1.0000
  C   C15       1.0  0.07567915315626639  0.37052629473309984  0.2509395316614773  1.0000
  C   C16       1.0  0.011558866968913728  0.30087762890628733  0.18951703828520428  1.0000
  C   C17       1.0  0.011558811037381655  0.300877709205261  0.05863489833231905  1.0000
  C   C18       1.0  0.0756790827317051  0.37052635612101237  0.9864299673378292  1.0000
  C   C19       1.0  0.13974644588813034  0.4401173040619053  0.04785188036299681  1.0000
  C   C20       1.0  0.13974643442661683  0.4401172846431509  0.17874417902604112  1.0000
  H   H11       1.0  0.14052175967293223  0.44096023318600097  0.5441972798745565  1.0000
  H   H12       1.0  0.9612983596258395  0.24628371288793183  0.24255386887332087  1.0000
  H   H13       1.0  0.961298340916358  0.24628377183611216  0.01404983964779416  1.0000
  H   H14       1.0  0.1900135166182768  0.49471841415284357  0.9948593851431444  1.0000
  H   H15       1.0  0.19001347148252812  0.49471837025249954  0.2232837526275484  1.0000
  H   H16       1.0  0.1405220392666986  0.44095979687732667  0.6822682541610785  1.0000
  Zn  Zn1       1.0  0.9775190130381141  0.3705277865608909  0.6186865813076536  1.0000
  Zn  Zn2       1.0  0.17383067629463755  0.37052423404116763  0.6186823619813122  1.0000
  C   C21       1.0  0.07567712143864869  0.3655373983965886  0.8474065418676824  1.0000
  C   C22       1.0  0.07567471161129924  0.37551620227016547  0.3899625242882754  1.0000
  C   C23       1.0  0.07567451449526641  0.5992481611296374  0.6136944776966933  1.0000
  C   C24       1.0  0.07567725156728189  0.14180393495510413  0.6236746552258055  1.0000
  O   O1        1.0  0.15017247410744639  0.3771840492458991  0.4366183093917959  1.0000
  O   O2        1.0  0.15017536901157014  0.36386591040455185  0.8007471939019399  1.0000
  O   O3        1.0  0.15017225958618274  0.5525903070057212  0.6120230485539175  1.0000
  O   O4        1.0  0.15017551654496542  0.1884596616044003  0.6253423608451179  1.0000
  O   O5        1.0  0.0011741057962504353  0.5525923590002337  0.6120265824387012  1.0000
  O   O6        1.0  0.0011772152175015815  0.36386946698365263  0.8007506610150359  1.0000
  O   O7        1.0  0.0011743203730409935  0.3771875621850822  0.43662027088230304  1.0000
  O   O8        1.0  0.0011773628068922903  0.1884631655864888  0.6253444162251784  1.0000
