data_image0
_chemical_formula_structural       NC9NC5H8C7OC6OCH11C7OC6H10Zn2C4O8
_chemical_formula_sum              "N2 C45 H29 O11 Zn2"
_cell_length_a       17.807436237873137
_cell_length_b       10.299359160628079
_cell_length_c       10.299382801718284
_cell_angle_alpha    85.57723515363111
_cell_angle_beta     89.37299496534969
_cell_angle_gamma    88.41300836981586

_space_group_name_H-M_alt    "P 1"
_space_group_IT_number       1

loop_
  _space_group_symop_operation_xyz
  'x, y, z'

loop_
  _atom_site_type_symbol
  _atom_site_label
  _atom_site_symmetry_multiplicity
  _atom_site_fract_x
  _atom_site_fract_y
  _atom_site_fract_z
  _atom_site_occupancy
  N   N1        1.0  0.7080170098229004  0.38749075630762886  0.5572510839967693  1.0000
  C   C1        1.0  0.6474235028644024  0.3522984595657108  0.5462237735930484  1.0000
  C   C2        1.0  0.5720518400022482  0.3085231179938922  0.5325069967885825  1.0000
  C   C3        1.0  0.5539645808277213  0.2370867343030101  0.42749672553359086  1.0000
  C   C4        1.0  0.4807825760191647  0.19447273722395303  0.4140959798981893  1.0000
  C   C5        1.0  0.42463903084469534  0.22291758333393194  0.5056730180319455  1.0000
  C   C6        1.0  0.3468654351677488  0.1777448135068074  0.49151358157181185  1.0000
  C   C7        1.0  0.2847029047837936  0.25950701608504345  0.517460378562566  1.0000
  C   C8        1.0  0.2113785453956655  0.2166899811506955  0.5040732949779803  1.0000
  C   C9        1.0  0.1481664768718461  0.3011436389240452  0.5303842512158056  1.0000
  N   N2        1.0  0.09735696086168429  0.3690385371457222  0.5515375329874781  1.0000
  C   C10       1.0  0.1996331167879095  0.09185275565359419  0.46471404014092893  1.0000
  C   C11       1.0  0.2609382757950508  0.01007669897717101  0.4387588520900036  1.0000
  C   C12       1.0  0.3341431517338868  0.05249914866798489  0.4519433587261523  1.0000
  C   C13       1.0  0.4434177657858234  0.29484838205944097  0.6109025670169217  1.0000
  C   C14       1.0  0.5166526285164061  0.33727195212503336  0.6241476428965695  1.0000
  H   H1        1.0  0.5963684283952931  0.21458726042422718  0.3557813745636722  1.0000
  H   H2        1.0  0.467873934792538  0.14077365801560981  0.3311699115891258  1.0000
  H   H3        1.0  0.29321724991350184  0.35697868074812794  0.5463467901170518  1.0000
  H   H4        1.0  0.1431622978852246  0.057814240098714935  0.4541158808208941  1.0000
  H   H5        1.0  0.2517260125115595  0.913424909378196  0.4086720985957073  1.0000
  H   H6        1.0  0.3807725140399767  0.9867496275474992  0.4328886389693236  1.0000
  H   H7        1.0  0.4017304185697159  0.3168090527038643  0.683912374130405  1.0000
  H   H8        1.0  0.5300901072431312  0.3921914282485302  0.7060321925611361  1.0000
  C   C15       1.0  0.9026021750392426  0.9968903834013216  0.554364086660496  1.0000
  C   C16       1.0  0.840480888871798  0.0050993752578889565  0.47087903150720617  1.0000
  C   C17       1.0  0.8096873745268319  0.8922294229052233  0.42767041376327497  1.0000
  C   C18       1.0  0.8406597872938575  0.7698294321679726  0.47113151161887745  1.0000
  C   C19       1.0  0.9027789748147282  0.7596285656793375  0.5544357383208363  1.0000
  C   C20       1.0  0.9334962185557828  0.8737572570554969  0.5953599589903593  1.0000
  C   C21       1.0  0.7435714201164223  0.9030587669927628  0.34070745600284064  1.0000
  O   O1        1.0  0.6958280393761911  0.9941963800401792  0.35297457617220895  1.0000
  C   C22       1.0  0.7316156780013423  0.8105682169866831  0.23983574439450295  1.0000
  C   C23       1.0  0.7927336544974943  0.754310581369315  0.17488389159562057  1.0000
  C   C24       1.0  0.7806775653796765  0.6684770232550685  0.07897932768195103  1.0000
  C   C25       1.0  0.7077019030416914  0.6380146507445194  0.04528764893289172  1.0000
  C   C26       1.0  0.6463313149200257  0.6953187844647547  0.10893145420512163  1.0000
  C   C27       1.0  0.6583186986749274  0.7812144969614462  0.2048834476942505  1.0000
  O   O2        1.0  0.6986219467197773  0.5511994976851025  0.9485229199597341  1.0000
  C   C28       1.0  0.6278343177082855  0.5117013840196608  0.9046937883532045  1.0000
  H   H9        1.0  0.8163265662378828  0.09956590423934553  0.43824881837459073  1.0000
  H   H10       1.0  0.81572622463696  0.6823681557651607  0.44104605005773084  1.0000
  H   H11       1.0  0.9814145481614472  0.8666204938422544  0.659625276107616  1.0000
  H   H12       1.0  0.9264161358502035  0.428219145738042  0.5868068760799983  1.0000
  H   H13       1.0  0.849844716416053  0.7776962919417588  0.19717683790443585  1.0000
  H   H14       1.0  0.8283649639313582  0.6257600920770419  0.030098421195406063  1.0000
  H   H15       1.0  0.5891891817044315  0.6742112240141762  0.08499435373398945  1.0000
  H   H16       1.0  0.6102116399328806  0.8239053236625236  0.2527197549282305  1.0000
  H   H17       1.0  0.6372272871530809  0.44284624357873054  0.8280813881369279  1.0000
  H   H18       1.0  0.5948317633305553  0.5976056521807283  0.862668211262553  1.0000
  H   H19       1.0  0.5962821477417433  0.46164288677972953  0.9866922618324061  1.0000
  C   C29       1.0  0.902765494992562  0.3781827199990544  0.1730289974453263  1.0000
  C   C30       1.0  0.9816904759341726  0.3753056728079197  0.17056721545033904  1.0000
  C   C31       1.0  0.02149765326868436  0.3723664757642138  0.05226730715863126  1.0000
  C   C32       1.0  0.9815074137131812  0.37534238617086874  0.9353243358984962  1.0000
  C   C33       1.0  0.9026156167848203  0.37833628223765386  0.9357707452899655  1.0000
  C   C34       1.0  0.8637022055610819  0.37939435641754304  0.055182152368040915  1.0000
  C   C35       1.0  0.10483249490939728  0.37071265807836173  0.04941611376271271  1.0000
  O   O3        1.0  0.13794748061349815  0.429853526014663  0.9544092093585479  1.0000
  C   C36       1.0  0.15060022577563825  0.3019588018981519  0.1542441648977  1.0000
  C   C37       1.0  0.22122441860667186  0.3490726515841081  0.18431409466192725  1.0000
  C   C38       1.0  0.26516075311341747  0.284054992805026  0.28191762155311983  1.0000
  C   C39       1.0  0.23939269965925725  0.17096996679766588  0.34964857921398645  1.0000
  C   C40       1.0  0.16976436655936264  0.12236192282309344  0.31954087562959543  1.0000
  C   C41       1.0  0.12561393252092268  0.18701100726283815  0.2220425144695315  1.0000
  H   H20       1.0  0.7538227076722758  0.3856238581504153  0.38483948098445575  1.0000
  H   H21       1.0  0.012296616955173036  0.3768056838188391  0.26071720696860545  1.0000
  H   H22       1.0  0.012120622646511148  0.37406287219981293  0.8439236262866783  1.0000
  H   H23       1.0  0.802856992055941  0.3816131417488185  0.05627576557809343  1.0000
  H   H24       1.0  0.8723091241292957  0.38059139667461994  0.6084005291082444  1.0000
  H   H25       1.0  0.24210211737558196  0.4367583141717243  0.1330808689396732  1.0000
  H   H26       1.0  0.3192474739065535  0.32137631741414285  0.3050004812415221  1.0000
  H   H27       1.0  0.2735089757066167  0.12072466802908766  0.42508659108221303  1.0000
  H   H28       1.0  0.15010940364795045  0.03416239104863972  0.3713848755357749  1.0000
  H   H29       1.0  0.07242853222246334  0.1463647197021596  0.19875988745673734  1.0000
  Zn  Zn1       1.0  0.8203721060151178  0.3821623806261871  0.5556097871009766  1.0000
  Zn  Zn2       1.0  0.9850018419209889  0.37435632865846347  0.5531895055567355  1.0000
  C   C42       1.0  0.902641094496579  0.3731335787058635  0.7915957949247949  1.0000
  C   C43       1.0  0.9027346515458947  0.3833866840044862  0.3172035989244768  1.0000
  C   C44       1.0  0.9027426986298087  0.6154539903491376  0.5492470197679851  1.0000
  C   C45       1.0  0.9026329908607807  0.1410647147149977  0.5595524439996559  1.0000
  O   O4        1.0  0.9652004256913832  0.38216516000481926  0.36467142746754866  1.0000
  O   O5        1.0  0.9651254804772174  0.36842951007067865  0.7422906547511878  1.0000
  O   O6        1.0  0.9652066846263893  0.5641063472383265  0.5465923166628399  1.0000
  O   O7        1.0  0.9651191653865184  0.18648833477159366  0.5603696690074731  1.0000
  O   O8        1.0  0.8402547263695409  0.5700303771782921  0.5484296244693312  1.0000
  O   O9        1.0  0.8401735225922058  0.3743551003220929  0.7441278934584026  1.0000
  O   O10       1.0  0.8402484681526029  0.3880907046829445  0.3665071047609876  1.0000
  O   O11       1.0  0.8401672078233836  0.19241387018053135  0.5622054436684281  1.0000
