data_image0
_chemical_formula_structural       NC12NC2H8C12H15C6OCH7Zn2C4O8
_chemical_formula_sum              "N2 C37 H30 O9 Zn2"
_cell_length_a       17.80743265337812
_cell_length_b       10.298977702784466
_cell_length_c       9.273891588657152
_cell_angle_alpha    86.05747292899095
_cell_angle_beta     91.22048166911064
_cell_angle_gamma    89.43206247709772

_space_group_name_H-M_alt    "P 1"
_space_group_IT_number       1

loop_
  _space_group_symop_operation_xyz
  'x, y, z'

loop_
  _atom_site_type_symbol
  _atom_site_label
  _atom_site_symmetry_multiplicity
  _atom_site_fract_x
  _atom_site_fract_y
  _atom_site_fract_z
  _atom_site_occupancy
  N   N1        1.0  0.7118730071500736  0.39406933574076414  0.44742893973653836  1.0000
  C   C1        1.0  0.6612732832137486  0.423004866510224  0.371184415625593  1.0000
  C   C2        1.0  0.5983221840888658  0.45899859978894897  0.2763458249812283  1.0000
  C   C3        1.0  0.6104545310140364  0.5118704835592076  0.1358184691971529  1.0000
  C   C4        1.0  0.5494031274533239  0.5463823202788602  0.043639193805113045  1.0000
  C   C5        1.0  0.4760671887672906  0.5282797488435808  0.09125489618225792  1.0000
  C   C6        1.0  0.46295656571782334  0.4752933170800079  0.23230178656788225  1.0000
  C   C7        1.0  0.5248653384134903  0.44078458409795274  0.324462737958755  1.0000
  C   C8        1.0  0.38504325291459685  0.4561025797892939  0.28309191378796106  1.0000
  C   C9        1.0  0.3658475275051076  0.48444930697571287  0.4240628525281796  1.0000
  C   C10       1.0  0.292481510698793  0.4663886824074418  0.4717235531529762  1.0000
  C   C11       1.0  0.2373655641758097  0.41973467229535705  0.3793432886501322  1.0000
  C   C12       1.0  0.16185845744050764  0.40113393847791046  0.4285587755238103  1.0000
  N   N2        1.0  0.1011560904440987  0.3861801988546007  0.46812464128343856  1.0000
  C   C13       1.0  0.2558680565681541  0.3912239654867634  0.2389749364564735  1.0000
  C   C14       1.0  0.329182040757881  0.4092970447175631  0.1910302749058406  1.0000
  H   H1        1.0  0.667030376803217  0.5263817666038421  0.09759896134030743  1.0000
  H   H2        1.0  0.5589140142940592  0.5875921290965507  0.935120201595646  1.0000
  H   H3        1.0  0.4296376170365945  0.5573202220147058  0.01845921035742881  1.0000
  H   H4        1.0  0.5160532940445198  0.39818820319966175  0.43284410496208636  1.0000
  H   H5        1.0  0.4073114506510259  0.5222297015692481  0.49681619832060014  1.0000
  H   H6        1.0  0.2787219920951201  0.48912956050014206  0.5804758529918697  1.0000
  H   H7        1.0  0.21368587213148768  0.35471473500043693  0.16667941219189975  1.0000
  H   H8        1.0  0.3424122549933115  0.38502324077703554  0.08261510643682768  1.0000
  C   C15       1.0  0.9065322137009751  0.008720604069565985  0.45792324891500996  1.0000
  C   C16       1.0  0.9078713065068024  0.9981261473866149  0.6097853029703306  1.0000
  C   C17       1.0  0.9087225574225615  0.8755310822233671  0.6866369593960082  1.0000
  C   C18       1.0  0.907830907235875  0.7628616178932592  0.6094489231918792  1.0000
  C   C19       1.0  0.9065040335033597  0.7715188692992722  0.45764309903720446  1.0000
  C   C20       1.0  0.9059188894179527  0.8949063054460126  0.38277699003324944  1.0000
  C   C21       1.0  0.9100018853536046  0.8638810498867627  0.8508506913466103  1.0000
  C   C22       1.0  0.8363792228860841  0.9176502483702399  0.9119043327168135  1.0000
  C   C23       1.0  0.8463707502211615  0.9644142809548965  0.0655712908277396  1.0000
  C   C24       1.0  0.9086735744304841  0.88825251952409  0.1520660225805106  1.0000
  C   C25       1.0  0.9855319828667408  0.9044651901137899  0.07966061147452586  1.0000
  C   C26       1.0  0.9796905585190314  0.9292998673841716  0.9138091651525411  1.0000
  H   H9        1.0  0.9036792011328013  0.23604185886186294  0.1712489918982827  1.0000
  H   H10       1.0  0.9079639336158696  0.0853472055452209  0.6686302490134561  1.0000
  H   H11       1.0  0.9081929251776955  0.6681833346450872  0.6680583647329849  1.0000
  H   H12       1.0  0.9048927748201717  0.9022854201490326  0.2656875074651026  1.0000
  H   H13       1.0  0.905755091973674  0.44737346103450404  0.39919579558402285  1.0000
  H   H14       1.0  0.9142878434934647  0.7588839413595801  0.8883471846933695  1.0000
  H   H15       1.0  0.793642889207928  0.8395686094105451  0.913508980476523  1.0000
  H   H16       1.0  0.8131703487939785  0.00042075556849186223  0.8408802842748133  1.0000
  H   H17       1.0  0.8606438986353491  0.06954599560091346  0.05842796801983796  1.0000
  H   H18       1.0  0.7925643640349243  0.9537248675595122  0.12356402886611206  1.0000
  H   H19       1.0  0.8937503969070733  0.7834284695889546  0.16156508920858548  1.0000
  H   H20       1.0  0.019872241404637732  0.8151051439934589  0.10727336059318915  1.0000
  H   H21       1.0  0.015710222110631326  0.9869900936578191  0.12498135359140407  1.0000
  H   H22       1.0  0.9766136024893236  0.036084762321246126  0.8866202056993958  1.0000
  H   H23       1.0  0.03146802416545791  0.8917617509262352  0.8652490247091114  1.0000
  C   C27       1.0  0.9077488050937053  0.38665502135436136  0.03457454419897  1.0000
  C   C28       1.0  0.9692613732141419  0.44026699213000653  0.10639843296686258  1.0000
  C   C29       1.0  0.02651283035671037  0.5036637755773324  0.029608797632653113  1.0000
  C   C30       1.0  0.022456440659872408  0.513769888335851  0.8779488715158488  1.0000
  C   C31       1.0  0.9625220048213005  0.4593395094627637  0.8048669712019387  1.0000
  C   C32       1.0  0.9052874295900695  0.393584452146822  0.8809918166622874  1.0000
  O   O1        1.0  0.08597408545805152  0.5557181911021238  0.10795712316655348  1.0000
  C   C33       1.0  0.14782729341827627  0.6228182991279421  0.04414412107665311  1.0000
  H   H24       1.0  0.7290835247318257  0.3105039530295879  0.13612244154693154  1.0000
  H   H25       1.0  0.06572507801783514  0.562489031886453  0.8153089344306497  1.0000
  H   H26       1.0  0.9619156645187737  0.46604566125215  0.687751114883903  1.0000
  H   H27       1.0  0.7861416067547904  0.337143265762339  0.5992364521163807  1.0000
  H   H28       1.0  0.12766077506659726  0.7111182798877742  0.9786443166282037  1.0000
  H   H29       1.0  0.17914971295401094  0.5577239905102718  0.9754202082633651  1.0000
  H   H30       1.0  0.18627709573520224  0.6530839041633862  0.13102045440962273  1.0000
  Zn  Zn1       1.0  0.8242116753176985  0.39178930166856013  0.4534095817434012  1.0000
  Zn  Zn2       1.0  0.9888173859900591  0.3884497347268714  0.4621557583747616  1.0000
  C   C34       1.0  0.9057512101604845  0.3871005569968397  0.7210026582141744  1.0000
  C   C35       1.0  0.9072796481646485  0.39314008285962765  0.19456291826089123  1.0000
  C   C36       1.0  0.9065221975796847  0.627286860191409  0.45195294129208885  1.0000
  C   C37       1.0  0.90650860441123  0.1529522209869219  0.4636127096062963  1.0000
  O   O2        1.0  0.9695892043730433  0.3940435142276369  0.25157560863918826  1.0000
  O   O3        1.0  0.9683735808781242  0.383661488382999  0.6706276990256945  1.0000
  O   O4        1.0  0.9689953165267448  0.5776149951356777  0.45336810379971815  1.0000
  O   O5        1.0  0.9689674128695296  0.200090017020957  0.46883509281969626  1.0000
  O   O6        1.0  0.8440615922663997  0.5801490205154566  0.4467302443062444  1.0000
  O   O7        1.0  0.843439856780169  0.38619707358189637  0.6639897621166795  1.0000
  O   O8        1.0  0.8446554853653657  0.39657903998003885  0.24493593904851754  1.0000
  O   O9        1.0  0.8440336935449168  0.20262553436834255  0.46219553128227187  1.0000
