data_image0
_chemical_formula_structural       NC8NH4C6ClH5C6OCH7Zn2C4O8
_chemical_formula_sum              "N2 C25 H16 Cl1 O9 Zn2"
_cell_length_a       11.048855714531884
_cell_length_b       9.276545438789551
_cell_length_c       9.273891588657152
_cell_angle_alpha    86.10611493905307
_cell_angle_beta     89.68013134721441
_cell_angle_gamma    89.40961225544244

_space_group_name_H-M_alt    "P 1"
_space_group_IT_number       1

loop_
  _space_group_symop_operation_xyz
  'x, y, z'

loop_
  _atom_site_type_symbol
  _atom_site_label
  _atom_site_symmetry_multiplicity
  _atom_site_fract_x
  _atom_site_fract_y
  _atom_site_fract_z
  _atom_site_occupancy
  N   N1        1.0  0.13359840178342686  0.5637224592768155  0.4109982581640379  1.0000
  C   C1        1.0  0.07999338529780675  0.5050132855810514  0.3259768234052247  1.0000
  C   C2        1.0  0.013110866315829259  0.43176097206223485  0.21989407066911792  1.0000
  C   C3        1.0  0.8853941120935859  0.4317607824238352  0.21989417227954286  1.0000
  C   C4        1.0  0.8237415863531498  0.35934760393995147  0.11502693016119259  1.0000
  C   C5        1.0  0.8882762478154129  0.287507213433595  0.010989107543077463  1.0000
  C   C6        1.0  0.014682461079943651  0.28750710352421005  0.010989130142258215  1.0000
  C   C7        1.0  0.07699912445000168  0.35934770211631983  0.11502690250302106  1.0000
  C   C8        1.0  0.8162499636337427  0.5050133603885605  0.32597681031683967  1.0000
  N   N2        1.0  0.7608322874161036  0.5637225022038709  0.41099828698035873  1.0000
  H   H1        1.0  0.7256933468243602  0.35844081699739716  0.11371309831836651  1.0000
  H   H2        1.0  0.8402385788583902  0.23178613458531608  0.93029556597482  1.0000
  H   H3        1.0  0.06444061914148791  0.2317862439920635  0.9302955654304101  1.0000
  H   H4        1.0  0.17507535770045915  0.35844077043777123  0.11371337340761568  1.0000
  C   C9        1.0  0.4508750395685349  0.14028517689725306  0.4107606607797607  1.0000
  C   C10       1.0  0.45195535133792963  0.22273634193643188  0.27771990196149465  1.0000
  C   C11       1.0  0.4420109628975619  0.15648277163697055  0.14757479846393262  1.0000
  C   C12       1.0  0.4307457327453592  0.006899689288814679  0.14846820329838306  1.0000
  C   C13       1.0  0.4315441181451951  0.922888077372522  0.27906699739238805  1.0000
  C   C14       1.0  0.44356733091913086  0.9871488044282237  0.4112483502009643  1.0000
  Cl  Cl1       1.0  0.44184279128410525  0.2616195398125589  0.9830183652115861  1.0000
  H   H5        1.0  0.5117149173555199  0.4052887449219144  0.6373767365360019  1.0000
  H   H6        1.0  0.4576398250880739  0.33943116065952306  0.27486612671042754  1.0000
  H   H7        1.0  0.4225228547608586  0.9552696754129307  0.0477801800468003  1.0000
  H   H8        1.0  0.42563949006412916  0.8066036987787784  0.2764164997001046  1.0000
  H   H9        1.0  0.40190516680297006  0.6905160802203653  0.6443260332268403  1.0000
  C   C15       1.0  0.4492368568631586  0.5598980812019421  0.9877269679781896  1.0000
  C   C16       1.0  0.5478269371356035  0.6208024633053559  0.056335745932285956  1.0000
  C   C17       1.0  0.6394589496525768  0.6924741438636746  0.9765672780418457  1.0000
  C   C18       1.0  0.6328276413867491  0.7036027580698004  0.8251330734315045  1.0000
  C   C19       1.0  0.5367878203293279  0.6418252800631908  0.7551815949393057  1.0000
  C   C20       1.0  0.4452054579293856  0.5675358065760827  0.8342820067241399  1.0000
  O   O1        1.0  0.7347590684044242  0.751603163938291  0.05180794119827681  1.0000
  C   C21       1.0  0.83376952425956  0.8274898379949028  0.9847752755513971  1.0000
  H   H10       1.0  0.16212119379382542  0.47133478789630895  0.09869319167248403  1.0000
  H   H11       1.0  0.7020722186222518  0.7586646141558326  0.7602426492641214  1.0000
  H   H12       1.0  0.5357471220917238  0.6492568562648131  0.638104698288112  1.0000
  H   H13       1.0  0.2537916226303363  0.5021937070080094  0.5588017204192353  1.0000
  H   H14       1.0  0.8004393580814253  0.9250673868441459  0.9204358867206208  1.0000
  H   H15       1.0  0.8848515948016197  0.7559263934980192  0.914321399944003  1.0000
  H   H16       1.0  0.89542635401859  0.8619560218375121  0.06963867156113612  1.0000
  Zn  Zn1       1.0  0.31460456030231043  0.5637186783797385  0.41100658504311394  1.0000
  Zn  Zn2       1.0  0.5798262019051748  0.5637145627251321  0.41100174969242564  1.0000
  C   C22       1.0  0.44601436770707403  0.5603477738289491  0.6742616879493164  1.0000
  C   C23       1.0  0.44841927433907497  0.5670872878814388  0.1477467892548645  1.0000
  C   C24       1.0  0.44496974298310416  0.8270216967796231  0.4054122847193691  1.0000
  C   C25       1.0  0.4494638231448278  0.30041163320751596  0.41659626833608865  1.0000
  O   O2        1.0  0.5487951712331509  0.5694921987241761  0.20144906446146305  1.0000
  O   O3        1.0  0.5469355713412245  0.557938647761334  0.620555327269046  1.0000
  O   O4        1.0  0.5460906597149837  0.773281226639335  0.4034575328948651  1.0000
  O   O5        1.0  0.5496399927828646  0.3541496291875223  0.41854675076806713  1.0000
  O   O6        1.0  0.34479067891751347  0.7732836119202542  0.40346158396154186  1.0000
  O   O7        1.0  0.3456355759548637  0.5579427647684088  0.6205593024785148  1.0000
  O   O8        1.0  0.3474951846135084  0.569496249847848  0.2014513066590431  1.0000
  O   O9        1.0  0.3483400057326417  0.35415367097275263  0.4185491010272939  1.0000
