data_image0
_chemical_formula_structural       NC9NC5H8C6SCOC6H10C7OC3OC4H12Zn2C4O8
_chemical_formula_sum              "N2 C45 H30 S1 O11 Zn2"
_cell_length_a       17.807436237873137
_cell_length_b       10.30203810924657
_cell_length_c       10.299374482448634
_cell_angle_alpha    85.55445882342694
_cell_angle_beta     89.37372472773511
_cell_angle_gamma    88.40854036149848

_space_group_name_H-M_alt    "P 1"
_space_group_IT_number       1

loop_
  _space_group_symop_operation_xyz
  'x, y, z'

loop_
  _atom_site_type_symbol
  _atom_site_label
  _atom_site_symmetry_multiplicity
  _atom_site_fract_x
  _atom_site_fract_y
  _atom_site_fract_z
  _atom_site_occupancy
  N   N1        1.0  0.707934127415845  0.3877392463517023  0.5572356929573212  1.0000
  C   C1        1.0  0.6473420587753869  0.35256074176999674  0.5462071932444805  1.0000
  C   C2        1.0  0.5719721850222409  0.30880255613380747  0.5324889370698771  1.0000
  C   C3        1.0  0.553886693539942  0.23742903495759068  0.42747351078367135  1.0000
  C   C4        1.0  0.4807064297085772  0.19483175887310078  0.4140713234373598  1.0000
  C   C5        1.0  0.4245628744456041  0.2232305752136425  0.50565206497917  1.0000
  C   C6        1.0  0.3467911249242246  0.17807551100457664  0.49149110176471783  1.0000
  C   C7        1.0  0.2846252574582208  0.2598055322677384  0.5174406727247136  1.0000
  C   C8        1.0  0.21130264842293064  0.2170052652889358  0.504052143131259  1.0000
  C   C9        1.0  0.1480871261359412  0.3014258891497496  0.5303659483991667  1.0000
  N   N2        1.0  0.0972748335543678  0.36929422992978633  0.5515215206301878  1.0000
  C   C10       1.0  0.19956231856735765  0.09221706676546444  0.46468866143737697  1.0000
  C   C11       1.0  0.2608708151663057  0.010473198542627175  0.4387306988146724  1.0000
  C   C12       1.0  0.3340739557786187  0.05287906822802092  0.45191663550638783  1.0000
  C   C13       1.0  0.44333982238484887  0.29509829050272457  0.6108867878387099  1.0000
  C   C14       1.0  0.5165729505826498  0.33750525471335546  0.624133295809342  1.0000
  H   H1        1.0  0.5962905591364114  0.2149656658217094  0.355755254380335  1.0000
  H   H2        1.0  0.46779906164758894  0.14118161711640775  0.3311412477321314  1.0000
  H   H3        1.0  0.2931355958122063  0.3572396956569217  0.5463303233679506  1.0000
  H   H4        1.0  0.1430928917701108  0.058191862660246896  0.45408935404287365  1.0000
  H   H5        1.0  0.2516625048338643  0.9138592038199492  0.4086406855992963  1.0000
  H   H6        1.0  0.3807060268590461  0.9871546618888548  0.43285974510615977  1.0000
  H   H7        1.0  0.4016524995612737  0.31702245009788815  0.6838995307170668  1.0000
  H   H8        1.0  0.530009086414193  0.39237591595868965  0.706021846878572  1.0000
  C   C15       1.0  0.9025369226522365  0.9972415249540908  0.5543394596720022  1.0000
  C   C16       1.0  0.8383281164655966  0.005071567902503523  0.47575977415095905  1.0000
  C   C17       1.0  0.806733945810821  0.8919923294426906  0.4361726635073986  1.0000
  C   C18       1.0  0.8385697620041563  0.7699275342473129  0.47570221982785954  1.0000
  C   C19       1.0  0.9026792352276258  0.7597816590299047  0.5544289482612512  1.0000
  C   C20       1.0  0.9343708769845404  0.8741057797476082  0.5932537143270111  1.0000
  S   S1        1.0  0.7252323888491317  0.9034123898414992  0.3347565426079211  1.0000
  C   C21       1.0  0.7804913906171328  0.9093232010584162  0.187519015315341  1.0000
  O   O1        1.0  0.7986140982329223  0.8032077361857995  0.1409015518144032  1.0000
  C   C22       1.0  0.8052797603888754  0.03433033967622956  0.12165562168415132  1.0000
  C   C23       1.0  0.8584133273770855  0.03417612638086198  0.01936612380519986  1.0000
  C   C24       1.0  0.8825692258494069  0.15138234292499966  0.9572865886447584  1.0000
  C   C25       1.0  0.853998185555627  0.26996380735772973  0.9962083741245386  1.0000
  C   C26       1.0  0.8010907977026591  0.2715802048490203  0.09714146639765751  1.0000
  C   C27       1.0  0.7766844349993631  0.1546894168700721  0.1595448600103837  1.0000
  H   H9        1.0  0.023475965856001535  0.1897909223751435  0.7026230005219665  1.0000
  H   H10       1.0  0.8127746142850908  0.09881154816953706  0.44485803799350876  1.0000
  H   H11       1.0  0.8132583751391105  0.6833826250517993  0.44430838404657286  1.0000
  H   H12       1.0  0.9838716669809787  0.8671490392888136  0.6538300846324961  1.0000
  H   H13       1.0  0.9271847178499429  0.42860354028129877  0.5840368044559894  1.0000
  H   H14       1.0  0.881658356548417  0.9435177314713799  0.9877264221068376  1.0000
  H   H15       1.0  0.9235637753577749  0.15021193215496442  0.8789849173018944  1.0000
  H   H16       1.0  0.8727849877811981  0.3605894473715853  0.9480568765597337  1.0000
  H   H17       1.0  0.7788306755116849  0.3635752408546528  0.12700600446922983  1.0000
  H   H18       1.0  0.7352500149250021  0.15926864071930777  0.23672061392273397  1.0000
  C   C28       1.0  0.9026776770403  0.3785957586209031  0.1730006431986455  1.0000
  C   C29       1.0  0.9811517963356944  0.38953887979660173  0.16947930991271432  1.0000
  C   C30       1.0  0.02063734606039591  0.3965338067343868  0.05041702449974549  1.0000
  C   C31       1.0  0.980972212541437  0.38948353201284397  0.9342430871449388  1.0000
  C   C32       1.0  0.9025384449298812  0.37842740338582503  0.9357676930355281  1.0000
  C   C33       1.0  0.8638238181777862  0.3733894426368001  0.05564637816067574  1.0000
  C   C34       1.0  0.103588511990053  0.40672662991411146  0.046662280386082555  1.0000
  O   O2        1.0  0.14043591116065057  0.3514517324717057  0.9602679344094684  1.0000
  C   C35       1.0  0.14473498427408082  0.4796408276498134  0.14083520802425187  1.0000
  C   C36       1.0  0.21802378774642864  0.43945970009676727  0.17791946511513543  1.0000
  C   C37       1.0  0.25816469215726223  0.5078053101180491  0.2655421124784094  1.0000
  O   O3        1.0  0.3308423738461228  0.4624800135602063  0.2997636729762569  1.0000
  C   C38       1.0  0.37792354736331346  0.522105466984367  0.3874724423427007  1.0000
  C   C39       1.0  0.22460169504450617  0.6187558462457083  0.3159624823855003  1.0000
  C   C40       1.0  0.15219027336870594  0.6602283024616918  0.2783549542170098  1.0000
  C   C41       1.0  0.11248292930231395  0.5916291989785609  0.1909669483191887  1.0000
  H   H19       1.0  0.7547154121110726  0.35595162305395367  0.3871196405793591  1.0000
  H   H20       1.0  0.01174989174013996  0.3911805438756428  0.2596218906620291  1.0000
  H   H21       1.0  0.011397521804360716  0.3938963161685357  0.8424036429033415  1.0000
  H   H22       1.0  0.8033260054559697  0.3649522445106319  0.05755735331156808  1.0000
  H   H23       1.0  0.8724783325569452  0.37309354971177505  0.6089792772578537  1.0000
  H   H24       1.0  0.24406160552435074  0.35393421025875815  0.13964869367502428  1.0000
  H   H25       1.0  0.4319906718277826  0.46619958650141946  0.39663121171074245  1.0000
  H   H26       1.0  0.3507952220516776  0.5215901624063913  0.4851050779454486  1.0000
  H   H27       1.0  0.38949243910038  0.6235387649003898  0.3496533552793475  1.0000
  H   H28       1.0  0.2540517030928321  0.673784897464506  0.38372798672739167  1.0000
  H   H29       1.0  0.1268581054625397  0.746209295068812  0.31664435895942744  1.0000
  H   H30       1.0  0.056935353849795194  0.6269797195466434  0.16156194686298092  1.0000
  Zn  Zn1       1.0  0.8202894417749425  0.3824129469557065  0.5555942169307037  1.0000
  Zn  Zn2       1.0  0.9849194970744416  0.3746099434007899  0.5531736724367297  1.0000
  C   C42       1.0  0.9025621287050162  0.37328690991891106  0.79158784159364  1.0000
  C   C43       1.0  0.9026486081818702  0.38373753341718175  0.3171801490050614  1.0000
  C   C44       1.0  0.9026493918644586  0.6156466591354847  0.5492366976354053  1.0000
  C   C45       1.0  0.9025612885419845  0.141376226929389  0.5595313628475345  1.0000
  O   O4        1.0  0.9651150993599065  0.3824962964791463  0.3646495235645111  1.0000
  O   O5        1.0  0.9650460401045926  0.36860486830911543  0.7422809557955583  1.0000
  O   O6        1.0  0.9651156637532445  0.5643134704792006  0.5465807049162498  1.0000
  O   O7        1.0  0.9650454195536752  0.18678770628112495  0.5603496778924737  1.0000
  O   O8        1.0  0.840163463115552  0.5702351867395687  0.5484182122941419  1.0000
  O   O9        1.0  0.8400938397671865  0.3745281445048996  0.7441183941083939  1.0000
  O   O10       1.0  0.8401628993490252  0.3884195277723511  0.366485400410709  1.0000
  O   O11       1.0  0.8400932195202164  0.19271092826646316  0.5621856521092004  1.0000
