data_image0
_chemical_formula_structural       NC5N2C2NH4C7NH5C7NH4Zn2C4O8
_chemical_formula_sum              "N6 C25 H13 Zn2 O8"
_cell_length_a       13.87973921873968
_cell_length_b       9.275154477615127
_cell_length_c       9.275157849593905
_cell_angle_alpha    86.33461140486662
_cell_angle_beta     89.74088206282475
_cell_angle_gamma    89.4337086285363

_space_group_name_H-M_alt    "P 1"
_space_group_IT_number       1

loop_
  _space_group_symop_operation_xyz
  'x, y, z'

loop_
  _atom_site_type_symbol
  _atom_site_label
  _atom_site_symmetry_multiplicity
  _atom_site_fract_x
  _atom_site_fract_y
  _atom_site_fract_z
  _atom_site_occupancy
  N   N1        1.0  0.9016983355936092  0.5626393627009321  0.41656697267565845  1.0000
  C   C1        1.0  0.8286016096834887  0.5866248180764042  0.36003807678860067  1.0000
  C   C2        1.0  0.7378181521866939  0.6164170931017325  0.28982307839886934  1.0000
  C   C3        1.0  0.6513556912190233  0.5864318411184686  0.36288377727556975  1.0000
  C   C4        1.0  0.564938751338272  0.6164170288709945  0.28982311803702854  1.0000
  C   C5        1.0  0.4741244892224489  0.5866246724122928  0.360037973010767  1.0000
  N   N2        1.0  0.40100290464321  0.5626393379770378  0.41656696158706885  1.0000
  N   N3        1.0  0.5666171671179937  0.6737099618248996  0.15132943108053398  1.0000
  C   C6        1.0  0.6514293578864968  0.7036599498388454  0.08231084696213409  1.0000
  C   C7        1.0  0.6515034612356582  0.7626836419156491  0.928834737018358  1.0000
  N   N4        1.0  0.7362200660550112  0.6737099152745312  0.15132944164419593  1.0000
  H   H1        1.0  0.6513245124527499  0.5405870408219833  0.47340375985768945  1.0000
  H   H2        1.0  0.7161254805892977  0.8303256747947616  0.90671262788381  1.0000
  H   H3        1.0  0.6523221273378081  0.6720644479521829  0.8562732972385789  1.0000
  H   H4        1.0  0.5861206762808071  0.8303236041273339  0.9067118538545178  1.0000
  C   C8        1.0  0.1541483612678496  0.13923398450102287  0.4148992700437435  1.0000
  C   C9        1.0  0.12809481840139325  0.2211894062080331  0.28783109541288754  1.0000
  C   C10       1.0  0.09418391020075378  0.15399213823625968  0.1674939113350642  1.0000
  C   C11       1.0  0.08576644631215191  0.003922785571814472  0.17280767061043312  1.0000
  C   C12       1.0  0.11272187347113372  0.9207317962842552  0.2969794274086326  1.0000
  C   C13       1.0  0.1485621293008272  0.986033743005829  0.41824714094950655  1.0000
  C   C14       1.0  0.06685330997862637  0.23951462400569623  0.03889423383642531  1.0000
  N   N5        1.0  0.044887096856088375  0.3082591137402202  0.9355330336386887  1.0000
  H   H5        1.0  0.1717382057486201  0.2193117059084173  0.7686551169947204  1.0000
  H   H6        1.0  0.1320426549591489  0.33810762698572505  0.283554952672453  1.0000
  H   H7        1.0  0.05919041884691145  0.9509055662479637  0.08032098686548683  1.0000
  H   H8        1.0  0.1076631198030702  0.8042629792655364  0.2968525961977573  1.0000
  H   H9        1.0  0.16449790838745848  0.6895460589804676  0.6552736209208249  1.0000
  C   C15       1.0  0.1526605373720482  0.5585583149501476  0.99335930080239  1.0000
  C   C16       1.0  0.23539189232394464  0.6055619108891181  0.0632411625695588  1.0000
  C   C17       1.0  0.3131062276202229  0.6639031494583811  0.983593650374084  1.0000
  C   C18       1.0  0.3089935518511262  0.6761682972245733  0.8329831935593024  1.0000
  C   C19       1.0  0.2282507001449967  0.6279971489260778  0.7617551740260389  1.0000
  C   C20       1.0  0.15004997506620632  0.566709351275855  0.8397870965081262  1.0000
  C   C21       1.0  0.3967686273129166  0.7129146886542774  0.056791042702031724  1.0000
  N   N6        1.0  0.46401177907917335  0.7523067506065602  0.11562937841541789  1.0000
  H   H10       1.0  0.9185634524956166  0.5099440756437148  0.10100471125855148  1.0000
  H   H11       1.0  0.3686866457055573  0.721775665594534  0.77034070650476  1.0000
  H   H12       1.0  0.22798755583110375  0.6355775174214058  0.6447207032926507  1.0000
  H   H13       1.0  0.993483307731265  0.5279242836138716  0.5622272562897752  1.0000
  Zn  Zn1       1.0  0.045786849518128614  0.5626355720159393  0.41657527939745065  1.0000
  Zn  Zn2       1.0  0.25691441782507507  0.5626314315701666  0.4165704224026219  1.0000
  C   C22       1.0  0.15057914679595252  0.5594247122202738  0.6797713854047964  1.0000
  C   C23       1.0  0.15212441361616946  0.5658441119196809  0.1533744649870612  1.0000
  C   C24       1.0  0.14963079571336332  0.8259152387589217  0.41187127908756654  1.0000
  C   C25       1.0  0.1530727038463895  0.2993518538350093  0.4212746412930468  1.0000
  O   O1        1.0  0.2320663389540878  0.5682814304123109  0.20707514777125605  1.0000
  O   O2        1.0  0.23087816909867098  0.5569831595172774  0.6260665971080628  1.0000
  O   O3        1.0  0.2301112789037072  0.7721776443820876  0.4097353717711394  1.0000
  O   O4        1.0  0.23283315737075205  0.35308695482254837  0.423406265091699  1.0000
  O   O5        1.0  0.06986803792498764  0.7721800487664674  0.4097394367024565  1.0000
  O   O6        1.0  0.07063491692485568  0.5569872954505897  0.6260705920447078  1.0000
  O   O7        1.0  0.07182309251994301  0.568285499415242  0.2070774097868957  1.0000
  O   O8        1.0  0.07258991066744236  0.353091014553341  0.4234086351179027  1.0000
