data_image0
_chemical_formula_structural       NC12NC2H8C6SCNH5C6SCNH4Zn2C4O8
_chemical_formula_sum              "N4 C32 H17 S2 Zn2 O8"
_cell_length_a       17.80743265337812
_cell_length_b       9.27526961838325
_cell_length_c       9.275272990362726
_cell_angle_alpha    85.29896410313033
_cell_angle_beta     91.20895717805207
_cell_angle_gamma    88.87871087483882

_space_group_name_H-M_alt    "P 1"
_space_group_IT_number       1

loop_
  _space_group_symop_operation_xyz
  'x, y, z'

loop_
  _atom_site_type_symbol
  _atom_site_label
  _atom_site_symmetry_multiplicity
  _atom_site_fract_x
  _atom_site_fract_y
  _atom_site_fract_z
  _atom_site_occupancy
  N   N1        1.0  0.7040228712715089  0.5756115378400062  0.4526885641827558  1.0000
  C   C1        1.0  0.6532560701483763  0.6091107147239816  0.3765015389317006  1.0000
  C   C2        1.0  0.5900971393284448  0.6507812227514269  0.28173447763400783  1.0000
  C   C3        1.0  0.6019240838689417  0.7120138260335633  0.14131076397225995  1.0000
  C   C4        1.0  0.5406732881677594  0.7519912243203495  0.04919861125247338  1.0000
  C   C5        1.0  0.4674418679604435  0.7310350781402903  0.0967782425084114  1.0000
  C   C6        1.0  0.4546373291768395  0.6696659262214628  0.23772151869459004  1.0000
  C   C7        1.0  0.5167454751377712  0.6296923045431593  0.3298153416714573  1.0000
  C   C8        1.0  0.37683484692610986  0.6474444405894564  0.28847377297652876  1.0000
  C   C9        1.0  0.3574957199397741  0.6763644048272641  0.42975419249433955  1.0000
  C   C10       1.0  0.2842339940279979  0.6554540105412026  0.4773790879141462  1.0000
  C   C11       1.0  0.2293671905385847  0.6053330304068736  0.3846533759958941  1.0000
  C   C12       1.0  0.1539675057260483  0.5837949635813506  0.4338321388802935  1.0000
  N   N2        1.0  0.0933514987272266  0.5664798070689678  0.473368480930374  1.0000
  C   C13       1.0  0.24801404737557403  0.5762201426606883  0.2439754173162694  1.0000
  C   C14       1.0  0.3212236451446786  0.5971494946648777  0.19606629092142747  1.0000
  H   H1        1.0  0.65841614142656  0.7288134807802108  0.10312011247168895  1.0000
  H   H2        1.0  0.549946231077431  0.7996993215537047  0.9407615883937663  1.0000
  H   H3        1.0  0.4208449633351312  0.7645884228878514  0.02404463700146864  1.0000
  H   H4        1.0  0.5081790244980978  0.580447464192348  0.4381075337906531  1.0000
  H   H5        1.0  0.398757693868825  0.7169895093629506  0.5027848678761686  1.0000
  H   H6        1.0  0.2703590248959558  0.6787332001615363  0.5863745709408799  1.0000
  H   H7        1.0  0.2060268302503989  0.5369978804453361  0.17140955856129825  1.0000
  H   H8        1.0  0.3345778131491561  0.57216251501946  0.08740054751457671  1.0000
  C   C15       1.0  0.9008126515719873  0.14764718414507993  0.4612375649400202  1.0000
  C   C16       1.0  0.8743692854959887  0.23238224011913952  0.3371778235434222  1.0000
  C   C17       1.0  0.842178706433669  0.16821552130398795  0.22054677017990462  1.0000
  C   C18       1.0  0.835943069956605  0.01821372836236091  0.2255735693366769  1.0000
  C   C19       1.0  0.862773268747931  0.9319615672370183  0.3470741013864603  1.0000
  C   C20       1.0  0.8965689378375995  0.9944328326667748  0.46483219943924475  1.0000
  S   S1        1.0  0.7936708506554102  0.9362940701210968  0.07626990810025691  1.0000
  C   C21       1.0  0.8803405946045993  0.9188383409041574  0.9898045493377526  1.0000
  N   N3        1.0  0.9371736994453235  0.9074064565022397  0.9331489423175103  1.0000
  H   H9        1.0  0.9813803328877663  0.4106166550136934  0.646012076030219  1.0000
  H   H10       1.0  0.8769400127552409  0.34928991158883127  0.33171383752315386  1.0000
  H   H11       1.0  0.8215272861856019  0.23551693958185213  0.12661920933455306  1.0000
  H   H12       1.0  0.8589187627075793  0.8154526121089832  0.34782853365917243  1.0000
  H   H13       1.0  0.020090950810578875  0.8647180311339405  0.7341799321007767  1.0000
  C   C22       1.0  0.8999008288302667  0.5748421541988347  0.039311883702838335  1.0000
  C   C23       1.0  0.8422854828477693  0.6506272796707151  0.10434102057580352  1.0000
  C   C24       1.0  0.7821363528039497  0.7139608597394209  0.021779181883321952  1.0000
  C   C25       1.0  0.7785062261276965  0.7030017751589603  0.8727063262194045  1.0000
  C   C26       1.0  0.8356940015481235  0.629786417844139  0.8057369497597269  1.0000
  C   C27       1.0  0.8974807640648268  0.5672378272470937  0.8867579081276249  1.0000
  S   S2        1.0  0.7006386361560067  0.7829288684425724  0.7672573101970537  1.0000
  C   C28       1.0  0.7462736271196305  0.9492076791040884  0.734192305315096  1.0000
  N   N4        1.0  0.7762111810266442  0.0582073139846009  0.7125318307925688  1.0000
  H   H14       1.0  0.842797049335328  0.657997626330872  0.2203140655366147  1.0000
  H   H15       1.0  0.7380000438245485  0.7706580840010251  0.07417213781418197  1.0000
  H   H16       1.0  0.832766765618098  0.6249909514419243  0.6894194446797277  1.0000
  H   H17       1.0  0.07653475555144817  0.4740683158764618  0.7986474890411133  1.0000
  Zn  Zn1       1.0  0.8163747020690333  0.5729723935549498  0.45866464352116765  1.0000
  Zn  Zn2       1.0  0.9809996907659669  0.5691070848136437  0.467404121160917  1.0000
  C   C29       1.0  0.8979653066763821  0.5629314068043085  0.7265480081648881  1.0000
  C   C30       1.0  0.8994108743368647  0.5791498472909997  0.19952100129735406  1.0000
  C   C31       1.0  0.8973836361885817  0.8344239899822267  0.458402654654363  1.0000
  C   C32       1.0  0.8999924971113059  0.3076555324832424  0.4676664214002498  1.0000
  O   O1        1.0  0.9617207979167157  0.5791223937763428  0.25660520420630606  1.0000
  O   O2        1.0  0.960601946991782  0.5600240964540575  0.6760964465847283  1.0000
  O   O3        1.0  0.9601313942482698  0.779257797173627  0.4595671381064317  1.0000
  O   O4        1.0  0.9621912947421396  0.35988870566061104  0.47313440155728137  1.0000
  O   O5        1.0  0.8351830419144453  0.7821907740286607  0.4529343601348655  1.0000
  O   O6        1.0  0.8356535861929011  0.5629588062596087  0.6694635990308535  1.0000
  O   O7        1.0  0.8367724423737382  0.5820570689040274  0.2499706216349118  1.0000
  O   O8        1.0  0.8372429389388348  0.36282336950513616  0.466499927123271  1.0000
