data_image0
_chemical_formula_structural       NC9NC5H8C13OH12C15H11Zn2C4O8
_chemical_formula_sum              "N2 C46 H31 O9 Zn2"
_cell_length_a       17.807436237873137
_cell_length_b       10.299150109392551
_cell_length_c       10.299157797200024
_cell_angle_alpha    85.5240492146119
_cell_angle_beta     89.41431720980769
_cell_angle_gamma    88.37145022261349

_space_group_name_H-M_alt    "P 1"
_space_group_IT_number       1

loop_
  _space_group_symop_operation_xyz
  'x, y, z'

loop_
  _atom_site_type_symbol
  _atom_site_label
  _atom_site_symmetry_multiplicity
  _atom_site_fract_x
  _atom_site_fract_y
  _atom_site_fract_z
  _atom_site_occupancy
  N   N1        1.0  0.7068244727349084  0.3883041574879564  0.5565452426221322  1.0000
  C   C1        1.0  0.6462409745840113  0.3531146012614452  0.5455333466379693  1.0000
  C   C2        1.0  0.5708817615690391  0.30934266859736037  0.5318357436730186  1.0000
  C   C3        1.0  0.5527797036009329  0.23795239922897915  0.42685244417032364  1.0000
  C   C4        1.0  0.47960979800498266  0.1953417441143166  0.4134703611976445  1.0000
  C   C5        1.0  0.4234932946803359  0.22374380515090886  0.5050392600909437  1.0000
  C   C6        1.0  0.3457325442510037  0.17857455540043093  0.4908996093016289  1.0000
  C   C7        1.0  0.2835468994223042  0.26033023042600845  0.5168106110893131  1.0000
  C   C8        1.0  0.21023472983612917  0.21751651533812064  0.5034422831377028  1.0000
  C   C9        1.0  0.1469985777546557  0.3019636711476128  0.529716240259158  1.0000
  N   N2        1.0  0.0961697006948732  0.3698533417036467  0.5508397773580482  1.0000
  C   C10       1.0  0.198524702419914  0.09268913010919143  0.46413769503526914  1.0000
  C   C11       1.0  0.2598529780907473  0.010919604051926378  0.4382183080439472  1.0000
  C   C12       1.0  0.3330457429017791  0.053338803363948584  0.45138422775269027  1.0000
  C   C13       1.0  0.4422867151524222  0.29562841946800567  0.6102416241301336  1.0000
  C   C14       1.0  0.5155094920288945  0.3380487095135647  0.6234681157384567  1.0000
  H   H1        1.0  0.5951624677804183  0.21548641398670676  0.355143568892063  1.0000
  H   H2        1.0  0.4666883370122069  0.14167928716067535  0.33056435921685945  1.0000
  H   H3        1.0  0.2920328195817489  0.3577951173507567  0.5456542429920535  1.0000
  H   H4        1.0  0.1420635929237065  0.05865323203502948  0.4535544483059007  1.0000
  H   H5        1.0  0.25066828728262236  0.9142752435351186  0.40817389894059497  1.0000
  H   H6        1.0  0.3796944622816891  0.9875936428309258  0.4323583875166323  1.0000
  H   H7        1.0  0.4006212264492965  0.31755492527903484  0.6832452680174832  1.0000
  H   H8        1.0  0.5289588382787417  0.3929321671826793  0.7053319901244717  1.0000
  C   C15       1.0  0.9015715150471715  0.9976755505268174  0.5538355753738471  1.0000
  C   C16       1.0  0.9002189292813676  0.9858957230980905  0.6906739204538557  1.0000
  C   C17       1.0  0.8994677108494797  0.8627916777997651  0.7597911152711785  1.0000
  C   C18       1.0  0.900074000536826  0.750647351983336  0.6903126285321488  1.0000
  C   C19       1.0  0.9014298386176435  0.7604715940004216  0.5535606396871324  1.0000
  C   C20       1.0  0.9021727387005245  0.8844461538031025  0.48612125086248553  1.0000
  C   C21       1.0  0.8980302575948325  0.851312043996703  0.9044605378080973  1.0000
  C   C22       1.0  0.851850187257857  0.7606004819544209  0.9731625423710563  1.0000
  C   C23       1.0  0.8504726554316322  0.7498807468272415  0.10929668912641512  1.0000
  C   C24       1.0  0.8957430403099652  0.8286910499585546  0.17918261351639042  1.0000
  C   C25       1.0  0.9412045038773964  0.9203901141662187  0.11113374755714178  1.0000
  C   C26       1.0  0.9425994746048687  0.9312848199920258  0.9749990565241932  1.0000
  C   C27       1.0  0.892683100182445  0.819601164571836  0.3253220484653898  1.0000
  O   O1        1.0  0.8365413667570699  0.9054253989913104  0.36638769317126074  1.0000
  H   H9        1.0  0.9036365016036215  0.22722649264915382  0.2955539389344932  1.0000
  H   H10       1.0  0.8987050315575483  0.07272411518628608  0.7437077027825352  1.0000
  H   H11       1.0  0.9005147008822803  0.6554871934622016  0.7431426957517431  1.0000
  H   H12       1.0  0.9032164113631859  0.8927401949444038  0.38064038107415255  1.0000
  H   H13       1.0  0.9019007759698413  0.4367772703006987  0.5009617696026045  1.0000
  H   H14       1.0  0.8159101408841604  0.6993116316220569  0.9215775412743165  1.0000
  H   H15       1.0  0.8139387552297722  0.6802663768881313  0.1602104850754058  1.0000
  H   H16       1.0  0.9757608943389099  0.9832972671865238  0.16348527287525494  1.0000
  H   H17       1.0  0.9791587304159765  0.0013431641481080894  0.924891578241809  1.0000
  H   H18       1.0  0.947953207977745  0.8447983278115717  0.3646844208150716  1.0000
  H   H19       1.0  0.880482875888004  0.7181459681444067  0.36331556580320834  1.0000
  H   H20       1.0  0.8368416909474847  0.8957031072728214  0.4630154787480099  1.0000
  C   C28       1.0  0.9014135528182324  0.37918398385291  0.17230730722779275  1.0000
  C   C29       1.0  0.8231665607889549  0.36491124193172686  0.17363562137178268  1.0000
  C   C30       1.0  0.7836539058936729  0.35755792376463424  0.05716447601077612  1.0000
  C   C31       1.0  0.8233898160673007  0.364691913495835  0.9383651309982461  1.0000
  C   C32       1.0  0.9015877733383448  0.37896318411577723  0.9350888535554146  1.0000
  C   C33       1.0  0.9401430168853181  0.38612012178953425  0.05259696066688435  1.0000
  C   C34       1.0  0.7009293113451451  0.3424737957749717  0.059615098039008885  1.0000
  C   C35       1.0  0.6671414135076894  0.2570889861151511  0.9790347717806417  1.0000
  C   C36       1.0  0.589294086886726  0.24298724683571746  0.9813731353551058  1.0000
  C   C37       1.0  0.5438482427455491  0.3133268585720441  0.06484441331818425  1.0000
  C   C38       1.0  0.5772339272146708  0.3995763436767552  0.14445361113845734  1.0000
  C   C39       1.0  0.6550804955799499  0.41368231758207624  0.14226320787778812  1.0000
  C   C40       1.0  0.4599842227836711  0.300484607919947  0.0650164968700584  1.0000
  C   C41       1.0  0.4261797378874939  0.3958615248166926  0.9680669012798909  1.0000
  C   C42       1.0  0.39839748258614  0.47428918111578877  0.8883473140066256  1.0000
  H   H21       1.0  0.7929502857818023  0.35771761937597923  0.26561927364904814  1.0000
  H   H22       1.0  0.7930648006247325  0.3608905421907582  0.8481791084090475  1.0000
  H   H23       1.0  0.00045946868229762144  0.3971242031582538  0.05078560389307052  1.0000
  H   H24       1.0  0.9316684212597682  0.384410806422749  0.6063562928014803  1.0000
  H   H25       1.0  0.7010099577020952  0.20011394596859677  0.9151864820771367  1.0000
  H   H26       1.0  0.5644336320482728  0.17700428698200477  0.9182026979352602  1.0000
  H   H27       1.0  0.5429267140078625  0.4562629686815085  0.2079634420733245  1.0000
  H   H28       1.0  0.6793278018842186  0.4818017306612619  0.20380062404777388  1.0000
  H   H29       1.0  0.44500910802277754  0.2009460421141087  0.041827094827518126  1.0000
  H   H30       1.0  0.4360669823372214  0.31706420042061545  0.162582685247616  1.0000
  H   H31       1.0  0.3740280945719264  0.5431449296481912  0.8183604849236574  1.0000
  Zn  Zn1       1.0  0.8191810963709037  0.3829761828420115  0.5549062810641106  1.0000
  Zn  Zn2       1.0  0.9838130632671511  0.37517072613800756  0.5524894199566448  1.0000
  C   C43       1.0  0.9015541475399307  0.3738308778658683  0.7909087232740806  1.0000
  C   C44       1.0  0.9014418095988288  0.3843175846081086  0.31648707823767785  1.0000
  C   C45       1.0  0.9014515686447064  0.6162886247410115  0.5484371782178143  1.0000
  C   C46       1.0  0.9015443326223144  0.1418582799341945  0.5589586939237297  1.0000
  O   O2        1.0  0.96392826733536  0.3830726715285286  0.3639579423348245  1.0000
  O   O3        1.0  0.9640195434498208  0.369150650211131  0.7416031440044324  1.0000
  O   O4        1.0  0.9639358677836481  0.5649383866495832  0.5458056677225815  1.0000
  O   O5        1.0  0.9640118867998233  0.18728494707278887  0.559755322057784  1.0000
  O   O6        1.0  0.8389822166574192  0.5708619645722648  0.5476403797808957  1.0000
  O   O7        1.0  0.8390658920145182  0.37507578859761936  0.7434377862508847  1.0000
  O   O8        1.0  0.838974615601728  0.3889977651045824  0.3657910231066146  1.0000
  O   O9        1.0  0.8390582350870885  0.19321003133116557  0.5615885002063894  1.0000
