data_image0
_chemical_formula_structural       NC5NC4H6C6NCH9C7NH4Zn2C4O8
_chemical_formula_sum              "N4 C27 H19 Zn2 O8"
_cell_length_a       13.854160002989762
_cell_length_b       9.273386996610926
_cell_length_c       9.275157849593905
_cell_angle_alpha    86.01375275156522
_cell_angle_beta     89.74088443434586
_cell_angle_gamma    89.39858485477477

_space_group_name_H-M_alt    "P 1"
_space_group_IT_number       1

loop_
  _space_group_symop_operation_xyz
  'x, y, z'

loop_
  _atom_site_type_symbol
  _atom_site_label
  _atom_site_symmetry_multiplicity
  _atom_site_fract_x
  _atom_site_fract_y
  _atom_site_fract_z
  _atom_site_occupancy
  N   N1        1.0  0.9027442724460675  0.5635317486781857  0.4077985585557134  1.0000
  C   C1        1.0  0.8304172367077014  0.5881828510620427  0.3487294232948843  1.0000
  C   C2        1.0  0.7404413882111184  0.6188494846920738  0.2752451577548315  1.0000
  C   C3        1.0  0.652855299470866  0.5900478018202673  0.34699413477189855  1.0000
  C   C4        1.0  0.5652989758109356  0.6188494988028037  0.2752451345660345  1.0000
  C   C5        1.0  0.4753090960944453  0.588182704579177  0.3487295151297203  1.0000
  N   N2        1.0  0.40297070229445675  0.5635316851606422  0.40779855857332326  1.0000
  C   C6        1.0  0.5653570577311625  0.6770596401001394  0.1317651506119839  1.0000
  C   C7        1.0  0.6528956332342987  0.7080111209425297  0.0599092370274188  1.0000
  C   C8        1.0  0.652954925473651  0.7663518310691237  0.9049434863253776  1.0000
  C   C9        1.0  0.7404341470554955  0.6770596379049878  0.13176506036443802  1.0000
  H   H1        1.0  0.6528364310043616  0.5448829560705994  0.4580451903972394  1.0000
  H   H2        1.0  0.49750328209695066  0.698316966559738  0.0760973769389337  1.0000
  H   H3        1.0  0.717404098913266  0.834304611751957  0.8810524628519102  1.0000
  H   H4        1.0  0.5876956210400123  0.8343046142561896  0.8810525279131136  1.0000
  H   H5        1.0  0.6538121475047733  0.6751101855792808  0.8335605259357949  1.0000
  H   H6        1.0  0.8083262406533057  0.6983170782556558  0.0760972913548983  1.0000
  C   C10       1.0  0.1558280924953641  0.13988454749046975  0.4085067365792163  1.0000
  C   C11       1.0  0.17317930590854108  0.22210456473142237  0.27820517216522345  1.0000
  C   C12       1.0  0.18144237744562008  0.15634601710278195  0.1478955523991481  1.0000
  C   C13       1.0  0.17248344226153223  0.006013171999173389  0.14455578277735517  1.0000
  C   C14       1.0  0.15683461674323365  0.9228258785238003  0.27440470887204543  1.0000
  C   C15       1.0  0.1498961443498938  0.9871678777913233  0.4071029255392069  1.0000
  N   N3        1.0  0.17993887530108857  0.9351922755489805  0.011555791944656729  1.0000
  C   C16       1.0  0.19645350740448886  0.011733663534039042  0.8709255128867343  1.0000
  H   H7        1.0  0.17481591595790325  0.4043090964849434  0.6451031954187929  1.0000
  H   H8        1.0  0.17810791348940014  0.33873342066700957  0.27643713840021245  1.0000
  H   H9        1.0  0.19391770153024326  0.22400488012415365  0.05000655679563982  1.0000
  H   H10       1.0  0.15228571613272712  0.8064029030849716  0.27213129164154926  1.0000
  H   H11       1.0  0.18434922680808855  0.8591881400699151  0.758102842645656  1.0000
  H   H12       1.0  0.17310560527876828  0.8228539496887513  0.014544154770673728  1.0000
  H   H13       1.0  0.13669382401570046  0.09006596067702577  0.8458866397991707  1.0000
  H   H14       1.0  0.26631608520558236  0.06928764243481944  0.8711580644109529  1.0000
  H   H15       1.0  0.19915070574996172  0.9334749780177801  0.7856105225874663  1.0000
  C   C17       1.0  0.15417144716471887  0.5594483569275117  0.9846138032245335  1.0000
  C   C18       1.0  0.23703693481436436  0.6064787925522375  0.05423191808867478  1.0000
  C   C19       1.0  0.3148716494813608  0.6648533460758463  0.9742570394927174  1.0000
  C   C20       1.0  0.3107465227530964  0.6771254987670936  0.8235777587094587  1.0000
  C   C21       1.0  0.22987367217530558  0.6289268438806637  0.7526200377224304  1.0000
  C   C22       1.0  0.15155283668641337  0.5676040485023899  0.8309958606661116  1.0000
  C   C23       1.0  0.39866910562781666  0.713892871657932  0.047179417761718634  1.0000
  N   N4        1.0  0.4660208084732267  0.7533074271183495  0.1057967163270817  1.0000
  H   H16       1.0  0.9196613978557528  0.5108063660997973  0.09253198849080982  1.0000
  H   H17       1.0  0.3705317662733497  0.7227589106476645  0.7606793579232476  1.0000
  H   H18       1.0  0.22960703978906125  0.6365115415886986  0.6355430310801036  1.0000
  H   H19       1.0  0.9947124580423033  0.5287968387197003  0.5536536456939838  1.0000
  Zn  Zn1       1.0  0.047098821433650934  0.5635279481999833  0.40780689600290004  1.0000
  Zn  Zn2       1.0  0.25861620051546325  0.5635237942120732  0.40780207609498054  1.0000
  C   C24       1.0  0.15208587053598022  0.5603152491130636  0.671021026055941  1.0000
  C   C25       1.0  0.1536314479947578  0.5667383148924503  0.14458808441816084  1.0000
  C   C26       1.0  0.15103022426317314  0.8269579702109422  0.40162555541083367  1.0000
  C   C27       1.0  0.15468703398862613  0.30009386125965465  0.41398363476828276  1.0000
  O   O1        1.0  0.23372000643373703  0.569177021121574  0.19827509586799863  1.0000
  O   O2        1.0  0.23253411754413789  0.5578722977719233  0.6173299433675954  1.0000
  O   O3        1.0  0.2316805831177086  0.7731896816763862  0.39979119234328064  1.0000
  O   O4        1.0  0.23457346894566788  0.35385964649746016  0.41581373882378303  1.0000
  O   O5        1.0  0.07114148082295824  0.7731920959175123  0.3997952332681601  1.0000
  O   O6        1.0  0.07199500334783843  0.5578764445508817  0.6173339045815225  1.0000
  O   O7        1.0  0.07318089801421368  0.5691811009319268  0.1982773245364886  1.0000
  O   O8        1.0  0.07403436026015495  0.35386371703037856  0.4158160755548657  1.0000
