data_image0
_chemical_formula_structural       NC11NC3H8C10BrC2H9C10OC3H12Zn2C4O8
_chemical_formula_sum              "N2 C43 H29 Br1 O9 Zn2"
_cell_length_a       17.807433833752565
_cell_length_b       10.299768994317796
_cell_length_c       10.299151058433395
_cell_angle_alpha    85.57570516846833
_cell_angle_beta     88.50014189410291
_cell_angle_gamma    90.7030091906788

_space_group_name_H-M_alt    "P 1"
_space_group_IT_number       1

loop_
  _space_group_symop_operation_xyz
  'x, y, z'

loop_
  _atom_site_type_symbol
  _atom_site_label
  _atom_site_symmetry_multiplicity
  _atom_site_fract_x
  _atom_site_fract_y
  _atom_site_fract_z
  _atom_site_occupancy
  N   N1        1.0  0.7080352848269504  0.43812976938923764  0.5346600677706334  1.0000
  C   C1        1.0  0.6571932270137498  0.4034185585862245  0.6012230923511629  1.0000
  C   C2        1.0  0.5939405840598208  0.36024067285147643  0.6840190005082374  1.0000
  C   C3        1.0  0.6056261575169096  0.2967190594579602  0.8067386785617192  1.0000
  C   C4        1.0  0.544281773303702  0.2552204126049906  0.88725064931003  1.0000
  C   C5        1.0  0.47109725451455986  0.27693025978537067  0.8456837447931698  1.0000
  C   C6        1.0  0.45843502798544933  0.34060631801187646  0.7225038624241207  1.0000
  C   C7        1.0  0.3806832111474225  0.363645637301528  0.6781562755004118  1.0000
  C   C8        1.0  0.3619279114426432  0.34674384814726517  0.5485720477121838  1.0000
  C   C9        1.0  0.2887134536198135  0.36841495754849246  0.5069610693571882  1.0000
  C   C10       1.0  0.23331147974880748  0.40730619312514227  0.594114033116226  1.0000
  C   C11       1.0  0.1579607528936022  0.4296354504162594  0.5511417452207186  1.0000
  N   N2        1.0  0.0973841408777119  0.44758651438267316  0.516595153266304  1.0000
  C   C12       1.0  0.251375383858315  0.4244184358547498  0.7231671194869016  1.0000
  C   C13       1.0  0.32453701154614384  0.4027124552789787  0.7650335327071038  1.0000
  C   C14       1.0  0.5206367192558594  0.3821004037324602  0.6420083077901413  1.0000
  H   H1        1.0  0.6620806225464072  0.27931237328205205  0.8401045534449623  1.0000
  H   H2        1.0  0.5534477114891521  0.2057902580229216  0.9819877403990301  1.0000
  H   H3        1.0  0.42443618902680363  0.24238905915203368  0.9091234098589069  1.0000
  H   H4        1.0  0.4036170422252926  0.31508655205452074  0.4798527974743372  1.0000
  H   H5        1.0  0.2752936434344302  0.35451143032702204  0.4069235380956804  1.0000
  H   H6        1.0  0.2089693671317345  0.45485259854642623  0.7913715508112427  1.0000
  H   H7        1.0  0.33742872076694075  0.41816133553054785  0.864888351782495  1.0000
  H   H8        1.0  0.5121694548775076  0.43289295197736233  0.54750558013795  1.0000
  C   C15       1.0  0.902642529391228  0.061491274962849105  0.5256267135290981  1.0000
  C   C16       1.0  0.9088121873530608  0.07116431950261992  0.3890139332906868  1.0000
  C   C17       1.0  0.9120105440880807  0.9589279707828803  0.31979749522679946  1.0000
  C   C18       1.0  0.9089554394985006  0.8358797810470585  0.3890268838714772  1.0000
  C   C19       1.0  0.902784070894413  0.8242151945424318  0.525639379568227  1.0000
  C   C20       1.0  0.8996626757686911  0.937578595590107  0.5931743541148484  1.0000
  C   C21       1.0  0.9185380176850163  0.9702142396805783  0.17527310560497722  1.0000
  C   C22       1.0  0.9668902811212539  0.8884931485206194  0.10967879209643372  1.0000
  C   C23       1.0  0.9729620674339049  0.8993189101568138  0.9736428011632245  1.0000
  C   C24       1.0  0.9308999767828818  0.9915887364914305  0.9015433470912408  1.0000
  Br  Br1       1.0  0.9392913506903939  0.006097715095822123  0.7157273216868717  1.0000
  C   C25       1.0  0.8826878920727678  0.0732249836381491  0.9656236797441086  1.0000
  C   C26       1.0  0.8764732605555597  0.06280679448237116  0.10164702268763959  1.0000
  H   H9        1.0  0.9002563364786542  0.38525844676048376  0.57768042508179  1.0000
  H   H10       1.0  0.9121805430650699  0.16624000775008052  0.33620589614909524  1.0000
  H   H11       1.0  0.9103652757869745  0.7490656992101479  0.3360448144939963  1.0000
  H   H12       1.0  0.8949023526313443  0.9293480070078882  0.6985646732665107  1.0000
  H   H13       1.0  0.9004624464232356  0.492317222683311  0.5776984758608231  1.0000
  H   H14       1.0  0.0007053090519506526  0.8174316646228751  0.16361427450905763  1.0000
  H   H15       1.0  0.010521232074438773  0.8361514770727172  0.9243963533572731  1.0000
  H   H16       1.0  0.8498589754329302  0.1445711584219966  0.9101245107673194  1.0000
  H   H17       1.0  0.8380761868817954  0.12594586052924717  0.14916785586131942  1.0000
  C   C27       1.0  0.9028062677979233  0.44276498453726437  0.1442516724193359  1.0000
  C   C28       1.0  0.8260521790395714  0.4092742086344312  0.14952830279044682  1.0000
  C   C29       1.0  0.7870395799880399  0.3923866137622125  0.03505801641188656  1.0000
  C   C30       1.0  0.8258174677820832  0.4094371167888744  0.9142428253486878  1.0000
  C   C31       1.0  0.9026203560670214  0.4429414549131111  0.9070143771654494  1.0000
  C   C32       1.0  0.9406417421214001  0.45940195317483706  0.02250798371161067  1.0000
  C   C33       1.0  0.7058396637161024  0.35695994374235585  0.041684590074803525  1.0000
  C   C34       1.0  0.6773080092179752  0.26373225153586444  0.13789173333197646  1.0000
  C   C35       1.0  0.600901446307851  0.2304764653293138  0.1439561970333434  1.0000
  C   C36       1.0  0.551552964531799  0.28936324601837127  0.05459081433388713  1.0000
  O   O1        1.0  0.4753872427407085  0.25260038773845084  0.06487620427009588  1.0000
  C   C37       1.0  0.4191025308562553  0.304402991594251  0.9807372231528096  1.0000
  C   C38       1.0  0.579783598838527  0.38278174374129614  0.9581230280024157  1.0000
  C   C39       1.0  0.6562057909038209  0.4160945451424942  0.9518524787473887  1.0000
  H   H18       1.0  0.9323388464115926  0.45557643708233014  0.46970275239038684  1.0000
  H   H19       1.0  0.7961874743578248  0.3979857345020743  0.24276856625342047  1.0000
  H   H20       1.0  0.7962648276406633  0.39480570146610594  0.8258175552702576  1.0000
  H   H21       1.0  0.9998446216871563  0.4852304817113795  0.017722619470055708  1.0000
  H   H22       1.0  0.04769155881173414  0.5053746259660498  0.686135761072526  1.0000
  H   H23       1.0  0.7142475960613223  0.21525878350406694  0.20743596647179063  1.0000
  H   H24       1.0  0.5799155177685298  0.15819483386486047  0.2184286829135904  1.0000
  H   H25       1.0  0.3641622359377714  0.25818304391416147  0.010942361109848255  1.0000
  H   H26       1.0  0.4324888263291394  0.2830500881196789  0.8787075779732643  1.0000
  H   H27       1.0  0.4149158709828501  0.4111592112060006  0.9875712812544699  1.0000
  H   H28       1.0  0.5431571873023999  0.4304489747233453  0.8877488282900057  1.0000
  H   H29       1.0  0.676332156659706  0.4894465949140777  0.8776903772113812  1.0000
  Zn  Zn1       1.0  0.8203929516144566  0.44085530882840823  0.5294544083738653  1.0000
  Zn  Zn2       1.0  0.9850264547783268  0.44485035785593796  0.5218113988461237  1.0000
  C   C40       1.0  0.9026528405476443  0.4377344271492952  0.7628359020466702  1.0000
  C   C41       1.0  0.9027683639108839  0.44797292180149634  0.2884299492096667  1.0000
  C   C42       1.0  0.9027547106306696  0.68004284386568  0.5204618059486001  1.0000
  C   C43       1.0  0.9026664373435246  0.2056629434433637  0.5308041171307873  1.0000
  O   O2        1.0  0.96523319842471  0.451231187695822  0.3339170136075078  1.0000
  O   O3        1.0  0.9651410254845638  0.4375073312237616  0.7115475963899988  1.0000
  O   O4        1.0  0.965222444308396  0.6331744220051367  0.5158288380767047  1.0000
  O   O5        1.0  0.9651517234480768  0.25556410481884884  0.5296356771511503  1.0000
  O   O6        1.0  0.840267626763374  0.630141560503595  0.5216301326701911  1.0000
  O   O7        1.0  0.8401862082425439  0.4344760300020658  0.7173488217617876  1.0000
  O   O8        1.0  0.8402783816048874  0.4481998408582995  0.3397166775245757  1.0000
  O   O9        1.0  0.8401969065997227  0.2525327487150222  0.535435438439223  1.0000
