data_image0
_chemical_formula_structural       NC5N2C2NH4C10H6C6F3H5Zn2C4O8
_chemical_formula_sum              "N4 C27 H15 F3 Zn2 O8"
_cell_length_a       13.87973921873968
_cell_length_b       9.275150299802176
_cell_length_c       9.272721663655245
_cell_angle_alpha    85.5566990303468
_cell_angle_beta     90.51618180782579
_cell_angle_gamma    89.48389152441209

_space_group_name_H-M_alt    "P 1"
_space_group_IT_number       1

loop_
  _space_group_symop_operation_xyz
  'x, y, z'

loop_
  _atom_site_type_symbol
  _atom_site_label
  _atom_site_symmetry_multiplicity
  _atom_site_fract_x
  _atom_site_fract_y
  _atom_site_fract_z
  _atom_site_occupancy
  N   N1        1.0  0.8881552965467762  0.5702267556956822  0.40054387707664785  1.0000
  C   C1        1.0  0.8145584474204179  0.5944610232523901  0.3437495953117522  1.0000
  C   C2        1.0  0.7231537827029597  0.6245623497232317  0.27320496141738526  1.0000
  C   C3        1.0  0.6373382361012481  0.5942562246326206  0.3465988735056992  1.0000
  C   C4        1.0  0.5502743821804259  0.6245622852851381  0.27320500169880435  1.0000
  C   C5        1.0  0.4600813259420107  0.5944608779134705  0.3437494928758713  1.0000
  N   N2        1.0  0.3874598654828811  0.5702267310001808  0.40054386621976834  1.0000
  N   N3        1.0  0.5507267455522259  0.68246377874154  0.13407530889944907  1.0000
  C   C6        1.0  0.6349286620532727  0.7127180137141316  0.06472629037487487  1.0000
  C   C7        1.0  0.6336417404469178  0.7724130023504117  0.9105884462411201  1.0000
  N   N4        1.0  0.7203296445606981  0.6824637321154943  0.13407531991834576  1.0000
  H   H1        1.0  0.6382854000765746  0.547925698021104  0.4576275956653355  1.0000
  H   H2        1.0  0.6980985118325623  0.8401928157020992  0.887800751815059  1.0000
  H   H3        1.0  0.6337549368402224  0.682028971671639  0.8388570225198703  1.0000
  H   H4        1.0  0.5680936994212036  0.8401907467773947  0.8877999972851683  1.0000
  C   C8        1.0  0.14036873173192754  0.14653452487780205  0.40295785347607627  1.0000
  C   C9        1.0  0.19038220281134  0.22798442698403965  0.2938676262287111  1.0000
  C   C10       1.0  0.23209987576865854  0.16120210680185523  0.17923357591576194  1.0000
  C   C11       1.0  0.22422552297456774  0.011995843310538493  0.17221321408845514  1.0000
  C   C12       1.0  0.1763115727703497  0.9290985232275785  0.28065538993539807  1.0000
  C   C13       1.0  0.13525575270921708  0.9939078788287543  0.3981424414209771  1.0000
  C   C14       1.0  0.28211011639942063  0.24638037839485327  0.0676491116494613  1.0000
  C   C15       1.0  0.32398135608836814  0.3177196887565772  0.9742296577397752  1.0000
  C   C16       1.0  0.3730106331782941  0.40126298540190414  0.8648395514349216  1.0000
  C   C17       1.0  0.41487379892479415  0.4725969124626257  0.7714380053779073  1.0000
  H   H5        1.0  0.09605410198861919  0.4101222191883427  0.6319340596756908  1.0000
  H   H6        1.0  0.195024637749186  0.3444450867612918  0.29609520934997663  1.0000
  H   H7        1.0  0.2559908841305052  0.9593610702381794  0.08351054447349801  1.0000
  H   H8        1.0  0.17332784918460134  0.8130641005635942  0.2744300208044299  1.0000
  H   H9        1.0  0.07470262661392035  0.8653281202005145  0.7407402530500866  1.0000
  H   H10       1.0  0.4516331510664118  0.5352341572625201  0.6894237334637582  1.0000
  C   C18       1.0  0.13527722999066816  0.5678810665546803  0.9771202182445187  1.0000
  C   C19       1.0  0.17699393951228767  0.4498674005666472  0.06051319945208399  1.0000
  C   C20       1.0  0.2271032350904736  0.34043588568953487  0.9952300671719135  1.0000
  C   C21       1.0  0.2325556325894318  0.3470798797371506  0.8440424921918319  1.0000
  C   C22       1.0  0.19028605519518393  0.46208958736103684  0.7596982797674241  1.0000
  C   C23       1.0  0.1403473067341654  0.5725613861669505  0.8239800491882456  1.0000
  F   F1        1.0  0.30129850693759863  0.25481373238539656  0.2182969421902723  1.0000
  F   F2        1.0  0.34626356634595895  0.1532014295363482  0.017521514949232046  1.0000
  F   F3        1.0  0.1989990755624027  0.1090264560811378  0.10992817289464683  1.0000
  H   H11       1.0  0.07213331452347548  0.9114552557853904  0.051387161825606986  1.0000
  H   H12       1.0  0.1722141741107861  0.44474152945468726  0.17738796199863893  1.0000
  H   H13       1.0  0.26867751258844885  0.26232413236596974  0.7906162786425885  1.0000
  H   H14       1.0  0.1944117572891202  0.46255103991034036  0.6430410400299977  1.0000
  H   H15       1.0  0.9659839287675445  0.815913896805742  0.7013062868041446  1.0000
  Zn  Zn1       1.0  0.032243883823448234  0.5702229282640277  0.40055222536189394  1.0000
  Zn  Zn2       1.0  0.24337140591588535  0.5702188048947112  0.4005474053608795  1.0000
  C   C24       1.0  0.13942146650471487  0.5659288477860662  0.663938089022597  1.0000
  C   C25       1.0  0.1361961186033942  0.5745147065790859  0.1371616728269276  1.0000
  C   C26       1.0  0.13618287944227436  0.8337045434886163  0.39330671345589424  1.0000
  C   C27       1.0  0.13943464454250454  0.30673727784193994  0.40779313512104076  1.0000
  O   O1        1.0  0.21662633833004752  0.5767331574626339  0.1908712535864363  1.0000
  O   O2        1.0  0.219232154970451  0.563706176617095  0.6102244411018882  1.0000
  O   O3        1.0  0.2166158838561163  0.7799384456900551  0.39168768206919724  1.0000
  O   O4        1.0  0.21924253669131666  0.3605008981147986  0.40940790444804165  1.0000
  O   O5        1.0  0.05637268100050096  0.7799408350468761  0.3916917262687833  1.0000
  O   O6        1.0  0.058988941190649236  0.563710299011448  0.6102283985681156  1.0000
  O   O7        1.0  0.056383114538788526  0.5767372199975942  0.1908734777314926  1.0000
  O   O8        1.0  0.058999313605606396  0.3605049509275695  0.40941023675823585  1.0000
