data_image0
_chemical_formula_structural       NC6NC2H4C9H6C7NH4Zn2C4O8
_chemical_formula_sum              "N3 C28 H14 Zn2 O8"
_cell_length_a       14.927258858638513
_cell_length_b       9.275152443626249
_cell_length_c       9.275157849593905
_cell_angle_alpha    85.91609934181939
_cell_angle_beta     89.74087902936087
_cell_angle_gamma    90.5735452640029

_space_group_name_H-M_alt    "P 1"
_space_group_IT_number       1

loop_
  _space_group_symop_operation_xyz
  'x, y, z'

loop_
  _atom_site_type_symbol
  _atom_site_label
  _atom_site_symmetry_multiplicity
  _atom_site_fract_x
  _atom_site_fract_y
  _atom_site_fract_z
  _atom_site_occupancy
  N   N1        1.0  0.8577749118049051  0.5634246270601138  0.4049820955774779  1.0000
  C   C1        1.0  0.7802484204304677  0.563424598643375  0.40498210626101083  1.0000
  C   C2        1.0  0.6838159137404938  0.563424713297886  0.4049820560204491  1.0000
  C   C3        1.0  0.6369642004174652  0.5385061199201632  0.27841940161809786  1.0000
  C   C4        1.0  0.5432528896005846  0.5385061442786614  0.27841926811536966  1.0000
  C   C5        1.0  0.4959998485911752  0.5634245358708911  0.40498207525572905  1.0000
  C   C6        1.0  0.3995672749097002  0.5634246505283107  0.4049820250092349  1.0000
  N   N2        1.0  0.3220407835352631  0.5634246221115722  0.4049820356927679  1.0000
  C   C7        1.0  0.5428514949227033  0.5883431292515229  0.5315447296521476  1.0000
  C   C8        1.0  0.6365628057395832  0.5883431048930243  0.5315448631548763  1.0000
  H   H1        1.0  0.6728165233766668  0.5191180481056286  0.17994639263054865  1.0000
  H   H2        1.0  0.5077128691100937  0.5191182456584411  0.17994638701591148  1.0000
  H   H3        1.0  0.5069992385898908  0.6077311917863515  0.6300178467249329  1.0000
  H   H4        1.0  0.6721028265318731  0.6077311019328362  0.6300178539116128  1.0000
  C   C9        1.0  0.08726541509820973  0.13980649787241317  0.40645333568370046  1.0000
  C   C10       1.0  0.05528524168621443  0.22136623150217447  0.2840242450859515  1.0000
  C   C11       1.0  0.03163859379206002  0.15472313256520118  0.1593029757534108  1.0000
  C   C12       1.0  0.039602227429080594  0.005335312270789315  0.15454135268730984  1.0000
  C   C13       1.0  0.06983344521026563  0.9220774621806913  0.27593575897885647  1.0000
  C   C14       1.0  0.09255877205286761  0.9870317836711864  0.40352328175071017  1.0000
  C   C15       1.0  0.015686360715125632  0.9369413123711728  0.025384634329450814  1.0000
  C   C16       1.0  0.9956624382183724  0.8796438920415978  0.9172361330420733  1.0000
  C   C17       1.0  0.9713673729175294  0.8101116058486615  0.7860168938385482  1.0000
  H   H5        1.0  0.21519869268773695  0.22423109780915462  0.6942591538957403  1.0000
  H   H6        1.0  0.007943588375447955  0.2200635826537429  0.06596959772078392  1.0000
  H   H7        1.0  0.1758121758154132  0.6936291272822873  0.6003727989206354  1.0000
  H   H8        1.0  0.9877072589693426  0.693519499253264  0.799479930948496  1.0000
  H   H9        1.0  0.8985082156466921  0.8225040791373943  0.766288256691646  1.0000
  H   H10       1.0  0.009455721171645056  0.861561328722599  0.6927361326434258  1.0000
  C   C18       1.0  0.09107531023944683  0.5593415389535286  0.9818046583890551  1.0000
  C   C19       1.0  0.16858313376592016  0.6063687576432968  0.051338046902754446  1.0000
  C   C20       1.0  0.24156642287903474  0.664739315927294  0.9712580089748494  1.0000
  C   C21       1.0  0.2378942571710535  0.6770106267666129  0.8205566234429533  1.0000
  C   C22       1.0  0.16222093369785928  0.6288152691038428  0.7496857327807409  1.0000
  C   C23       1.0  0.08874889419220389  0.5674966710713152  0.8281720256830081  1.0000
  C   C24       1.0  0.3199648234067023  0.7137754869049983  0.04409204185921855  1.0000
  N   N3        1.0  0.3829770591482644  0.7531873461681431  0.1026383345567794  1.0000
  H   H11       1.0  0.8728038914633693  0.5107028612908976  0.08981049522309223  1.0000
  H   H12       1.0  0.29396323619371545  0.7226409153300731  0.7575760161185003  1.0000
  H   H13       1.0  0.16207013801132408  0.6363994467273937  0.6325950641529379  1.0000
  H   H14       1.0  0.9426889336466635  0.5286921074214819  0.5508997357999674  1.0000
  Zn  Zn1       1.0  0.9917519746320579  0.5634208404257892  0.404990418561633  1.0000
  Zn  Zn2       1.0  0.18806362527185572  0.5634167066257988  0.40498557491330167  1.0000
  C   C25       1.0  0.08915071142865877  0.5602083715027033  0.6682103200287057  1.0000
  C   C26       1.0  0.09066704317564739  0.5666309970176575  0.141765808540945  1.0000
  C   C27       1.0  0.09156938281162955  0.8268328096299243  0.39833455624129555  1.0000
  C   C28       1.0  0.08824829376550786  0.3000048264743073  0.41164165515412665  1.0000
  O   O1        1.0  0.1650292340301257  0.5690695435682662  0.19544841542070854  1.0000
  O   O2        1.0  0.16378451540836947  0.5577655952371399  0.6145236258595838  1.0000
  O   O3        1.0  0.16573661473406986  0.7730682154104838  0.3965970320228378  1.0000
  O   O4        1.0  0.16307706807803546  0.35376693267462844  0.41337490117221876  1.0000
  O   O5        1.0  0.016738464834376476  0.7730706143798682  0.3966010922967833  1.0000
  O   O6        1.0  0.014786376544343898  0.5577697266255608  0.6145276033018252  1.0000
  O   O7        1.0  0.01603109967406047  0.5690736079926741  0.19545066043814074  1.0000
  O   O8        1.0  0.014078933356859401  0.3537709878222381  0.41337725426895444  1.0000
