data_image0
_chemical_formula_structural       NC5NC4H6C6BrH5C6SCH8Zn2C4O8
_chemical_formula_sum              "N2 C26 H19 Br1 S1 Zn2 O8"
_cell_length_a       13.854160002989762
_cell_length_b       9.276564384272257
_cell_length_c       10.302812801239593
_cell_angle_alpha    85.51203806162957
_cell_angle_beta     89.99986876837025
_cell_angle_gamma    90.58592978602583

_space_group_name_H-M_alt    "P 1"
_space_group_IT_number       1

loop_
  _space_group_symop_operation_xyz
  'x, y, z'

loop_
  _atom_site_type_symbol
  _atom_site_label
  _atom_site_symmetry_multiplicity
  _atom_site_fract_x
  _atom_site_fract_y
  _atom_site_fract_z
  _atom_site_occupancy
  N   N1        1.0  0.9197179327384647  0.5782293879424552  0.5667423184332376  1.0000
  C   C1        1.0  0.8475579626925127  0.6034393808563472  0.5135457531522929  1.0000
  C   C2        1.0  0.7577899464093826  0.6348012958160403  0.4473671892767819  1.0000
  C   C3        1.0  0.6700167563672492  0.6053202843764066  0.5119838084741828  1.0000
  C   C4        1.0  0.5826475341362787  0.6348013101443635  0.44736716839658497  1.0000
  C   C5        1.0  0.4924498203193231  0.6034392335487464  0.5135458357789227  1.0000
  N   N2        1.0  0.41994436170588906  0.5782293244506829  0.5667423184032272  1.0000
  C   C6        1.0  0.5830882881044832  0.6943696876743437  0.318150557177008  1.0000
  C   C7        1.0  0.6708434670191575  0.7260006491042388  0.2534391533369995  1.0000
  C   C8        1.0  0.6712532422448604  0.7858101738990957  0.11387530644460474  1.0000
  C   C9        1.0  0.7581653771312181  0.69436968634936  0.3181504758729594  1.0000
  H   H1        1.0  0.6697001640040171  0.5591042324055109  0.611995177045457  1.0000
  H   H2        1.0  0.5153645736611149  0.7161545285513431  0.26801576899889046  1.0000
  H   H3        1.0  0.736574229162611  0.8539653220321374  0.09240137211473365  1.0000
  H   H4        1.0  0.606865751516686  0.8539653239086726  0.09240143072906282  1.0000
  H   H5        1.0  0.6706335942145488  0.695293358503007  0.04950172501525185  1.0000
  H   H6        1.0  0.8261875335133969  0.7161546410259954  0.26801569197837405  1.0000
  C   C10       1.0  0.16692767230502303  0.15474838774213917  0.5670743280798918  1.0000
  C   C11       1.0  0.1545582192586671  0.23824768370485042  0.44841474668785297  1.0000
  C   C12       1.0  0.15117170926729795  0.1732588207492407  0.3308635055557616  1.0000
  C   C13       1.0  0.1601332068705467  0.02385165900434694  0.32973979023766  1.0000
  C   C14       1.0  0.17080223342857592  0.9386590343039465  0.4466050383070228  1.0000
  C   C15       1.0  0.17274379317856867  0.0016991894911913006  0.5664215332006319  1.0000
  Br  Br1       1.0  0.1562100334750769  0.9354938929890182  0.16843894882286659  1.0000
  H   H7        1.0  0.13862334794022546  0.41730078212091026  0.7781446258728202  1.0000
  H   H8        1.0  0.14979488049733636  0.35490407707787197  0.44619211928773117  1.0000
  H   H9        1.0  0.14249797281141663  0.23947905907891132  0.24043036923586467  1.0000
  H   H10       1.0  0.17526822103119283  0.8224190514092417  0.4438059584496601  1.0000
  H   H11       1.0  0.22599029412222205  0.7037665107171949  0.7686256483510632  1.0000
  C   C16       1.0  0.1698357595620843  0.578223810998411  0.18549949209814298  1.0000
  C   C17       1.0  0.13827159388635146  0.7220351235413751  0.17419137336417267  1.0000
  C   C18       1.0  0.12231595800998618  0.7933783932384917  0.051589389177683076  1.0000
  C   C19       1.0  0.13827150582950762  0.7220349721604669  0.939040203791591  1.0000
  C   C20       1.0  0.16983569688749656  0.5782238012800665  0.9479963957351675  1.0000
  C   C21       1.0  0.18543371354926297  0.507008321056722  0.07176543324251927  1.0000
  S   S1        1.0  0.08218703807224848  0.9772253852016229  0.03863636763183709  1.0000
  C   C22       1.0  0.954877003717121  0.926840788313577  0.04218732831571615  1.0000
  H   H12       1.0  0.1816947738350247  0.5240098108585121  0.5170753536390129  1.0000
  H   H13       1.0  0.12573299208987043  0.7791573872217878  0.2602663990065668  1.0000
  H   H14       1.0  0.12573279741633508  0.7791571794873668  0.8449160861845626  1.0000
  H   H15       1.0  0.20976298487117634  0.3960707212367689  0.07958147490939527  1.0000
  H   H16       1.0  0.18169297146734956  0.52400906216725  0.6240597687018794  1.0000
  H   H17       1.0  0.9373206785155971  0.86268735216776  0.9585904488012127  1.0000
  H   H18       1.0  0.9373211019233872  0.8626888095750219  0.13482513971149124  1.0000
  H   H19       1.0  0.9108878330580968  0.02637814688038497  0.03517410661363129  1.0000
  Zn  Zn1       1.0  0.06407245369217973  0.5782255087094974  0.5667498267513333  1.0000
  Zn  Zn2       1.0  0.2755897608884479  0.5782214028438347  0.5667454815788946  1.0000
  C   C23       1.0  0.16979410638152292  0.5724788236059104  0.8038725950063719  1.0000
  C   C24       1.0  0.16987043045666708  0.5839699074640701  0.3296228393002478  1.0000
  C   C25       1.0  0.17163945118955864  0.8416074821139973  0.5613714233937512  1.0000
  C   C26       1.0  0.16802500157459763  0.31483951636092683  0.5721240814664377  1.0000
  O   O1        1.0  0.2501517388712531  0.5858905004028587  0.3779903070828228  1.0000
  O   O2        1.0  0.2500495324808049  0.5705540265033275  0.7555014564489586  1.0000
  O   O3        1.0  0.2515385896765987  0.7878788218660087  0.5596800435023244  1.0000
  O   O4        1.0  0.2486626095697797  0.36856571535766114  0.5738116226790764  1.0000
  O   O5        1.0  0.09099953283038226  0.7878811961986422  0.5596836856458041  1.0000
  O   O6        1.0  0.08951048752815673  0.570558133433988  0.755505028033522  1.0000
  O   O7        1.0  0.08961269363782386  0.5858945570802709  0.37799231779859466  1.0000
  O   O8        1.0  0.088123564261565  0.3685697617205613  0.5738137307398816  1.0000
