data_image0
_chemical_formula_structural       NC6NC2H4C7NH5C7F3H5Zn2C4O8
_chemical_formula_sum              "N3 C26 H14 F3 Zn2 O8"
_cell_length_a       14.927258858638513
_cell_length_b       9.275154477615127
_cell_length_c       9.272721663655245
_cell_angle_alpha    86.10781498077147
_cell_angle_beta     90.51617878085045
_cell_angle_gamma    89.43371000992973

_space_group_name_H-M_alt    "P 1"
_space_group_IT_number       1

loop_
  _space_group_symop_operation_xyz
  'x, y, z'

loop_
  _atom_site_type_symbol
  _atom_site_label
  _atom_site_symmetry_multiplicity
  _atom_site_fract_x
  _atom_site_fract_y
  _atom_site_fract_z
  _atom_site_occupancy
  N   N1        1.0  0.8250658874623432  0.5691383338182708  0.4156742162132334  1.0000
  C   C1        1.0  0.7475393965280057  0.5691383053728201  0.41567422669210585  1.0000
  C   C2        1.0  0.6511068880021559  0.5691384201724634  0.4156741772732767  1.0000
  C   C3        1.0  0.603494557418078  0.5447525550022372  0.28885542328562236  1.0000
  C   C4        1.0  0.5097832451751353  0.5447525798956998  0.28885528988822573  1.0000
  C   C5        1.0  0.46329082520031273  0.5691382427610286  0.4156741952039453  1.0000
  C   C6        1.0  0.3668582496828756  0.5691383575636026  0.41567414577920175  1.0000
  N   N2        1.0  0.2893317587485381  0.5691383291181522  0.41567415625807413  1.0000
  C   C7        1.0  0.510903088792803  0.5935241079341858  0.5424929491856851  1.0000
  C   C8        1.0  0.6046144010357459  0.5935240830407231  0.542493082583082  1.0000
  H   H1        1.0  0.6387550761982198  0.5257789762954421  0.19018315430018973  1.0000
  H   H2        1.0  0.4736514194511824  0.5257791737660709  0.19018315014705678  1.0000
  H   H3        1.0  0.47564263766501136  0.6124976769226004  0.6411653262484884  1.0000
  H   H4        1.0  0.6407462267742673  0.6124975870874501  0.64116533277304  1.0000
  C   C9        1.0  0.05978617849464097  0.1457398109361823  0.4140055527114214  1.0000
  C   C10       1.0  0.03448915740229855  0.2282167614307338  0.28686574374719126  1.0000
  C   C11       1.0  0.0019429352103643679  0.16151339570478473  0.16646072067004836  1.0000
  C   C12       1.0  0.9941609864975288  0.011422233261834783  0.17177747634132157  1.0000
  C   C13       1.0  0.02027217172729157  0.9277216030823505  0.29601923450279877  1.0000
  C   C14       1.0  0.05462019842827351  0.9925258284373525  0.4173553114840012  1.0000
  C   C15       1.0  0.9754455564031548  0.24756369600356612  0.037788545536399536  1.0000
  N   N3        1.0  0.9541489985524527  0.31673241342123176  0.934369075810169  1.0000
  H   H5        1.0  0.07912548755856386  0.22436560191927923  0.767960833047088  1.0000
  H   H6        1.0  0.03812388666426303  0.34515253307887234  0.28258718994786625  1.0000
  H   H7        1.0  0.9686698312841237  0.958784608812068  0.0792386541068193  1.0000
  H   H8        1.0  0.015567346061573064  0.8112533064102426  0.29589233220342925  1.0000
  H   H9        1.0  0.0714369366838195  0.6950653099006819  0.6545154171559553  1.0000
  C   C16       1.0  0.054847191517226654  0.5667942809676279  0.9922279345157543  1.0000
  C   C17       1.0  0.09369378953382791  0.4488624221127244  0.0744837546514221  1.0000
  C   C18       1.0  0.1403398532345479  0.33950676569311367  0.008146156617880209  1.0000
  C   C19       1.0  0.145406399922512  0.3461461544455762  0.8570226014775184  1.0000
  C   C20       1.0  0.10604719148036894  0.46107613721454427  0.7737866045882749  1.0000
  C   C21       1.0  0.05955920116679203  0.5714713564600271  0.8391328637302355  1.0000
  C   C22       1.0  0.1794565701456505  0.21203949934218594  0.09798927341455799  1.0000
  F   F1        1.0  0.2093700892850333  0.2539439675385957  0.23038798647329117  1.0000
  F   F2        1.0  0.2512291130728117  0.15240210276617439  0.02863343836767806  1.0000
  F   F3        1.0  0.11432037037052893  0.10825774464144547  0.12061444657842554  1.0000
  H   H10       1.0  0.9959674146696607  0.9101303068243783  0.06980550001835684  1.0000
  H   H11       1.0  0.08925193518733515  0.44374010398269165  0.19130912565236624  1.0000
  H   H12       1.0  0.17903462142372506  0.2614491600580799  0.8027796944098897  1.0000
  H   H13       1.0  0.10988314836107094  0.46153727006332473  0.657133810983519  1.0000
  H   H14       1.0  0.8973134914175628  0.8146551713358383  0.7188040149924744  1.0000
  Zn  Zn1       1.0  0.9590430671285848  0.5691345150406547  0.41568251581522886  1.0000
  Zn  Zn2       1.0  0.15535472782640236  0.5691304033225142  0.4156776387879541  1.0000
  C   C23       1.0  0.058701555248663634  0.5648434156219106  0.6790269937387474  1.0000
  C   C24       1.0  0.05569837311257353  0.5734233226853322  0.1523333095398038  1.0000
  C   C25       1.0  0.05556009262717687  0.8324334928836656  0.4109758550528797  1.0000
  C   C26       1.0  0.05883977974233903  0.3058315135902938  0.42038451825388923  1.0000
  O   O1        1.0  0.13048332795390083  0.5756402391199729  0.20606426028954772  1.0000
  O   O2        1.0  0.13291261286053158  0.562622288500908  0.6252919220359906  1.0000
  O   O3        1.0  0.13037484612119865  0.7787046683296572  0.40883873699625783  1.0000
  O   O4        1.0  0.1330210270408846  0.35955786900960396  0.42251733725191  1.0000
  O   O5        1.0  0.9813767009225159  0.7787070493564956  0.4088428173453581  1.0000
  O   O6        1.0  0.9839144566619834  0.5626264013639601  0.6252959323509596  1.0000
  O   O7        1.0  0.9814851624755415  0.5756442921651264  0.20606653670655278  1.0000
  O   O8        1.0  0.9840228622232874  0.35956191233930745  0.42251972174037156  1.0000
