data_image0
_chemical_formula_structural       NC6NC3H6C6NH5C6IH3Zn2C4O8
_chemical_formula_sum              "N3 C25 H14 I1 Zn2 O8"
_cell_length_a       14.934028789175542
_cell_length_b       9.274771166103582
_cell_length_c       9.275433903346869
_cell_angle_alpha    86.06373460888793
_cell_angle_beta     89.94113207268822
_cell_angle_gamma    90.55950156128424

_space_group_name_H-M_alt    "P 1"
_space_group_IT_number       1

loop_
  _space_group_symop_operation_xyz
  'x, y, z'

loop_
  _atom_site_type_symbol
  _atom_site_label
  _atom_site_symmetry_multiplicity
  _atom_site_fract_x
  _atom_site_fract_y
  _atom_site_fract_z
  _atom_site_occupancy
  N   N1        1.0  0.8538810619481213  0.5608535562760186  0.4071586404593843  1.0000
  C   C1        1.0  0.7763880868638431  0.5597479424594276  0.4064820734117556  1.0000
  C   C2        1.0  0.6799828886410901  0.5583674774883292  0.40563750587339453  1.0000
  C   C3        1.0  0.6328948935779648  0.6658778738044564  0.4713060253248824  1.0000
  C   C4        1.0  0.539376213821587  0.664769467319188  0.4706288697219209  1.0000
  C   C5        1.0  0.49203332427262475  0.5562055321791171  0.40431690758492356  1.0000
  C   C6        1.0  0.3954021717857741  0.5585348947982838  0.40574099173899336  1.0000
  N   N2        1.0  0.31793365124559686  0.5603835412054836  0.406871510280312  1.0000
  C   C7        1.0  0.5391064162807908  0.4472077471453848  0.3377393238290256  1.0000
  C   C8        1.0  0.4900495871615906  0.32917619591706027  0.2656456673012235  1.0000
  C   C9        1.0  0.633263260718259  0.44944717490877206  0.3391072426979087  1.0000
  H   H1        1.0  0.6684706660955192  0.7505860997326093  0.5230473164290594  1.0000
  H   H2        1.0  0.5038679478911786  0.7488253155566149  0.5219715382190753  1.0000
  H   H3        1.0  0.44764446437367617  0.37731480107792414  0.1769823457656734  1.0000
  H   H4        1.0  0.44687375522351336  0.2671686449240235  0.34584430868798965  1.0000
  H   H5        1.0  0.5370287412471706  0.2527253824237965  0.21894226558306948  1.0000
  H   H6        1.0  0.6702716025291633  0.3665095230519395  0.2884478699480022  1.0000
  C   C10       1.0  0.08316235984846404  0.13703312402098988  0.40780217718024625  1.0000
  C   C11       1.0  0.0625964435676318  0.2189916858992318  0.27895673412504407  1.0000
  C   C12       1.0  0.050391049147928885  0.1525749438339119  0.1492885684811256  1.0000
  C   C13       1.0  0.05879879835781396  0.002812125617131399  0.14752656332739367  1.0000
  C   C14       1.0  0.07770945114896861  0.9195169784331402  0.27460289614326405  1.0000
  C   C15       1.0  0.0886608944586635  0.9841930133216693  0.40624046258182567  1.0000
  N   N3        1.0  0.030375706999909106  0.2376173777109547  0.019026558796239715  1.0000
  H   H7        1.0  0.18383984703833478  0.21994677366706414  0.7230954622714207  1.0000
  H   H8        1.0  0.04983178097698036  0.9502724308964481  0.04775972987622401  1.0000
  H   H9        1.0  0.15284133300446748  0.6893444914454254  0.6207542022079617  1.0000
  H   H10       1.0  0.024206330580218025  0.34969702986476525  0.01898357459299915  1.0000
  H   H11       1.0  0.021492269809332495  0.1891200192482196  0.9216293864130224  1.0000
  C   C16       1.0  0.08603956655885825  0.5561107734821544  0.983877179370126  1.0000
  C   C17       1.0  0.1685058593183718  0.5533268112071774  0.05728598049951228  1.0000
  C   C18       1.0  0.249241466550013  0.5638367412677554  0.9810977953978902  1.0000
  C   C19       1.0  0.2488050998616637  0.577466086393126  0.830527351722194  1.0000
  C   C20       1.0  0.16784180825090034  0.5780681904442324  0.7556011097458413  1.0000
  C   C21       1.0  0.0857836645909979  0.5651152806480273  0.8301653980438575  1.0000
  I   I1        1.0  0.37188105969810903  0.5617976523016182  0.09380981946567268  1.0000
  H   H12       1.0  0.8731430237389551  0.64178253000933  0.0813413395724758  1.0000
  H   H13       1.0  0.3113132317889564  0.5862204065457568  0.7712615189355132  1.0000
  H   H14       1.0  0.9419628044493044  0.6167294344809222  0.5456841956165914  1.0000
  Zn  Zn1       1.0  0.9877966010429176  0.5607141432197625  0.40708410274831985  1.0000
  Zn  Zn2       1.0  0.1840180619635523  0.5605112638653236  0.40695785055460654  1.0000
  C   C22       1.0  0.08579274730791764  0.5576668830219491  0.6702094237211982  1.0000
  C   C23       1.0  0.08602407020088343  0.5635603433630567  0.14383266627700197  1.0000
  C   C24       1.0  0.08761867070107951  0.8240006391083416  0.4007935771340696  1.0000
  C   C25       1.0  0.08419806857956841  0.29722485513924535  0.41324859292509375  1.0000
  O   O1        1.0  0.1604838504397792  0.5659772024856826  0.1974672884458719  1.0000
  O   O2        1.0  0.16026050871481956  0.555094950574893  0.6164785662674468  1.0000
  O   O3        1.0  0.1617339606695971  0.7701628438446095  0.3989233618674555  1.0000
  O   O4        1.0  0.15901033162755085  0.35090931845425777  0.41502238482881837  1.0000
  O   O5        1.0  0.012804264418177167  0.7703160887015505  0.39901956850960874  1.0000
  O   O6        1.0  0.011330823730810517  0.5552499276399749  0.6165746928841385  1.0000
  O   O7        1.0  0.011554165712909898  0.5661321108517994  0.19756168271842944  1.0000
  O   O8        1.0  0.010080646797390395  0.35106421765280516  0.4151168871539228  1.0000
