data_image0
_chemical_formula_structural       NC5NC4H6C6NH7C7NH4Zn2C4O8
_chemical_formula_sum              "N4 C26 H17 Zn2 O8"
_cell_length_a       13.854160002989762
_cell_length_b       9.274771166103582
_cell_length_c       9.275157849593905
_cell_angle_alpha    86.00874675488272
_cell_angle_beta     89.74088443434586
_cell_angle_gamma    90.59704847255895

_space_group_name_H-M_alt    "P 1"
_space_group_IT_number       1

loop_
  _space_group_symop_operation_xyz
  'x, y, z'

loop_
  _atom_site_type_symbol
  _atom_site_label
  _atom_site_symmetry_multiplicity
  _atom_site_fract_x
  _atom_site_fract_y
  _atom_site_fract_z
  _atom_site_occupancy
  N   N1        1.0  0.9246359435013476  0.5633170179330906  0.4075131333516291  1.0000
  C   C1        1.0  0.8526540583011734  0.5879647348087309  0.3484394979929073  1.0000
  C   C2        1.0  0.763107586346748  0.6186271567755872  0.27494963421017626  1.0000
  C   C3        1.0  0.6751182330307679  0.5898294294402309  0.34670386902019823  1.0000
  C   C4        1.0  0.5879651741441357  0.6186271708843792  0.2749496110188046  1.0000
  C   C5        1.0  0.49754591563694867  0.5879645883459823  0.3484395898544832  1.0000
  N   N2        1.0  0.42486237246040015  0.5633169544242704  0.40751313338083445  1.0000
  C   C6        1.0  0.58883828093766  0.6768293177760858  0.1314590007110037  1.0000
  C   C7        1.0  0.6768102212495685  0.707776547835242  0.05959743688445096  1.0000
  C   C8        1.0  0.677686366511766  0.7661092456242766  0.9046210359931132  1.0000
  C   C9        1.0  0.7639153702312576  0.6768293155812357  0.13145891046385882  1.0000
  H   H1        1.0  0.6744669924060072  0.5446707864945597  0.4577631695598663  1.0000
  H   H2        1.0  0.5212821381457372  0.6980837248184393  0.07578734647924601  1.0000
  H   H3        1.0  0.7430869756502454  0.8340526938767077  0.8807176076316026  1.0000
  H   H4        1.0  0.6133784978120548  0.8340526963805958  0.8807176726923488  1.0000
  H   H5        1.0  0.6772660755718254  0.6748801309874443  0.833254731910834  1.0000
  H   H6        1.0  0.8321050982659939  0.6980838364990177  0.0757872608748198  1.0000
  C   C10       1.0  0.17178809943206613  0.13972799917706857  0.4082986488445892  1.0000
  C   C11       1.0  0.14995836341651825  0.221795108450658  0.2794264022692523  1.0000
  C   C12       1.0  0.13714302124462183  0.15549620163562766  0.1497365177892398  1.0000
  C   C13       1.0  0.14621079732111147  0.00574366212546584  0.1479795239452799  1.0000
  C   C14       1.0  0.16626090026862986  0.9223400684349001  0.27508144254079014  1.0000
  C   C15       1.0  0.17771935922930782  0.9868950216229523  0.4067401668425313  1.0000
  N   N3        1.0  0.11591050716838946  0.2406491624052709  0.01944789060790031  1.0000
  H   H7        1.0  0.2794831399452691  0.222426987666456  0.7236886877352553  1.0000
  H   H8        1.0  0.14509319911157756  0.3383824837305396  0.27887283259819884  1.0000
  H   H9        1.0  0.13680752289599796  0.9532950589423977  0.048196242315107884  1.0000
  H   H10       1.0  0.1705268804140354  0.8061362876349057  0.27095418501112656  1.0000
  H   H11       1.0  0.24633778591183292  0.6918960832768841  0.6213170623731257  1.0000
  H   H12       1.0  0.10926033901828867  0.35272261358183277  0.019401083313177032  1.0000
  H   H13       1.0  0.1065910877967231  0.19224060090224637  0.9220345806308137  1.0000
  C   C16       1.0  0.17600594492046606  0.5592341869831512  0.9843291234500993  1.0000
  C   C17       1.0  0.25952992564334365  0.6062581635893809  0.05393865283351885  1.0000
  C   C18       1.0  0.33818196718893884  0.6646247001274804  0.973953117870099  1.0000
  C   C19       1.0  0.3342286680747184  0.6768951673982085  0.8232715967858748  1.0000
  C   C20       1.0  0.2526809676904094  0.6287031319699923  0.7523226745398501  1.0000
  C   C21       1.0  0.17350152573845934  0.5673887584798922  0.8307096920572268  1.0000
  C   C22       1.0  0.42266604652910855  0.7136574907687014  0.046866543895815564  1.0000
  N   N4        1.0  0.4905696092799279  0.7530666331526855  0.10547664727147699  1.0000
  H   H14       1.0  0.9408148384704641  0.5105988765000744  0.09225618838905958  1.0000
  H   H15       1.0  0.3946528443463303  0.7225223121233206  0.7603648655478445  1.0000
  H   H16       1.0  0.25252053187319423  0.6362867880184697  0.6352442832989099  1.0000
  H   H17       1.0  0.01611779089332964  0.5285868783626082  0.5533745614028827  1.0000
  Zn  Zn1       1.0  0.06899043927682368  0.5633132179768348  0.40752147149259943  1.0000
  Zn  Zn2       1.0  0.28050776019689017  0.5633090645594208  0.40751665234299717  1.0000
  C   C23       1.0  0.17393250601683752  0.5601009601123397  0.6707361880289617  1.0000
  C   C24       1.0  0.17556801554340182  0.5665231437672011  0.14430207385032157  1.0000
  C   C25       1.0  0.1766102375564693  0.8267070613013329  0.40129204133160823  1.0000
  C   C26       1.0  0.17289019946687478  0.29991531028123153  0.41374630056896633  1.0000
  O   O1        1.0  0.25569071934246956  0.5689615150717501  0.19798864011046405  1.0000
  O   O2        1.0  0.2543465482272933  0.5576583442787842  0.6170455513052635  1.0000
  O   O3        1.0  0.2565077638018822  0.7729461571417147  0.39946749375052765  1.0000
  O   O4        1.0  0.25352943198332034  0.35367371148789456  0.41556658959497494  1.0000
  O   O5        1.0  0.09596869530994587  0.7729485710512756  0.3994715342346833  1.0000
  O   O6        1.0  0.09380749209180439  0.5576624904882368  0.617049511762189  1.0000
  O   O7        1.0  0.09515166804610109  0.5689655943217942  0.19799086803417776  1.0000
  O   O8        1.0  0.09299038029106454  0.3536777814617785  0.415568925582976  1.0000
