data_image0
_chemical_formula_structural       Zn4O13C24H3F2H2F4H
_chemical_formula_sum              "Zn4 O13 C24 H6 F6"
_cell_length_a       12.759401
_cell_length_b       12.7594
_cell_length_c       12.759393
_cell_angle_alpha    90.029805
_cell_angle_beta     90.01967600000002
_cell_angle_gamma    90.015071

_space_group_name_H-M_alt    "P 1"
_space_group_IT_number       1

loop_
  _space_group_symop_operation_xyz
  'x, y, z'

loop_
  _atom_site_type_symbol
  _atom_site_label
  _atom_site_symmetry_multiplicity
  _atom_site_fract_x
  _atom_site_fract_y
  _atom_site_fract_z
  _atom_site_occupancy
  Zn  Zn1       1.0  0.6062669999999999  0.581796  0.59399  1.0000
  Zn  Zn2       1.0  0.606158  0.40608100000000014  0.418312  1.0000
  Zn  Zn3       1.0  0.43056500000000014  0.5817439999999999  0.418329  1.0000
  Zn  Zn4       1.0  0.4305580000000003  0.4061580000000001  0.593953  1.0000
  O   O1        1.0  0.5183869999999999  0.493945  0.506146  1.0000
  O   O2        1.0  0.7532730000000002  0.5584769999999999  0.570694  1.0000
  O   O3        1.0  0.5828230000000001  0.42932900000000007  0.271293  1.0000
  O   O4        1.0  0.4539210000000001  0.7287720000000002  0.44165299999999996  1.0000
  O   O5        1.0  0.7531930000000002  0.4293800000000001  0.4416239999999999  1.0000
  O   O6        1.0  0.583008  0.7288110000000001  0.57071  1.0000
  O   O7        1.0  0.4538160000000002  0.5583879999999999  0.271305  1.0000
  O   O8        1.0  0.2835430000000001  0.558462  0.441617  1.0000
  O   O9        1.0  0.45390800000000003  0.4295110000000001  0.740979  1.0000
  O   O10       1.0  0.28353800000000007  0.42946  0.570648  1.0000
  O   O11       1.0  0.5830010000000003  0.5585519999999999  0.741006  1.0000
  O   O12       1.0  0.5828150000000004  0.25907  0.44158899999999995  1.0000
  O   O13       1.0  0.45380200000000026  0.2591259999999999  0.570632  1.0000
  C   C1        1.0  0.24541999999999997  0.4939630000000001  0.506131  1.0000
  C   C2        1.0  0.12864300000000006  0.493945  0.50615  1.0000
  C   C3        1.0  0.07382299999999997  0.561045  0.57346  1.0000
  C   C4        1.0  0.9640990000000003  0.5610339999999999  0.573467  1.0000
  C   C5        1.0  0.9640240000000002  0.42681500000000006  0.43885  1.0000
  C   C6        1.0  0.07374600000000009  0.426832  0.438839  1.0000
  C   C7        1.0  0.5183250000000001  0.220977  0.506127  1.0000
  C   C8        1.0  0.518394  0.10420099999999989  0.506154  1.0000
  C   C9        1.0  0.5855810000000002  0.049448999999999854  0.573412  1.0000
  C   C10       1.0  0.58564  0.9397250000000001  0.57344  1.0000
  C   C11       1.0  0.45132300000000003  0.939514  0.43894499999999986  1.0000
  C   C12       1.0  0.4512600000000002  0.049235999999999946  0.438923  1.0000
  C   C13       1.0  0.7924199999999999  0.493926  0.506161  1.0000
  C   C14       1.0  0.9091970000000003  0.4939180000000001  0.506168  1.0000
  C   C15       1.0  0.5184660000000001  0.4940460000000001  0.780179  1.0000
  C   C16       1.0  0.5184990000000002  0.4940890000000001  0.8969559999999998  1.0000
  C   C17       1.0  0.5184780000000002  0.767978  0.506188  1.0000
  C   C18       1.0  0.5185170000000001  0.884755  0.506205  1.0000
  C   C19       1.0  0.5183690000000001  0.4939200000000001  0.23317899999999997  1.0000
  C   C20       1.0  0.5185390000000001  0.4941730000000001  0.11640199999999999  1.0000
  C   C21       1.0  0.5857230000000002  0.561291  0.9518339999999998  1.0000
  C   C22       1.0  0.5857399999999999  0.5613360000000001  0.061557999999999995  1.0000
  C   C23       1.0  0.4513080000000001  0.426968  0.061517000000000044  1.0000
  C   C24       1.0  0.4512860000000001  0.426928  0.951795  1.0000
  H   H1        1.0  0.9194700000000002  0.6156750000000001  0.6282759999999997  1.0000
  H   H2        1.0  0.6403470000000002  0.8951509999999999  0.62821  1.0000
  H   H3        1.0  0.3965880000000002  0.37228600000000006  0.10617999999999993  1.0000
  F   F1        1.0  0.37972800000000007  0.35540400000000016  0.893387  1.0000
  F   F2        1.0  0.13209300000000002  0.35541999999999985  0.367186  1.0000
  H   H4        1.0  0.9193140000000001  0.372173  0.384049  1.0000
  H   H5        1.0  0.39654300000000015  0.09381799999999996  0.3841529999999999  1.0000
  F   F3        1.0  0.6570290000000005  0.10794199999999998  0.644968  1.0000
  F   F4        1.0  0.6572540000000004  0.6327710000000001  0.8934739999999998  1.0000
  F   F5        1.0  0.3798760000000001  0.8810080000000002  0.367398  1.0000
  F   F6        1.0  0.6572960000000002  0.632856  0.11995800000000001  1.0000
  H   H6        1.0  0.11851699999999998  0.615696  0.628265  1.0000
