data_image0
_chemical_formula_structural       NC5N2C2NH4C6ClH5C6BrH2Zn2C4O8
_chemical_formula_sum              "N4 C23 H11 Cl1 Br1 Zn2 O8"
_cell_length_a       13.87973921873968
_cell_length_b       9.276545438789551
_cell_length_c       9.275428193871798
_cell_angle_alpha    86.19890630967393
_cell_angle_beta     89.94092707489388
_cell_angle_gamma    89.40960813042831

_space_group_name_H-M_alt    "P 1"
_space_group_IT_number       1

loop_
  _space_group_symop_operation_xyz
  'x, y, z'

loop_
  _atom_site_type_symbol
  _atom_site_label
  _atom_site_symmetry_multiplicity
  _atom_site_fract_x
  _atom_site_fract_y
  _atom_site_fract_z
  _atom_site_occupancy
  N   N1        1.0  0.8975764633275255  0.5612170045365084  0.41145342454320444  1.0000
  C   C1        1.0  0.8243414988837007  0.5851493765118272  0.35484937751576817  1.0000
  C   C2        1.0  0.7333863342579794  0.6148757161985283  0.2845410341414871  1.0000
  C   C3        1.0  0.6471022551011377  0.584959145333394  0.35769543494659894  1.0000
  C   C4        1.0  0.5605069335197791  0.6148756520015759  0.2845410739924694  1.0000
  C   C5        1.0  0.46986437822204596  0.5851492307365143  0.35484927424064505  1.0000
  N   N2        1.0  0.3968810323582581  0.5612169798000685  0.4114534135392651  1.0000
  N   N3        1.0  0.5618470822079383  0.6720384260214882  0.14586823607448984  1.0000
  C   C6        1.0  0.6464903051320747  0.70192365041274  0.07675565037307508  1.0000
  C   C7        1.0  0.6461907993063001  0.7608027790140963  0.9230960962232885  1.0000
  N   N4        1.0  0.7314499811825793  0.6720383794779907  0.14586824679427468  1.0000
  H   H1        1.0  0.6473410532204589  0.539218204762858  0.46835880209048364  1.0000
  H   H2        1.0  0.7107423923656373  0.8284282604504501  0.9007478277207457  1.0000
  H   H3        1.0  0.646866048036993  0.6701066468290064  0.8508482268364519  1.0000
  H   H4        1.0  0.5807375868367127  0.8284261888822874  0.9007470607650205  1.0000
  C   C8        1.0  0.15014128070939292  0.13777932100943846  0.41121588500466943  1.0000
  C   C9        1.0  0.15059807133740574  0.22002072219278235  0.2782132384685432  1.0000
  C   C10       1.0  0.14228751262556938  0.1535619545043112  0.1481054180869843  1.0000
  C   C11       1.0  0.13332262347904766  0.003980281718815709  0.14899856734971073  1.0000
  C   C12       1.0  0.13435395432344266  0.9201745832848292  0.2795599486531004  1.0000
  C   C13       1.0  0.14432551546694428  0.9846437180855264  0.4117034349523754  1.0000
  Cl  Cl1       1.0  0.14165494906907483  0.25843926854334875  0.9835961254832206  1.0000
  H   H5        1.0  0.19925914525584099  0.40314018678978464  0.6377670398714008  1.0000
  H   H6        1.0  0.15511450290751516  0.336711040927399  0.27536028055818895  1.0000
  H   H7        1.0  0.12647172976620347  0.9521915149343685  0.048339388559954996  1.0000
  H   H8        1.0  0.12964558983376606  0.8038860261769717  0.2769102104416752  1.0000
  H   H9        1.0  0.11186702898883927  0.6883784881430635  0.6447143493271961  1.0000
  C   C14       1.0  0.147555205534315  0.5567252333118353  0.9883033791336094  1.0000
  C   C15       1.0  0.23628744872783214  0.5594096962123253  0.061350246847466476  1.0000
  C   C16       1.0  0.32262722761680385  0.5752529711590655  0.9848226294722977  1.0000
  C   C17       1.0  0.32159420756561286  0.5888319630244129  0.8342732037856537  1.0000
  C   C18       1.0  0.23455994760785434  0.5840672316480682  0.7597179917736145  1.0000
  C   C19       1.0  0.1469115930696976  0.5656977776795801  0.8346159336857397  1.0000
  Br  Br1       1.0  0.4420456003348192  0.580765509396923  0.08638973193358424  1.0000
  H   H10       1.0  0.9152844251876263  0.6281753934238827  0.0869098701911808  1.0000
  H   H11       1.0  0.3883985003904522  0.6017177548163604  0.7747007521449343  1.0000
  Zn  Zn1       1.0  0.041664997640293855  0.5612132216326466  0.41146174320692896  1.0000
  Zn  Zn2       1.0  0.2527925558077986  0.5612090761764551  0.41145690069902935  1.0000
  C   C20       1.0  0.14707052728427358  0.5582573772502746  0.6746414269325496  1.0000
  C   C21       1.0  0.14738931906817654  0.5641667413887321  0.1482773594011437  1.0000
  C   C22       1.0  0.1454242080825079  0.8245074086653512  0.40586904128902535  1.0000
  C   C23       1.0  0.14903557806572043  0.2979149783700059  0.4170498208742186  1.0000
  O   O1        1.0  0.2274554972799938  0.5666563155699761  0.20196424723122303  1.0000
  O   O2        1.0  0.2272452883482745  0.555763564570239  0.6209504483156842  1.0000
  O   O3        1.0  0.22591478355248285  0.770763848035657  0.4039148461872417  1.0000
  O   O4        1.0  0.2287859300435835  0.3516560412755237  0.4189997413230503  1.0000
  O   O5        1.0  0.06567155135703029  0.7707662565364821  0.4039189025769818  1.0000
  O   O6        1.0  0.06700204430956558  0.5557677046776176  0.6209544288699478  1.0000
  O   O7        1.0  0.06721225496803006  0.566660387061532  0.20196649527005595  1.0000
  O   O8        1.0  0.06854268771634264  0.35166010359901745  0.41900209739257266  1.0000
