data_image0
_chemical_formula_structural       NC10NC5H10C6NCOC6H11C7OC6OCH11Zn2C4O8
_chemical_formula_sum              "N3 C46 H32 O11 Zn2"
_cell_length_a       19.4436361288709
_cell_length_b       10.29965916528486
_cell_length_c       10.299362532796529
_cell_angle_alpha    85.59689086151258
_cell_angle_beta     89.71996928525026
_cell_angle_gamma    89.43524921522018

_space_group_name_H-M_alt    "P 1"
_space_group_IT_number       1

loop_
  _space_group_symop_operation_xyz
  'x, y, z'

loop_
  _atom_site_type_symbol
  _atom_site_label
  _atom_site_symmetry_multiplicity
  _atom_site_fract_x
  _atom_site_fract_y
  _atom_site_fract_z
  _atom_site_occupancy
  N   N1        1.0  0.6476643694138994  0.40883459039879555  0.5625858611721033  1.0000
  C   C1        1.0  0.5888328558863238  0.4187380191313583  0.5769731851207047  1.0000
  C   C2        1.0  0.5155090973252213  0.4310889291022006  0.5949696788672494  1.0000
  C   C3        1.0  0.47330140610297716  0.3990809937197919  0.5002853314243272  1.0000
  C   C4        1.0  0.3973994109105895  0.40951965095221343  0.505616984652717  1.0000
  C   C5        1.0  0.35767754359833326  0.3847859903496957  0.6126804109937596  1.0000
  C   C6        1.0  0.28155503255819603  0.38870085924171593  0.5997224395638061  1.0000
  C   C7        1.0  0.24101958944071705  0.44637233238167945  0.6935125886598758  1.0000
  C   C8        1.0  0.1693546641195523  0.4500086487868636  0.6829699887790668  1.0000
  C   C9        1.0  0.13723042186133602  0.3955775283525311  0.5789236286039104  1.0000
  C   C10       1.0  0.06343623056683541  0.3992750666354867  0.5682257685270409  1.0000
  N   N2        1.0  0.004110705945008604  0.4022476934103991  0.5596253982984212  1.0000
  C   C11       1.0  0.17704094074600296  0.33719903371244314  0.48551646887923416  1.0000
  C   C12       1.0  0.24872223694759724  0.33350846316108457  0.49580727373525985  1.0000
  C   C13       1.0  0.3858300179837133  0.3443429338266346  0.7437605092314901  1.0000
  C   C14       1.0  0.4445095883340918  0.38746949341303993  0.7910176745706274  1.0000
  C   C15       1.0  0.48871740190977914  0.485315434514892  0.7166843306494617  1.0000
  H   H1        1.0  0.4953781046125378  0.3699533796010146  0.40996886571097496  1.0000
  H   H2        1.0  0.3726860611622875  0.4320019160092259  0.4124668039428809  1.0000
  H   H3        1.0  0.2649126735799706  0.48967212493349493  0.7743754944704679  1.0000
  H   H4        1.0  0.1390312289776628  0.4953311096282897  0.755906162167708  1.0000
  H   H5        1.0  0.15267607026323413  0.29409493499298045  0.40498811206630125  1.0000
  H   H6        1.0  0.2783798473076556  0.2859427670443246  0.4235666562862428  1.0000
  H   H7        1.0  0.35486732747118255  0.2801358545529318  0.8079849798036359  1.0000
  H   H8        1.0  0.45967359742755676  0.35341560497921315  0.8889399273718651  1.0000
  H   H9        1.0  0.4586174054052818  0.5760238323026161  0.6914638309947685  1.0000
  H   H10       1.0  0.5320188910324716  0.5109086119137327  0.7797778607222269  1.0000
  C   C16       1.0  0.8258303122859517  0.02418148035749623  0.5609906529956608  1.0000
  C   C17       1.0  0.8262786175540967  0.03341180968503665  0.4241736552627624  1.0000
  C   C18       1.0  0.8275186779329798  0.9212070351296847  0.3553291285961522  1.0000
  C   C19       1.0  0.8264082471745468  0.7982192131152364  0.42446895705461657  1.0000
  C   C20       1.0  0.8259513290823461  0.7868906677733182  0.5612318037942188  1.0000
  C   C21       1.0  0.8259069626230632  0.9004749029305128  0.628718697381027  1.0000
  N   N3        1.0  0.8269203805304159  0.9342475507314387  0.21527074964113857  1.0000
  C   C22       1.0  0.8591491556114903  0.842498455732431  0.1352785520786901  1.0000
  O   O1        1.0  0.9066026604596109  0.7688174243631231  0.1818615403924695  1.0000
  C   C23       1.0  0.8391382310123087  0.8366288552860355  0.9970812780257643  1.0000
  C   C24       1.0  0.775533379588453  0.8876472027319166  0.951264696843777  1.0000
  C   C25       1.0  0.7570849346397684  0.8809344127279342  0.8208978977189441  1.0000
  C   C26       1.0  0.8016005072061002  0.8229984087017252  0.735073274268967  1.0000
  C   C27       1.0  0.8645997087067879  0.7712033068476909  0.7795186939957164  1.0000
  C   C28       1.0  0.8833107068414431  0.7775548802411313  0.9097788400420609  1.0000
  H   H11       1.0  0.8243281947546967  0.21404610170756697  0.8190768204303621  1.0000
  H   H12       1.0  0.8261919497785343  0.12800608376688838  0.3703524751613005  1.0000
  H   H13       1.0  0.8246927966231692  0.7114439981416635  0.3716789445623045  1.0000
  H   H14       1.0  0.8255705665701646  0.892493802690113  0.7341890869362677  1.0000
  H   H15       1.0  0.8248610225210227  0.45511286525096273  0.6137012768655175  1.0000
  H   H16       1.0  0.8072895188579589  0.020729064805352415  0.16949430502778573  1.0000
  H   H17       1.0  0.739500914226915  0.9310297889015723  0.016044989505252565  1.0000
  H   H18       1.0  0.7080635061284113  0.9202628724819111  0.7865200107243457  1.0000
  H   H19       1.0  0.7871829247050606  0.8178763634963769  0.6342375987388413  1.0000
  H   H20       1.0  0.899004594903327  0.726054478607291  0.7129882360162667  1.0000
  H   H21       1.0  0.9325040576583061  0.7370364387334641  0.9419366366784748  1.0000
  C   C29       1.0  0.8258371306147658  0.4054165526457494  0.17974476814683116  1.0000
  C   C30       1.0  0.7605398470820004  0.3479440079516043  0.18355610998913363  1.0000
  C   C31       1.0  0.727309446370957  0.3202852449017666  0.06830981160964543  1.0000
  C   C32       1.0  0.7607335607762644  0.34810398211085863  0.9483002532002062  1.0000
  C   C33       1.0  0.8259445320013074  0.4056556164301261  0.942477727761224  1.0000
  C   C34       1.0  0.8580636013692844  0.43423649277688237  0.05874238862683612  1.0000
  C   C35       1.0  0.6587067028153735  0.25825684089180356  0.07466229571620685  1.0000
  O   O2        1.0  0.6446421059651471  0.17931207161084006  0.17065052053582952  1.0000
  C   C36       1.0  0.6060622576979319  0.2857802518528006  0.9721931474376152  1.0000
  C   C37       1.0  0.6007927533464155  0.4092471884472859  0.9044226873386592  1.0000
  C   C38       1.0  0.5504539496184545  0.43435643474759184  0.809152859564767  1.0000
  C   C39       1.0  0.5041728221512217  0.33754975122724135  0.7804574212511158  1.0000
  C   C40       1.0  0.5087190447679925  0.21428973019902076  0.8491521659487192  1.0000
  C   C41       1.0  0.5590516647720528  0.18905340214130129  0.9444944097020214  1.0000
  O   O3        1.0  0.45466566180335694  0.36762348928525024  0.6838933059358347  1.0000
  C   C42       1.0  0.4045038906122565  0.27879137441460405  0.6449087982380978  1.0000
  H   H22       1.0  0.9491703928663149  0.5133736412516725  0.37985975332309185  1.0000
  H   H23       1.0  0.7350706764784597  0.32567427578526664  0.27629450065365296  1.0000
  H   H24       1.0  0.7361428312009329  0.32347893962068675  0.8594424517994992  1.0000
  H   H25       1.0  0.9083692888214191  0.4786292034856303  0.054983515008366624  1.0000
  H   H26       1.0  0.8510761477635067  0.4272486879664088  0.6128068074150339  1.0000
  H   H27       1.0  0.6350870992093935  0.486862272021366  0.9259869127182885  1.0000
  H   H28       1.0  0.4736347613740744  0.1373750159069684  0.8296914947723453  1.0000
  H   H29       1.0  0.5616452923519226  0.09336654308518509  0.9958929442324171  1.0000
  H   H30       1.0  0.3722054512399634  0.32808211872184656  0.5671091123558574  1.0000
  H   H31       1.0  0.3709135994137576  0.24719987476644834  0.7287272223448542  1.0000
  H   H32       1.0  0.43012923535914793  0.19299995593227395  0.6060130521285466  1.0000
  Zn  Zn1       1.0  0.7505270842459203  0.40693028528270675  0.5617390465297516  1.0000
  Zn  Zn2       1.0  0.9012479824488253  0.40414139445040886  0.5604828906980388  1.0000
  C   C43       1.0  0.8259218661500527  0.4004369154494598  0.7983032298166723  1.0000
  C   C44       1.0  0.8258548466901737  0.4106363724485793  0.32391882167769936  1.0000
  C   C45       1.0  0.825924194355731  0.6427208673832966  0.556011130677611  1.0000
  C   C46       1.0  0.8258524668161513  0.1683508612236193  0.5662109899902201  1.0000
  O   O4        1.0  0.8830585868473331  0.4113241565185537  0.371828244705777  1.0000
  O   O5        1.0  0.8831118000766114  0.39763144795255334  0.7494400394243654  1.0000
  O   O6        1.0  0.8831129092686297  0.5932788179285013  0.5537874619660539  1.0000
  O   O7        1.0  0.8830574262122461  0.2156767967537385  0.567480725221623  1.0000
  O   O8        1.0  0.7687175890488533  0.5953948839325005  0.5547412124280016  1.0000
  O   O9        1.0  0.7687164800915333  0.39974907420079825  0.750393721134688  1.0000
  O   O10       1.0  0.7686632666809776  0.4134417370216765  0.37278036501072487  1.0000
  O   O11       1.0  0.7686621060553134  0.21779436799885166  0.5684329428908705  1.0000
