data_image0
_chemical_formula_structural       NC12NC2H8C12ClH9C15H12Zn2C4O8
_chemical_formula_sum              "N2 C45 H29 Cl1 Zn2 O8"
_cell_length_a       17.80743265337812
_cell_length_b       10.299768534541528
_cell_length_c       10.299157797200024
_cell_angle_alpha    85.54593967103357
_cell_angle_beta     91.55653286904399
_cell_angle_gamma    89.45366305101135

_space_group_name_H-M_alt    "P 1"
_space_group_IT_number       1

loop_
  _space_group_symop_operation_xyz
  'x, y, z'

loop_
  _atom_site_type_symbol
  _atom_site_label
  _atom_site_symmetry_multiplicity
  _atom_site_fract_x
  _atom_site_fract_y
  _atom_site_fract_z
  _atom_site_occupancy
  N   N1        1.0  0.7073536223464735  0.4070236386757382  0.60132750848808  1.0000
  C   C1        1.0  0.6565231097441896  0.4365996279241675  0.5326264871452935  1.0000
  C   C2        1.0  0.5932849389222372  0.47339001076139686  0.4471710649664576  1.0000
  C   C3        1.0  0.6049918131208932  0.5274423824708714  0.32054707982272257  1.0000
  C   C4        1.0  0.5436612816770928  0.5627285816628309  0.23748769458011013  1.0000
  C   C5        1.0  0.4704694663777252  0.5442260390013294  0.2803923693228356  1.0000
  C   C6        1.0  0.4577859071576899  0.4900547462070672  0.40748451695681864  1.0000
  C   C7        1.0  0.5199737514085778  0.45477180509343856  0.49052738975698196  1.0000
  C   C8        1.0  0.3800263526721949  0.47043735967995864  0.4532495863549335  1.0000
  C   C9        1.0  0.36127566216097495  0.4975910364039944  0.580302576231813  1.0000
  C   C10       1.0  0.2880539181622264  0.47913005621317006  0.6232478184283601  1.0000
  C   C11       1.0  0.2326400483269608  0.4332609175693442  0.5399780726344974  1.0000
  C   C12       1.0  0.15728193184692332  0.4142467624106798  0.5843242911755346  1.0000
  N   N2        1.0  0.09669934275969791  0.3989606604727478  0.6199756001573433  1.0000
  C   C13       1.0  0.2506993443084106  0.4059381924352676  0.4134680737248307  1.0000
  C   C14       1.0  0.3238681748173273  0.42441402292526703  0.3702669308870812  1.0000
  H   H1        1.0  0.6614519716986927  0.5422747109075549  0.2861089470642624  1.0000
  H   H2        1.0  0.5528436922992594  0.6048499535844949  0.1397053950873628  1.0000
  H   H3        1.0  0.42381986195447935  0.5738778467062138  0.21479947324873264  1.0000
  H   H4        1.0  0.511489444579524  0.4112651733656018  0.5881851623037824  1.0000
  H   H5        1.0  0.40297444491055323  0.5347531989460392  0.6458813791055786  1.0000
  H   H6        1.0  0.2746379179543271  0.5009504584929767  0.721263404335966  1.0000
  H   H7        1.0  0.2082840095339792  0.37004319139476544  0.3483023166426775  1.0000
  H   H8        1.0  0.33675557661586875  0.40105801541692054  0.27255461518578694  1.0000
  C   C15       1.0  0.9019592212298837  0.02162816012659174  0.6106461909194301  1.0000
  C   C16       1.0  0.9068761063424653  0.031131253420838785  0.4744048150284134  1.0000
  C   C17       1.0  0.909439757186199  0.9188056813047341  0.4053810749580986  1.0000
  C   C18       1.0  0.9070195955482429  0.7958405600010151  0.47442717842462684  1.0000
  C   C19       1.0  0.9021009430751842  0.7843459742873277  0.6106684076130813  1.0000
  C   C20       1.0  0.8995988539056757  0.8977965263218509  0.6780149885635709  1.0000
  C   C21       1.0  0.9146424106387467  0.929912808915905  0.261249104744528  1.0000
  C   C22       1.0  0.8718857777468435  0.02435973361949584  0.1847330991551588  1.0000
  C   C23       1.0  0.8768496025048578  0.0346168952131245  0.04908318409078505  1.0000
  C   C24       1.0  0.9244971248531798  0.9509512635128762  0.9882538249591102  1.0000
  C   C25       1.0  0.9672411017792165  0.8568172796299518  0.06325791584788343  1.0000
  C   C26       1.0  0.9624106942163312  0.846165099651659  0.1989288651592163  1.0000
  Cl  Cl1       1.0  0.9306412715677955  0.9640681753435808  0.8180531773601626  1.0000
  H   H9        1.0  0.900047097941122  0.34546156330642663  0.6625557621925069  1.0000
  H   H10       1.0  0.9097605294427747  0.126099042837573  0.42180730622846996  1.0000
  H   H11       1.0  0.9079433933303818  0.7090028578706391  0.4215221960798359  1.0000
  H   H12       1.0  0.8958049425285469  0.8896971543395901  0.7831189020464585  1.0000
  H   H13       1.0  0.9002566198092375  0.45251163230946306  0.6625890276625481  1.0000
  H   H14       1.0  0.833911427743245  0.08910863101847077  0.22966047416329283  1.0000
  H   H15       1.0  0.8434810026855442  0.1074379693502636  0.991369939105057  1.0000
  H   H16       1.0  0.004377229689459532  0.7920396114034496  0.016600817110870247  1.0000
  H   H17       1.0  0.9967322749793176  0.773618028741845  0.25519336179876917  1.0000
  C   C27       1.0  0.9019429940149174  0.403095141852331  0.22926112595438794  1.0000
  C   C28       1.0  0.8236892196330013  0.3867365051137401  0.22568788960963193  1.0000
  C   C29       1.0  0.7841730856017216  0.3783298796545427  0.10674153273185594  1.0000
  C   C30       1.0  0.8239123976484768  0.3865231535613832  0.9904312800500389  1.0000
  C   C31       1.0  0.9021171357982362  0.4028790111091949  0.9920534844577609  1.0000
  C   C32       1.0  0.9406757674161405  0.4110637356907025  0.11197682017017298  1.0000
  C   C33       1.0  0.7014413225776215  0.3610404931689628  0.10401012030565715  1.0000
  C   C34       1.0  0.6676210636088757  0.274762704140012  0.021281462471053787  1.0000
  C   C35       1.0  0.58976702572432  0.2585857146793389  0.01874335077435818  1.0000
  C   C36       1.0  0.5443464547183456  0.3277061641862675  0.09939936006692962  1.0000
  C   C37       1.0  0.5777648139566163  0.41483781496616245  0.18113207040625956  1.0000
  C   C38       1.0  0.6556180951443965  0.43101901841244517  0.18381809667278937  1.0000
  C   C39       1.0  0.46047607763519893  0.312628041322943  0.09431901623221361  1.0000
  C   C40       1.0  0.42670638788505194  0.4070938927872802  0.9952925849246311  1.0000
  C   C41       1.0  0.39895274462850977  0.484772784797137  0.9138661646606984  1.0000
  H   H18       1.0  0.04970251279494087  0.43317527863098565  0.44336292276473793  1.0000
  H   H19       1.0  0.7934697006255984  0.37873754648389  0.31577805813100546  1.0000
  H   H20       1.0  0.7935853964383258  0.38191321435525355  0.8983463311403757  1.0000
  H   H21       1.0  0.0009974481051764328  0.4236757224344967  0.1139438092261593  1.0000
  H   H22       1.0  0.9322003764810813  0.4091285219737748  0.6652052208186134  1.0000
  H   H23       1.0  0.7014690809327391  0.21869668995970093  0.9595294260015641  1.0000
  H   H24       1.0  0.5648815867578127  0.19194602688279638  0.9539909468259182  1.0000
  H   H25       1.0  0.5434780121726116  0.47060374038299985  0.24251808536562436  1.0000
  H   H26       1.0  0.6798911677163845  0.4997785947774369  0.2468999726684116  1.0000
  H   H27       1.0  0.4454636991121553  0.21269972052363537  0.07015269714275285  1.0000
  H   H28       1.0  0.4365645445348755  0.328568008045093  0.19039538352573615  1.0000
  H   H29       1.0  0.3746084770456272  0.5529717437151669  0.8423822008354934  1.0000
  Zn  Zn1       1.0  0.8197103913313437  0.40469336798032496  0.6067164322896372  1.0000
  Zn  Zn2       1.0  0.9843425717315398  0.40128033484640374  0.6145972698554052  1.0000
  C   C42       1.0  0.90208160260966  0.39774630881841255  0.8478691908248657  1.0000
  C   C43       1.0  0.9019731585650749  0.4082289953001094  0.3734447249020741  1.0000
  C   C44       1.0  0.9020690996690881  0.640177653786014  0.6054885177870146  1.0000
  C   C45       1.0  0.9019856050540979  0.16579609119537506  0.6158254644487882  1.0000
  O   O1        1.0  0.9644603354850297  0.40865106946114466  0.4248247944618708  1.0000
  O   O2        1.0  0.9645464410167061  0.3947328418771914  0.8024701207259454  1.0000
  O   O3        1.0  0.9645355028218495  0.5904992359790389  0.6067459720866728  1.0000
  O   O4        1.0  0.9644712174815664  0.21288468584162376  0.6205488430305848  1.0000
  O   O5        1.0  0.8395816894004327  0.5930890181512214  0.600764856418283  1.0000
  O   O6        1.0  0.8395926278659531  0.3973241843526234  0.7964889358525182  1.0000
  O   O7        1.0  0.839506522019294  0.41124236712255735  0.418842048077134  1.0000
  O   O8        1.0  0.839517404033266  0.21547597418682685  0.614566194020232  1.0000
