data_image0
_chemical_formula_structural       NC8NH4C10H6C6ClH4Zn2C4O8
_chemical_formula_sum              "N2 C28 H14 Cl1 Zn2 O8"
_cell_length_a       13.859017981522156
_cell_length_b       9.275150299802176
_cell_length_c       9.276548810779733
_cell_angle_alpha    85.75527424230437
_cell_angle_beta     89.72476127004172
_cell_angle_gamma    89.4839203727508

_space_group_name_H-M_alt    "P 1"
_space_group_IT_number       1

loop_
  _space_group_symop_operation_xyz
  'x, y, z'

loop_
  _atom_site_type_symbol
  _atom_site_label
  _atom_site_symmetry_multiplicity
  _atom_site_fract_x
  _atom_site_fract_y
  _atom_site_fract_z
  _atom_site_occupancy
  N   N1        1.0  0.9042980801148205  0.5644662997821422  0.401686429865888  1.0000
  C   C1        1.0  0.8321862173038816  0.5568725547502562  0.3404369580733302  1.0000
  C   C2        1.0  0.742483300902343  0.5474273017390194  0.26425058287439884  1.0000
  C   C3        1.0  0.7428895779824896  0.5290081578231955  0.11568341614486144  1.0000
  C   C4        1.0  0.6557501261379763  0.5198364521158025  0.041696649709882065  1.0000
  C   C5        1.0  0.5680242924856502  0.5290098787357531  0.11568315817884067  1.0000
  C   C6        1.0  0.5672530587609084  0.5474282737958982  0.2642503936392151  1.0000
  C   C7        1.0  0.6545739191013249  0.5566357980275205  0.3385228455819518  1.0000
  C   C8        1.0  0.4769463958881057  0.556873456744446  0.3404367126197674  1.0000
  N   N2        1.0  0.40434916287011763  0.5644666125613305  0.40168633452185043  1.0000
  H   H1        1.0  0.8104167214968263  0.5217600972167791  0.0572238050513294  1.0000
  H   H2        1.0  0.6562048639107569  0.5056087150069581  0.9269349045699329  1.0000
  H   H3        1.0  0.5009604345147468  0.5217631926077106  0.05722336769997227  1.0000
  H   H4        1.0  0.654118250246314  0.5708922356327921  0.4535179102335763  1.0000
  C   C9        1.0  0.15686625057251696  0.1407829580019726  0.4040986274055134  1.0000
  C   C10       1.0  0.20796494051648298  0.2218399625262637  0.2950863297560021  1.0000
  C   C11       1.0  0.25080677828113873  0.15464476988135978  0.18053417164933094  1.0000
  C   C12       1.0  0.2429856779016233  0.0054132134347970595  0.1735188272642465  1.0000
  C   C13       1.0  0.19399565044928613  0.9229064583091813  0.28188353606759553  1.0000
  C   C14       1.0  0.15179022939182923  0.9881389632110918  0.3992866568563864  1.0000
  C   C15       1.0  0.30192533566724766  0.23942115980679568  0.06902941900814775  1.0000
  C   C16       1.0  0.34472447084080343  0.3104240114511332  0.9756767003423317  1.0000
  C   C17       1.0  0.39484027289852724  0.39357332961199787  0.8663647380976078  1.0000
  C   C18       1.0  0.4376311561875442  0.4645708624520677  0.7730299144917971  1.0000
  H   H5        1.0  0.11036448584598668  0.40519537595152705  0.6329112493355376  1.0000
  H   H6        1.0  0.21259368369293768  0.33830864948806516  0.2973123203663932  1.0000
  H   H7        1.0  0.2756201358997914  0.9524589634268641  0.08487952512158592  1.0000
  H   H8        1.0  0.19106512788496446  0.806849609965846  0.27566261533976477  1.0000
  H   H9        1.0  0.08797327617114203  0.8607931735256924  0.7416397098855718  1.0000
  H   H10       1.0  0.4752051210083164  0.5269127253418653  0.6910742304007189  1.0000
  C   C19       1.0  0.155711431871576  0.5605956556789891  0.9785652361982753  1.0000
  C   C20       1.0  0.23632190409537307  0.6154405665100392  0.04736023731808792  1.0000
  C   C21       1.0  0.3114562340128775  0.6810388351980313  0.9667552292944301  1.0000
  C   C22       1.0  0.30710627935826795  0.6928963442474432  0.8162483675942731  1.0000
  C   C23       1.0  0.2286042811324378  0.6370393939038469  0.7458100068970706  1.0000
  C   C24       1.0  0.1529450538377244  0.5683262347126411  0.8248200735200691  1.0000
  Cl  Cl1       1.0  0.41065344335810755  0.7505096961479452  0.05486516273893227  1.0000
  H   H11       1.0  0.03960754858298499  0.39910648093074985  0.2724844684391192  1.0000
  H   H12       1.0  0.36505565054205436  0.744221846812627  0.7534676321683578  1.0000
  H   H13       1.0  0.22820541721402798  0.6445676442223424  0.6287189643039164  1.0000
  H   H14       1.0  0.9982673179498144  0.5154303070601924  0.5485243937938775  1.0000
  Zn  Zn1       1.0  0.048602022784161036  0.5644626132795034  0.4016947412360694  1.0000
  Zn  Zn2       1.0  0.26004525488287494  0.5644586349863565  0.40168987932805034  1.0000
  C   C25       1.0  0.1535002552738723  0.5611173143938093  0.6648924038453501  1.0000
  C   C26       1.0  0.1551493199792855  0.5678057555525398  0.13849234775134311  1.0000
  C   C27       1.0  0.1527635329500443  0.8279182105996477  0.3944543836147034  1.0000
  C   C28       1.0  0.1558859802850876  0.30100312662444506  0.4089304546474504  1.0000
  O   O1        1.0  0.23520231243486034  0.570217726812008  0.19216353801661426  1.0000
  O   O2        1.0  0.23392779139385866  0.5587012314855735  0.6112171149045674  1.0000
  O   O3        1.0  0.23333179220737033  0.774146343036614  0.39283649168006973  1.0000
  O   O4        1.0  0.23579823976143577  0.35477262459641135  0.41054405314732545  1.0000
  O   O5        1.0  0.07284896575041788  0.7741486236723074  0.3928405674108655  1.0000
  O   O6        1.0  0.07344495479975  0.5587052448463825  0.6112211039639732  1.0000
  O   O7        1.0  0.07471948186910904  0.5702216740701038  0.19216579499323672  1.0000
  O   O8        1.0  0.07531540890041512  0.3547765625219228  0.41054641821180593  1.0000
