data_image0
_chemical_formula_structural       NC9NC5H8C6NO2H5C7OCH10Zn2C4O8
_chemical_formula_sum              "N3 C32 H23 O11 Zn2"
_cell_length_a       17.807436237873137
_cell_length_b       9.273392599741051
_cell_length_c       10.300835455316063
_cell_angle_alpha    85.69422618191317
_cell_angle_beta     89.41013499251636
_cell_angle_gamma    87.79638846343423

_space_group_name_H-M_alt    "P 1"
_space_group_IT_number       1

loop_
  _space_group_symop_operation_xyz
  'x, y, z'

loop_
  _atom_site_type_symbol
  _atom_site_label
  _atom_site_symmetry_multiplicity
  _atom_site_fract_x
  _atom_site_fract_y
  _atom_site_fract_z
  _atom_site_occupancy
  N   N1        1.0  0.6988195629228459  0.5413517388388727  0.5604445102969304  1.0000
  C   C1        1.0  0.6384414477585905  0.5022588215354162  0.549343117094647  1.0000
  C   C2        1.0  0.5633377085619024  0.4536315375441655  0.5355341894496626  1.0000
  C   C3        1.0  0.5456566262877026  0.37428064442580733  0.4303855368857729  1.0000
  C   C4        1.0  0.47273541923786966  0.32694342717905833  0.41689509209077635  1.0000
  C   C5        1.0  0.4164488378712966  0.35853771352687547  0.5085200051576062  1.0000
  C   C6        1.0  0.33895171691674336  0.3083581142411531  0.4942654768453949  1.0000
  C   C7        1.0  0.27628889003156026  0.3991826087711774  0.5203843427805634  1.0000
  C   C8        1.0  0.2032266001165526  0.35161984639800703  0.5069071214018219  1.0000
  C   C9        1.0  0.1394975822018069  0.4454341290504269  0.5333958819129325  1.0000
  N   N2        1.0  0.0882724750553883  0.5208543220493129  0.5546921058608203  1.0000
  C   C10       1.0  0.19224513731824797  0.2129460045868563  0.4672851086851721  1.0000
  C   C11       1.0  0.2540506760979385  0.12210612056946137  0.44115782311387686  1.0000
  C   C12       1.0  0.3269958679352261  0.1692305660818008  0.4544316483709782  1.0000
  C   C13       1.0  0.4348183940617396  0.43843781874962945  0.6138889668921985  1.0000
  C   C14       1.0  0.5077935884586489  0.48556350640426027  0.6272233550068105  1.0000
  H   H1        1.0  0.5881738842924042  0.3492899786708357  0.358632212846282  1.0000
  H   H2        1.0  0.4601306043111918  0.26729513228293356  0.3338655811784814  1.0000
  H   H3        1.0  0.28420604508873737  0.5074578397943984  0.5494761809796762  1.0000
  H   H4        1.0  0.1359826739852946  0.175134747799913  0.45661528555544456  1.0000
  H   H5        1.0  0.24543003739055516  0.01474169574695638  0.4108675804934128  1.0000
  H   H6        1.0  0.37402822665292734  0.09619348094872329  0.4352382955199771  1.0000
  H   H7        1.0  0.3930214838960732  0.46282990314562167  0.6869354003597017  1.0000
  H   H8        1.0  0.520919236544933  0.5465675207941445  0.7092141230870721  1.0000
  C   C15       1.0  0.8958402685515396  0.10745347316196541  0.5567179119550132  1.0000
  C   C16       1.0  0.8862494046806786  0.1912698427278806  0.43824522428381857  1.0000
  C   C17       1.0  0.8700275418766064  0.1269943197685215  0.3241744720419113  1.0000
  C   C18       1.0  0.8628596338907033  0.9769558637505334  0.32539579747332903  1.0000
  C   C19       1.0  0.8736225386755682  0.8919091741764427  0.4429457026947658  1.0000
  C   C20       1.0  0.8912590103562876  0.9547411115275416  0.5584298200507645  1.0000
  N   N3        1.0  0.8454677430710379  0.9113233785077621  0.20753486649270703  1.0000
  O   O1        1.0  0.8355868808875505  0.994907711261036  0.0924024547541018  1.0000
  O   O2        1.0  0.8388502364523104  0.7777384760437686  0.20783990678804917  1.0000
  H   H9        1.0  0.8805934132232948  0.18482994492011987  0.8756348655108532  1.0000
  H   H10       1.0  0.8895338807908064  0.30793822406706406  0.43436034427460085  1.0000
  H   H11       1.0  0.8623331367677514  0.19529027616823558  0.23504430577920088  1.0000
  H   H12       1.0  0.8699929788441114  0.7754983251663152  0.44392360700104394  1.0000
  H   H13       1.0  0.8835537781281462  0.6571250650578201  0.7739284896378187  1.0000
  C   C21       1.0  0.8934817539637201  0.5310272965209222  0.17625820011648008  1.0000
  C   C22       1.0  0.9620574090972935  0.6012054314856485  0.1694521710926129  1.0000
  C   C23       1.0  0.9961521386276201  0.6381021674356131  0.04881049030823581  1.0000
  C   C24       1.0  0.9622358530779  0.6013876932767998  0.9341511224885575  1.0000
  C   C25       1.0  0.8936175375911055  0.5311673031536748  0.9388895840575806  1.0000
  C   C26       1.0  0.8595579731881767  0.496713491910566  0.060371384410122575  1.0000
  C   C27       1.0  0.07059317690240308  0.7093580313770687  0.04289163387437789  1.0000
  O   O3        1.0  0.12859305680690425  0.601034248678993  0.04933867328554719  1.0000
  C   C28       1.0  0.19880656536439176  0.666561994367928  0.04389607491580705  1.0000
  H   H14       1.0  0.8676445847157142  0.5026321085257677  0.5063584536085719  1.0000
  H   H15       1.0  0.9892402689899285  0.6274294728182642  0.2578428585152137  1.0000
  H   H16       1.0  0.9895410951393678  0.6277381778716615  0.8413654304758893  1.0000
  H   H17       1.0  0.8066731255381597  0.44257796053536175  0.06485807782984998  1.0000
  H   H18       1.0  0.7645991866534049  0.3972424523816191  0.7406692941631441  1.0000
  H   H19       1.0  0.07418918870051705  0.77956668876644  0.12565780837763874  1.0000
  H   H20       1.0  0.07436319001500857  0.7795795293356302  0.9505412331012506  1.0000
  H   H21       1.0  0.243779275906749  0.580213533935849  0.049046338961354026  1.0000
  H   H22       1.0  0.20604607310347298  0.7331492628502358  0.12806202775513387  1.0000
  H   H23       1.0  0.20622923712655616  0.7331997821783075  0.9505484230823199  1.0000
  Zn  Zn1       1.0  0.8112072816763074  0.5354327790357836  0.5587919926015634  1.0000
  Zn  Zn2       1.0  0.9758848035901592  0.5267615240021853  0.5563552749172238  1.0000
  C   C29       1.0  0.8936212573614691  0.5253936837469555  0.7947243149158506  1.0000
  C   C30       1.0  0.8934726163588759  0.5368023449097272  0.32042305712058017  1.0000
  C   C31       1.0  0.8921201747989901  0.7945849928924282  0.552931863219954  1.0000
  C   C32       1.0  0.8949736521125768  0.26760930545032857  0.5622155753748383  1.0000
  O   O4        1.0  0.9559638450682015  0.5354435139362461  0.367881365714537  1.0000
  O   O5        1.0  0.9561164632243513  0.5201701443810476  0.7454162179884611  1.0000
  O   O6        1.0  0.9549034778592048  0.7375455755128315  0.5501671180190453  1.0000
  O   O7        1.0  0.957176774166931  0.3180680960656803  0.5631303691752161  1.0000
  O   O8        1.0  0.8299152549031699  0.7441262099329318  0.5520168991682763  1.0000
  O   O9        1.0  0.8311282308807284  0.5267525120757164  0.7472659334040361  1.0000
  O   O10       1.0  0.8309756127684528  0.5420258310683692  0.3697295198450652  1.0000
  O   O11       1.0  0.832188541937233  0.3246504028972286  0.5649786206391862  1.0000
