data_image0
_chemical_formula_structural       NC9NC4H8C8H6C12H10Zn2C4O8
_chemical_formula_sum              "N2 C37 H24 Zn2 O8"
_cell_length_a       16.32274767691083
_cell_length_b       9.27514070457351
_cell_length_c       10.299141136925908
_cell_angle_alpha    85.68100498211918
_cell_angle_beta     89.48989962439883
_cell_angle_gamma    90.11802364943966

_space_group_name_H-M_alt    "P 1"
_space_group_IT_number       1

loop_
  _space_group_symop_operation_xyz
  'x, y, z'

loop_
  _atom_site_type_symbol
  _atom_site_label
  _atom_site_symmetry_multiplicity
  _atom_site_fract_x
  _atom_site_fract_y
  _atom_site_fract_z
  _atom_site_occupancy
  N   N1        1.0  0.7803453634402842  0.5681074916133727  0.5600438904176332  1.0000
  C   C1        1.0  0.7276958035014097  0.5154556372400336  0.5056383072688937  1.0000
  C   C2        1.0  0.6622521592959397  0.4500616241954252  0.4380661379777275  1.0000
  C   C3        1.0  0.673271449923092  0.36061428551432523  0.3456351426635518  1.0000
  C   C4        1.0  0.593645505242572  0.3169635087167195  0.3005318824037557  1.0000
  C   C5        1.0  0.5350934756164532  0.3808454119033857  0.3665469601837166  1.0000
  C   C6        1.0  0.4450552965035913  0.3639619979847116  0.34910329710341825  1.0000
  C   C7        1.0  0.389903450668274  0.4384204841242385  0.42604073982870916  1.0000
  C   C8        1.0  0.30510887840873385  0.42399110730258777  0.41113228047392125  1.0000
  C   C9        1.0  0.2495587586634284  0.5007385844847001  0.49043415406895696  1.0000
  N   N2        1.0  0.2049153284099472  0.5624309271657506  0.5541794299000069  1.0000
  C   C10       1.0  0.2744123956154655  0.33498282189482564  0.31916257415488336  1.0000
  C   C11       1.0  0.32824291135676276  0.26062296135450413  0.24232738200064308  1.0000
  C   C12       1.0  0.412876369541033  0.27466367750731546  0.2568341197530457  1.0000
  C   C13       1.0  0.5734030341975678  0.4739922811370958  0.46279827014314723  1.0000
  H   H1        1.0  0.7319715518393698  0.3258324341486585  0.30969082929859026  1.0000
  H   H2        1.0  0.5849142897490693  0.24385831035108607  0.2249879603924334  1.0000
  H   H3        1.0  0.4124302179054912  0.5079064560859179  0.49783870678081343  1.0000
  H   H4        1.0  0.2089497600839189  0.3230960045604059  0.30688132057270767  1.0000
  H   H5        1.0  0.3043238526956452  0.1917667544459607  0.17118039146178132  1.0000
  H   H6        1.0  0.452302940501545  0.21518057548021785  0.19537130627123744  1.0000
  H   H7        1.0  0.5564252825336015  0.43538664573030017  0.5642258708701815  1.0000
  H   H8        1.0  0.5572969808611649  0.5895338253927958  0.44087294956995504  1.0000
  C   C14       1.0  0.9901454054391388  0.14186191816920424  0.5562377178442042  1.0000
  C   C15       1.0  0.0018150358896140677  0.22518013168639775  0.43760467026267524  1.0000
  C   C16       1.0  0.02063017981790405  0.15964505195858353  0.32352776116478577  1.0000
  C   C17       1.0  0.028225924488071374  0.009612904565826417  0.32589185091758033  1.0000
  C   C18       1.0  0.015506555683327143  0.9247284687400629  0.44241086717429856  1.0000
  C   C19       1.0  0.9951230536920668  0.9886652554789116  0.5579967408934488  1.0000
  C   C20       1.0  0.04815789257553149  0.9423129878312216  0.20816929135902207  1.0000
  C   C21       1.0  0.06484661849297191  0.8859508256548626  0.10961024336837921  1.0000
  H   H9        1.0  0.0036221269374374647  0.2180998790823474  0.8751709644738815  1.0000
  H   H10       1.0  0.9982913529904974  0.34205320438926734  0.4336753258372119  1.0000
  H   H11       1.0  0.03005646414545768  0.22628447054168513  0.23361345440677292  1.0000
  H   H12       1.0  0.019636308963806085  0.8080660651402236  0.44219338765571115  1.0000
  H   H13       1.0  0.0010525474746456679  0.6900009885709246  0.7729245786152512  1.0000
  H   H14       1.0  0.07949573791627462  0.8364749902096443  0.023096097986318842  1.0000
  C   C22       1.0  0.9925418447905153  0.565387883234808  0.17572575558284265  1.0000
  C   C23       1.0  0.07820536366602293  0.5797720473275991  0.17276077701740733  1.0000
  C   C24       1.0  0.12173531384514202  0.5869376816334064  0.054122110381034094  1.0000
  C   C25       1.0  0.07844383740795902  0.5795250213261771  0.9374912521967218  1.0000
  C   C26       1.0  0.9927266591006684  0.5651392833460058  0.9385086999244295  1.0000
  C   C27       1.0  0.9503034465246115  0.5581569167656046  0.05806474024827746  1.0000
  C   C28       1.0  0.2123587083936942  0.6021564962774668  0.052030228776650755  1.0000
  C   C29       1.0  0.26065074634010266  0.5226605161886789  0.9689696241440847  1.0000
  C   C30       1.0  0.34594461493164697  0.5371646761751472  0.9672390337346339  1.0000
  C   C31       1.0  0.3839295702225083  0.6309648970735101  0.04807599456216716  1.0000
  C   C32       1.0  0.33669751986246244  0.7104562697231405  0.13087729772846002  1.0000
  C   C33       1.0  0.25138430850813376  0.6963138920456693  0.13307875197364383  1.0000
  H   H15       1.0  0.9595861870830106  0.5599282494599394  0.5043371192433519  1.0000
  H   H16       1.0  0.11137964879373108  0.5834447906692883  0.2630638233525928  1.0000
  H   H17       1.0  0.11157688002526411  0.5869779728241229  0.845624803290236  1.0000
  H   H18       1.0  0.8842290232719503  0.5470660911779938  0.05963579300922795  1.0000
  H   H19       1.0  0.8308921065539833  0.5389023306173273  0.7330764175969882  1.0000
  H   H20       1.0  0.232554641752991  0.44798144883223734  0.9066843539800971  1.0000
  H   H21       1.0  0.38263010112510876  0.47531795577019836  0.9033712719652489  1.0000
  H   H22       1.0  0.44996011295417326  0.6420518820820051  0.04655433120047814  1.0000
  H   H23       1.0  0.3661906231387488  0.783414683247071  0.1932198092613311  1.0000
  H   H24       1.0  0.21589295946896603  0.7603154849050926  0.19683057958497033  1.0000
  Zn  Zn1       1.0  0.9028670693913419  0.5664654854971098  0.5583590261853388  1.0000
  Zn  Zn2       1.0  0.08239356166005218  0.5640610981254417  0.5558749093642525  1.0000
  C   C34       1.0  0.9926561123243391  0.5594423296578096  0.7943144596987926  1.0000
  C   C35       1.0  0.9926064898755104  0.5710860469119778  0.3199195799772625  1.0000
  C   C36       1.0  0.9941767179779081  0.8286031410429442  0.5524888019884293  1.0000
  C   C37       1.0  0.9910858127961195  0.30192350402999657  0.561745304179661  1.0000
  O   O1        1.0  0.06075751658695273  0.5720796599423456  0.3673696222171272  1.0000
  O   O2        1.0  0.06076153280020291  0.5566227546506171  0.7449786541427219  1.0000
  O   O3        1.0  0.0619885230068311  0.7739735257073423  0.5497027404074797  1.0000
  O   O4        1.0  0.05953046515713223  0.3547289000520953  0.5626454394410316  1.0000
  O   O5        1.0  0.925730104630689  0.775797684392527  0.5515884969494387  1.0000
  O   O6        1.0  0.9245031245863093  0.5584486456547197  0.7468643450335253  1.0000
  O   O7        1.0  0.9244991077539156  0.5739055012100862  0.36925375150982864  1.0000
  O   O8        1.0  0.9232720562837146  0.3565547309754324  0.56452966608595  1.0000
