data_image0
_chemical_formula_structural       NC6NC2H4C6NH5C6ClH3Zn2C4O8
_chemical_formula_sum              "N3 C24 H12 Cl1 Zn2 O8"
_cell_length_a       14.927258858638513
_cell_length_b       9.274771166103582
_cell_length_c       9.276548810779733
_cell_angle_alpha    85.98017888068892
_cell_angle_beta     89.72476428372391
_cell_angle_gamma    90.59705168739299

_space_group_name_H-M_alt    "P 1"
_space_group_IT_number       1

loop_
  _space_group_symop_operation_xyz
  'x, y, z'

loop_
  _atom_site_type_symbol
  _atom_site_label
  _atom_site_symmetry_multiplicity
  _atom_site_fract_x
  _atom_site_fract_y
  _atom_site_fract_z
  _atom_site_occupancy
  N   N1        1.0  0.8584488748540982  0.564118046461067  0.4076937147684936  1.0000
  C   C1        1.0  0.7809223834706717  0.5641180180409329  0.4076937254048181  1.0000
  C   C2        1.0  0.6844898768182368  0.5641181327127344  0.40769367535554135  1.0000
  C   C3        1.0  0.637654493590321  0.5392649280635313  0.28110504935547875  1.0000
  C   C4        1.0  0.543943182803295  0.5392649524874795  0.28110491590732867  1.0000
  C   C5        1.0  0.4966738116212492  0.5641179552884115  0.4076936943014493  1.0000
  C   C6        1.0  0.4002412379773151  0.5641180699631234  0.40769364424624555  1.0000
  N   N2        1.0  0.32271474659388893  0.5641180415429892  0.40769365488256987  1.0000
  C   C7        1.0  0.5435091278576661  0.5889711599405252  0.5342823202955846  1.0000
  C   C8        1.0  0.6372204386446917  0.5889711355165768  0.5342824537437353  1.0000
  H   H1        1.0  0.6735195223067445  0.5199277324309972  0.18261183301315326  1.0000
  H   H2        1.0  0.5084158680904326  0.519927929972887  0.18261182771891973  1.0000
  H   H3        1.0  0.5076441657460653  0.6083083462396373  0.6327756446958599  1.0000
  H   H4        1.0  0.6727477536643621  0.6083082563887602  0.6327756517362844  1.0000
  C   C9        1.0  0.08783348331074553  0.140528655902874  0.4084791046787781  1.0000
  C   C10       1.0  0.06759601028775686  0.222660579432717  0.27962148593399894  1.0000
  C   C11       1.0  0.05572504513974155  0.15642689895385753  0.14994632074217118  1.0000
  C   C12       1.0  0.06414126499797335  0.006675243977821707  0.1481895249474603  1.0000
  C   C13       1.0  0.08272735551192878  0.9232077262500937  0.2752770168742307  1.0000
  C   C14       1.0  0.09333863110497537  0.9876964627459809  0.4069207986610164  1.0000
  N   N3        1.0  0.036042112933406784  0.24164538640478697  0.01967248203628325  1.0000
  H   H5        1.0  0.1877303063215896  0.22306902907549797  0.7238333367654148  1.0000
  H   H6        1.0  0.0554317519664973  0.9542768259227377  0.048417568257151704  1.0000
  H   H7        1.0  0.15698595815686475  0.6925896093860402  0.6214733335728371  1.0000
  H   H8        1.0  0.02987002399735883  0.35371886049687423  0.01962568103385065  1.0000
  H   H9        1.0  0.02741000459087095  0.19328581806011577  0.9222702280388312  1.0000
  C   C15       1.0  0.09182363289798984  0.5602480796296647  0.9845576913470357  1.0000
  C   C16       1.0  0.16732671889648998  0.6150807463294576  0.05356329394676741  1.0000
  C   C17       1.0  0.2378752220571259  0.6806643856643431  0.9732101769562315  1.0000
  C   C18       1.0  0.2339795478339881  0.6925192633510182  0.8227488446255621  1.0000
  C   C19       1.0  0.1604218431796578  0.6366747804632182  0.7520959967375405  1.0000
  C   C20       1.0  0.08934844491207367  0.567976943078929  0.8308422118421359  1.0000
  Cl  Cl1       1.0  0.3308112881299907  0.7501197393534158  0.06158687435797505  1.0000
  H   H10       1.0  0.9820811809117745  0.3987948692344989  0.27785682963343117  1.0000
  H   H11       1.0  0.28840079257916273  0.7438333202028363  0.7601651940771732  1.0000
  H   H12       1.0  0.9451020802987825  0.5150928803575169  0.5543434046585709  1.0000
  Zn  Zn1       1.0  0.9924259352545041  0.5641142559042001  0.4077020306789647  1.0000
  Zn  Zn2       1.0  0.18873758572627042  0.5641101248279843  0.4076971808891834  1.0000
  C   C21       1.0  0.0897769853969917  0.5607696240483315  0.6708868617494452  1.0000
  C   C22       1.0  0.09138869071431005  0.5674565779579279  0.14451248784638127  1.0000
  C   C23       1.0  0.09231021300756592  0.8275112424552993  0.4014732915749146  1.0000
  C   C24       1.0  0.08885538462982145  0.3007132272137285  0.41392613803313544  1.0000
  O   O1        1.0  0.16574192751791728  0.5698679551422596  0.1981929498624564  1.0000
  O   O2        1.0  0.16441974310090002  0.5583540194990835  0.6172023060614786  1.0000
  O   O3        1.0  0.16646434776584562  0.7737512634756103  0.3996489392657239  1.0000
  O   O4        1.0  0.16369725624814901  0.354470720499155  0.4157462086002606  1.0000
  O   O5        1.0  0.017466197741126125  0.7737536602359403  0.39965300296196055  1.0000
  O   O6        1.0  0.015421604558596433  0.5583581485995561  0.6172062897395643  1.0000
  O   O7        1.0  0.016743793775460647  0.5698720181547022  0.19819520120394096  1.0000
  O   O8        1.0  0.014699122119016476  0.3544747741810863  0.4157485679937683  1.0000
