data_image0
_chemical_formula_structural       NC6NCNCH5C6NCH9C6BrH4Zn2C4O8
_chemical_formula_sum              "N4 C25 H18 Br1 Zn2 O8"
_cell_length_a       14.933214217465613
_cell_length_b       9.273386996610927
_cell_length_c       9.27656775626242
_cell_angle_alpha    86.02760264675325
_cell_angle_beta     90.1519400802072
_cell_angle_gamma    89.43266693644959

_space_group_name_H-M_alt    "P 1"
_space_group_IT_number       1

loop_
  _space_group_symop_operation_xyz
  'x, y, z'

loop_
  _atom_site_type_symbol
  _atom_site_label
  _atom_site_symmetry_multiplicity
  _atom_site_fract_x
  _atom_site_fract_y
  _atom_site_fract_z
  _atom_site_occupancy
  N   N1        1.0  0.8298215138672979  0.5641302795907883  0.40720791547895113  1.0000
  C   C1        1.0  0.7523228133862047  0.5651176686743491  0.40621619068378223  1.0000
  C   C2        1.0  0.6559138492912404  0.5663486893583665  0.40497963264637055  1.0000
  C   C3        1.0  0.6089004702957697  0.47147877438160507  0.500285594766753  1.0000
  C   C4        1.0  0.51535787473749  0.4725515489600529  0.49920791923739105  1.0000
  C   C5        1.0  0.4679267688975549  0.5684398828688317  0.40287889425052675  1.0000
  C   C6        1.0  0.37136910018243274  0.5663508266333424  0.40497755914082934  1.0000
  N   N2        1.0  0.2938983559117058  0.5646080885449869  0.40672793627603143  1.0000
  C   C7        1.0  0.5150286731753296  0.6645077474303924  0.3063696056836638  1.0000
  N   N3        1.0  0.4688649919013466  0.7641725648155673  0.20624697650820045  1.0000
  C   C8        1.0  0.6090598091995976  0.6624778517634942  0.3084089486672041  1.0000
  H   H1        1.0  0.644537486933795  0.39668022622672194  0.5754278934419608  1.0000
  H   H2        1.0  0.47990850630584614  0.39838221659269685  0.5737179811343089  1.0000
  H   H3        1.0  0.504618801384703  0.8345654340014479  0.13553052201423466  1.0000
  H   H4        1.0  0.3990781822894419  0.7694755836556668  0.20091965566630554  1.0000
  H   H5        1.0  0.6456399933199457  0.7359009170223314  0.23464841811988088  1.0000
  C   C9        1.0  0.0646192750111485  0.140724954783207  0.4076731304944725  1.0000
  C   C10       1.0  0.08008768930267056  0.22293995664116184  0.27737746851779055  1.0000
  C   C11       1.0  0.08712469086423091  0.15716771082141043  0.14708247288935383  1.0000
  C   C12       1.0  0.07879706731409697  0.006825754289899739  0.1437518776126172  1.0000
  C   C13       1.0  0.06490583072100442  0.9236450274089816  0.27359334612336594  1.0000
  C   C14       1.0  0.05910923251927526  0.9880023859707379  0.4062752542699348  1.0000
  N   N4        1.0  0.08507181075169928  0.9359899423714535  0.010767751491701503  1.0000
  C   C15       1.0  0.09971424996958361  0.012523804421460621  0.8701459651895188  1.0000
  H   H6        1.0  0.08337682542012487  0.4052068445484327  0.6442104221309808  1.0000
  H   H7        1.0  0.0846515905162295  0.3395732276906942  0.27560501162158796  1.0000
  H   H8        1.0  0.09822601534088626  0.224822271318708  0.04919844860093581  1.0000
  H   H9        1.0  0.06067469071599362  0.8072173299284517  0.2713246871419017  1.0000
  H   H10       1.0  0.0927665794091781  0.8601137182119656  0.7571813649807819  1.0000
  H   H11       1.0  0.07874678014836102  0.8236455841641859  0.013762153818458689  1.0000
  H   H12       1.0  0.04415234083520092  0.09079486716740706  0.8451687665506584  1.0000
  H   H13       1.0  0.1645292275661716  0.07014455828087841  0.870311441523285  1.0000
  H   H14       1.0  0.10180476666723504  0.9342535592351103  0.7848431523778312  1.0000
  C   C16       1.0  0.06103647102511567  0.5602169452167913  0.983855150149358  1.0000
  C   C17       1.0  0.9812354482241555  0.5948649624989046  0.054490981732146386  1.0000
  C   C18       1.0  0.9053363888734037  0.64140041466175  0.9757912643776638  1.0000
  C   C19       1.0  0.9078122912305502  0.6542305060091638  0.8252716101156364  1.0000
  C   C20       1.0  0.9858679052605386  0.6180222725984339  0.7529131029006795  1.0000
  C   C21       1.0  0.06269208443638097  0.5685104605165663  0.8300932246076553  1.0000
  Br  Br1       1.0  0.8039230951694849  0.7190817703256365  0.7180212130138308  1.0000
  H   H15       1.0  0.1850779644811843  0.4293094071115845  0.27477813075868474  1.0000
  H   H16       1.0  0.8447863259935212  0.6688438672039401  0.032125704931559966  1.0000
  H   H17       1.0  0.9856790474901239  0.6253913415221841  0.6358506271778803  1.0000
  H   H18       1.0  0.2101292275118236  0.5537653212307534  0.5505706951643993  1.0000
  Zn  Zn1       1.0  0.9637441079453021  0.5642643755877766  0.407077739575762  1.0000
  Zn  Zn2       1.0  0.15997584728677006  0.5644622733795441  0.4068699641294553  1.0000
  C   C22       1.0  0.06241449029805837  0.5611955786633325  0.6701455772168965  1.0000
  C   C23       1.0  0.06130759621762549  0.5675328941141904  0.14380226263696372  1.0000
  C   C24       1.0  0.060134920467483255  0.8277926541564096  0.40079774393456  1.0000
  C   C25       1.0  0.06358711051009758  0.30093408604182015  0.41315017566835976  1.0000
  O   O1        1.0  0.13586755164866982  0.5700570007788834  0.19740313540767968  1.0000
  O   O2        1.0  0.13678989079996917  0.5588205794523031  0.6163865947130506  1.0000
  O   O3        1.0  0.13494810838710058  0.7741011031638296  0.3988863122450115  1.0000
  O   O4        1.0  0.13770926682246554  0.35477648626110336  0.41490330989489577  1.0000
  O   O5        1.0  0.9860106214453191  0.7739501626401806  0.39904439387364365  1.0000
  O   O6        1.0  0.9878523924320046  0.5586713714419109  0.6165445966559455  1.0000
  O   O7        1.0  0.9869300502780497  0.5699077255183316  0.19755940509944825  1.0000
  O   O8        1.0  0.988771765726632  0.35462720174076834  0.41505968763080947  1.0000
