data_image0
_chemical_formula_structural       NC8NC6H8C12NCOCH13C15H12Zn2C4O8
_chemical_formula_sum              "N3 C47 H33 O9 Zn2"
_cell_length_a       17.457602349358154
_cell_length_b       10.299155265289647
_cell_length_c       10.299157797200026
_cell_angle_alpha    85.52785804654131
_cell_angle_beta     92.89892803241439
_cell_angle_gamma    91.66712233072684

_space_group_name_H-M_alt    "P 1"
_space_group_IT_number       1

loop_
  _space_group_symop_operation_xyz
  'x, y, z'

loop_
  _atom_site_type_symbol
  _atom_site_label
  _atom_site_symmetry_multiplicity
  _atom_site_fract_x
  _atom_site_fract_y
  _atom_site_fract_z
  _atom_site_occupancy
  N   N1        1.0  0.721777943942799  0.4532900620236058  0.6259374053586646  1.0000
  C   C1        1.0  0.6607078567374021  0.4073649998580402  0.6153352862246471  1.0000
  C   C2        1.0  0.5847340861627843  0.3502399346605323  0.6021557909530149  1.0000
  C   C3        1.0  0.5262139062179916  0.39038390010039725  0.677046871478216  1.0000
  C   C4        1.0  0.4516778856319692  0.33537705673787  0.6644811968189046  1.0000
  C   C5        1.0  0.3895673369103644  0.37776310727636075  0.7437937317400577  1.0000
  C   C6        1.0  0.3150035105153042  0.3962476915047812  0.6880199020353418  1.0000
  C   C7        1.0  0.2564833942584175  0.4362076913751352  0.763019002882741  1.0000
  C   C8        1.0  0.1804807594225282  0.4552987640110109  0.705029342478777  1.0000
  N   N2        1.0  0.1193875589910062  0.47064160629471036  0.658405808583044  1.0000
  C   C9        1.0  0.272035005695564  0.45792612528343213  0.8943004155378204  1.0000
  C   C10       1.0  0.3458141310857079  0.4398304458789428  0.9504617521669283  1.0000
  C   C11       1.0  0.40432270875309434  0.40005038712457736  0.8759203528984312  1.0000
  C   C12       1.0  0.4369505087437424  0.2395491761521051  0.5755916195344206  1.0000
  C   C13       1.0  0.4954590012360357  0.19968379895858535  0.5011004868744011  1.0000
  C   C14       1.0  0.5692103592257253  0.2548028757591536  0.5142161203626285  1.0000
  H   H1        1.0  0.5385565917574505  0.46556465556122695  0.7436592847762076  1.0000
  H   H2        1.0  0.3026380686971942  0.3813041385705165  0.5859918958813224  1.0000
  H   H3        1.0  0.22718082053964858  0.48879480200385417  0.9531312782788971  1.0000
  H   H4        1.0  0.3576654246644906  0.4563318524911535  0.05211597711583793  1.0000
  H   H5        1.0  0.4608224509934015  0.38504521188433644  0.9220352504800131  1.0000
  H   H6        1.0  0.3804735585941262  0.19421382682303778  0.5649531948994475  1.0000
  H   H7        1.0  0.48362959493348273  0.12561989546729135  0.4332893039748722  1.0000
  H   H8        1.0  0.6140649030380066  0.2230643112649453  0.45589669773998653  1.0000
  C   C15       1.0  0.9206721359259403  0.08057219825593265  0.6422976187711525  1.0000
  C   C16       1.0  0.9075350366501966  0.08974928879664001  0.5062921568076088  1.0000
  C   C17       1.0  0.9007999189421961  0.9772613839064833  0.4372107222357162  1.0000
  C   C18       1.0  0.9073515207950733  0.8544816254055111  0.5059693691336109  1.0000
  C   C19       1.0  0.9205007297608325  0.8433497990991429  0.6420574150713507  1.0000
  C   C20       1.0  0.9270834991588011  0.9569092489562155  0.7093840037673471  1.0000
  C   C21       1.0  0.8869034012841839  0.9879433482300659  0.2933334433877137  1.0000
  C   C22       1.0  0.9257931934701596  0.08378173790302079  0.21508701445680065  1.0000
  C   C23       1.0  0.9127219676193642  0.09370356835378812  0.07968942414851754  1.0000
  C   C24       1.0  0.8609766001257089  0.007123878059834614  0.019710283849190272  1.0000
  C   C25       1.0  0.8211496451653973  0.9130609019794762  0.09781202175818614  1.0000
  C   C26       1.0  0.8342488054256804  0.9028842850694454  0.2331745556178504  1.0000
  N   N3        1.0  0.8454356516389532  0.016737944480216257  0.8808725099912409  1.0000
  C   C27       1.0  0.9014323221144419  0.05615473300480891  0.7872219451195671  1.0000
  O   O1        1.0  0.9718220721622076  0.06175044296202771  0.8208298687344351  1.0000
  C   C28       1.0  0.8769243856231067  0.08158359139619112  0.6466730488207822  1.0000
  H   H9        1.0  0.9257490391198773  0.4045195248807216  0.6946073869286242  1.0000
  H   H10       1.0  0.9014529124528942  0.18454826777114383  0.4539829741743525  1.0000
  H   H11       1.0  0.9032121701443784  0.7675215127399423  0.4529999747696402  1.0000
  H   H12       1.0  0.9372190010293481  0.9491160150122767  0.8142876241856719  1.0000
  H   H13       1.0  0.9457785473845177  0.6150758377249657  0.8988231694674047  1.0000
  H   H14       1.0  0.9667704487644343  0.1506033950910992  0.25852772784391237  1.0000
  H   H15       1.0  0.9421407815508512  0.1704652262750077  0.02250798360889794  1.0000
  H   H16       1.0  0.7800985597906238  0.8469403962198689  0.05349819527450483  1.0000
  H   H17       1.0  0.8023649189757426  0.8296310902669481  0.29098769460604657  1.0000
  H   H18       1.0  0.7913911935467498  0.985522466852406  0.8453841204403374  1.0000
  H   H19       1.0  0.8215418951788396  0.13261405167787998  0.6376966823433623  1.0000
  H   H20       1.0  0.8698144172991993  0.987680531632822  0.6008658695959102  1.0000
  H   H21       1.0  0.9205872639138679  0.1436009310065398  0.5948401425009102  1.0000
  C   C29       1.0  0.9204974430648657  0.46206335633165385  0.26077819934439184  1.0000
  C   C30       1.0  0.8405901808272787  0.44059552987317646  0.25443354501585214  1.0000
  C   C31       1.0  0.8002391386460243  0.4296088859695965  0.1340877448473199  1.0000
  C   C32       1.0  0.8408181823279036  0.44039673241524335  0.01918493066122195  1.0000
  C   C33       1.0  0.9206753691097126  0.461858578601128  0.023576813776348786  1.0000
  C   C34       1.0  0.960048686038698  0.4725608048466623  0.1448656897142  1.0000
  C   C35       1.0  0.7157592664700867  0.4069179421947538  0.12842632112562222  1.0000
  C   C36       1.0  0.681257223969409  0.3184267881962586  0.04452767042603311  1.0000
  C   C37       1.0  0.6017581039311739  0.2971667143043062  0.039232263325420506  1.0000
  C   C38       1.0  0.5553452178378767  0.3633268550040476  0.11825209790013068  1.0000
  C   C39       1.0  0.5894364797824774  0.45264569276043987  0.20114023860555008  1.0000
  C   C40       1.0  0.6689348253227708  0.47390993152249883  0.2065835319436955  1.0000
  C   C41       1.0  0.4697016576469539  0.3427729967583466  0.11020055891926628  1.0000
  C   C42       1.0  0.4351763374634326  0.4350407411494508  0.009942543506486825  1.0000
  C   C43       1.0  0.4068016613675692  0.5109131200990182  0.9275039302278731  1.0000
  H   H22       1.0  0.07137942837934702  0.5017906601053526  0.48011329737047936  1.0000
  H   H23       1.0  0.8097328260179333  0.4306234272914138  0.34345405564358766  1.0000
  H   H24       1.0  0.8098496601453098  0.433806857426988  0.9260253209006043  1.0000
  H   H25       1.0  0.021644951921216963  0.4891111948631122  0.14896901708230104  1.0000
  H   H26       1.0  0.9513942794110959  0.47007222195593656  0.697793985160378  1.0000
  H   H27       1.0  0.7158466164965163  0.26456653432029653  0.9839965312037896  1.0000
  H   H28       1.0  0.5763723065871706  0.2288981916052908  0.9736200681170455  1.0000
  H   H29       1.0  0.5543991177284271  0.5061771958470533  0.261289889498157  1.0000
  H   H30       1.0  0.6936943853084775  0.5442585100897419  0.2705027234416517  1.0000
  H   H31       1.0  0.45441219063749555  0.24185811455648532  0.08553650861238381  1.0000
  H   H32       1.0  0.4452761990304341  0.3571531644152828  0.20542273770723196  1.0000
  H   H33       1.0  0.3819126253673794  0.5775274898435017  0.8551320935775583  1.0000
  Zn  Zn1       1.0  0.8365194925698176  0.4582938579438514  0.6353145853362807  1.0000
  Zn  Zn2       1.0  0.004646000987952314  0.46562715900626794  0.6490392653338013  1.0000
  C   C44       1.0  0.9206412095818745  0.456723217290258  0.8793930591162504  1.0000
  C   C45       1.0  0.9205261195735787  0.4671995184314611  0.40496106838750867  1.0000
  C   C46       1.0  0.9205279514846219  0.6991697839383832  0.6369269228938848  1.0000
  C   C47       1.0  0.9206393206678561  0.22475138885811738  0.647427269662106  1.0000
  O   O2        1.0  0.9843388786913296  0.4717005447762028  0.4585586026816359  1.0000
  O   O3        1.0  0.984432580303875  0.4577870170848437  0.8362118658054425  1.0000
  O   O4        1.0  0.9843402631762936  0.6535656479305341  0.6404186746791608  1.0000
  O   O5        1.0  0.9844311384239158  0.2759219207451212  0.6543516917392557  1.0000
  O   O6        1.0  0.8567342977605258  0.6479990937039184  0.6300021542404346  1.0000
  O   O7        1.0  0.8568266145177544  0.4522220232823659  0.8257952756240936  1.0000
  O   O8        1.0  0.856732912602119  0.4661355061361802  0.4481404509935151  1.0000
  O   O9        1.0  0.8568251723563726  0.2703568727894101  0.6439336374294051  1.0000
