data_image0
_chemical_formula_structural       NC8NH4C7NH5C6SCH8Zn2C4O8
_chemical_formula_sum              "N3 C26 H17 S1 Zn2 O8"
_cell_length_a       13.859017124695912
_cell_length_b       9.275154477615127
_cell_length_c       10.302812801239595
_cell_angle_alpha    85.78691219350036
_cell_angle_beta     89.99985351461923
_cell_angle_gamma    89.43373790894346

_space_group_name_H-M_alt    "P 1"
_space_group_IT_number       1

loop_
  _space_group_symop_operation_xyz
  'x, y, z'

loop_
  _atom_site_type_symbol
  _atom_site_label
  _atom_site_symmetry_multiplicity
  _atom_site_fract_x
  _atom_site_fract_y
  _atom_site_fract_z
  _atom_site_occupancy
  N   N1        1.0  0.8981556692055351  0.5778885178306132  0.5735781287913955  1.0000
  C   C1        1.0  0.8259524132301701  0.5550351530091  0.5229088720621333  1.0000
  C   C2        1.0  0.7361358365810935  0.5266089114489436  0.459882830193401  1.0000
  C   C3        1.0  0.6483372312537604  0.5543216215053546  0.5213252938913888  1.0000
  C   C4        1.0  0.5609055086162756  0.5266101369647926  0.4598823127806643  1.0000
  C   C5        1.0  0.56145484987569  0.471178444461674  0.3369780113588807  1.0000
  C   C6        1.0  0.6490701900095222  0.443572246737298  0.2757720555731728  1.0000
  C   C7        1.0  0.7363202242847103  0.47117609559364354  0.3369790643399164  1.0000
  C   C8        1.0  0.4707125683857799  0.5550360793299425  0.5229084267941093  1.0000
  N   N2        1.0  0.3982067926608568  0.5778888403596476  0.573577935378176  1.0000
  H   H1        1.0  0.6480532254652003  0.5972279171400243  0.6164561707183753  1.0000
  H   H2        1.0  0.4943037813786651  0.4493675213970803  0.2886160735618759  1.0000
  H   H3        1.0  0.6493536817023222  0.40075359431431057  0.18083383752008464  1.0000
  H   H4        1.0  0.803760027423218  0.44936307232842077  0.28861801907226403  1.0000
  C   C9        1.0  0.1509780073242566  0.1544993999855313  0.5720757038816013  1.0000
  C   C10       1.0  0.12449302266978668  0.23767846587033395  0.45760747892570647  1.0000
  C   C11       1.0  0.09015971493227437  0.1716400164880214  0.34920280970073714  1.0000
  C   C12       1.0  0.08174607830948744  0.021519485709292626  0.3539896654476551  1.0000
  C   C13       1.0  0.10912534933805706  0.9371327454257198  0.46584867785577194  1.0000
  C   C14       1.0  0.1453937636749103  0.001266914102832747  0.5750916055793758  1.0000
  C   C15       1.0  0.06239103297845694  0.2584008937740792  0.23335494447101188  1.0000
  N   N3        1.0  0.040072715237619905  0.3281407330773001  0.14024293498993234  1.0000
  H   H5        1.0  0.1696868285402653  0.23117047117707054  0.8907535039703844  1.0000
  H   H6        1.0  0.1284335539450676  0.3546378689805639  0.45375535239019177  1.0000
  H   H7        1.0  0.054844642687687406  0.9693928908435648  0.27067386897183243  1.0000
  H   H8        1.0  0.10405864006005273  0.8206651457741548  0.46573442488842914  1.0000
  H   H9        1.0  0.16208549421289264  0.7024966808257918  0.7886147948881748  1.0000
  C   C16       1.0  0.14818591175696263  0.5778831536436924  0.19233517476671524  1.0000
  C   C17       1.0  0.11469738514259364  0.721663307862586  0.18164999604222842  1.0000
  C   C18       1.0  0.09778719826259685  0.7929911199937965  0.059357045922636686  1.0000
  C   C19       1.0  0.11469729915390658  0.7216631565143734  0.9464988258139684  1.0000
  C   C20       1.0  0.1481858492351309  0.5778831439273984  0.9548320783616701  1.0000
  C   C21       1.0  0.16473682243589027  0.5066830933041943  0.0782926354775868  1.0000
  S   S1        1.0  0.05519811595405999  0.9767982796447038  0.04720038477189804  1.0000
  C   C22       1.0  0.9286107798554768  0.9264244821089864  0.050533154384357674  1.0000
  H   H10       1.0  0.16077038580644443  0.5236808995374282  0.5236762003494109  1.0000
  H   H11       1.0  0.10139442211985972  0.7787731953667378  0.26797245523433855  1.0000
  H   H12       1.0  0.10139423031025752  0.7787729876771221  0.8526221415126011  1.0000
  H   H13       1.0  0.19055057346387352  0.39576952933533915  0.0856281345008336  1.0000
  H   H14       1.0  0.1607685941463917  0.5236801510067148  0.6306606121700238  1.0000
  H   H15       1.0  0.9119239893532923  0.8622849187617564  0.9666583978509267  1.0000
  H   H16       1.0  0.9119243929987952  0.8622863758538831  0.14289309507387293  1.0000
  H   H17       1.0  0.883297445028558  0.025940256069365564  0.04395110266535718  1.0000
  Zn  Zn1       1.0  0.04245965013005115  0.5778847615325798  0.5735855605528613  1.0000
  Zn  Zn2       1.0  0.25390288166251684  0.5778808354572381  0.5735811100410356  1.0000
  C   C23       1.0  0.14822158964064558  0.5721394098650308  0.8106833929499769  1.0000
  C   C24       1.0  0.148143239108409  0.583628006249519  0.3364834115006916  1.0000
  C   C25       1.0  0.14644433428122894  0.8412098101705912  0.5693479667850331  1.0000
  C   C26       1.0  0.14992043374065034  0.3145558737238958  0.5778189007144046  1.0000
  O   O1        1.0  0.22837056367990005  0.5855482513289667  0.3848591652103637  1.0000
  O   O2        1.0  0.2284747925119388  0.5702150973139822  0.7623038838029811  1.0000
  O   O3        1.0  0.22703855463743738  0.7874928484404271  0.5674238250487487  1.0000
  O   O4        1.0  0.2298067293351396  0.3682705105177104  0.5797391266589369  1.0000
  O   O5        1.0  0.06655573030222084  0.787495086475017  0.5674275439296557  1.0000
  O   O6        1.0  0.0679919567486893  0.5702190675715442  0.7623075396298147  1.0000
  O   O7        1.0  0.06788772831228007  0.5855521713441587  0.38486125995073084  1.0000
  O   O8        1.0  0.06932389403157346  0.3682744202206234  0.5797413186996592  1.0000
