data_image0
_chemical_formula_structural       NC5NC4H6C6NH7C7ONH5Zn2C4O8
_chemical_formula_sum              "N4 C26 H18 O9 Zn2"
_cell_length_a       13.854160002989762
_cell_length_b       9.274771166103582
_cell_length_c       9.273042158839658
_cell_angle_alpha    86.05644510922068
_cell_angle_beta     90.09323775389821
_cell_angle_gamma    90.59704847255895

_space_group_name_H-M_alt    "P 1"
_space_group_IT_number       1

loop_
  _space_group_symop_operation_xyz
  'x, y, z'

loop_
  _atom_site_type_symbol
  _atom_site_label
  _atom_site_symmetry_multiplicity
  _atom_site_fract_x
  _atom_site_fract_y
  _atom_site_fract_z
  _atom_site_occupancy
  N   N1        1.0  0.918069580695647  0.5618844046247287  0.4072631410221641  1.0000
  C   C1        1.0  0.8458441148857107  0.5864789784082906  0.34818023214538457  1.0000
  C   C2        1.0  0.7559946193282375  0.617075288334231  0.27467883175119234  1.0000
  C   C3        1.0  0.6683011330291074  0.5883421116547535  0.3464443307095621  1.0000
  C   C4        1.0  0.5808522070299992  0.61707530242216  0.27467880855617904  1.0000
  C   C5        1.0  0.49073597260026275  0.5864788320281814  0.3481803240213818  1.0000
  N   N2        1.0  0.4182960096548206  0.5618843411159344  0.4072631410513738  1.0000
  C   C6        1.0  0.5811336534298178  0.6751483640684823  0.13116567275527813  1.0000
  C   C7        1.0  0.6688092841709835  0.7060309469177604  0.05929282793161583  1.0000
  C   C8        1.0  0.669046409234091  0.764224226756764  0.9042920984807892  1.0000
  C   C9        1.0  0.7562107423512957  0.6751483617924456  0.13116558249396568  1.0000
  H   H1        1.0  0.66810782752178  0.5432833785013089  0.4575210655991342  1.0000
  H   H2        1.0  0.5133479575487392  0.696352688466878  0.07548527905645264  1.0000
  H   H3        1.0  0.7343484564401556  0.8321461713030712  0.8803849177029388  1.0000
  H   H4        1.0  0.6046399788702325  0.8321461738654884  0.8803849827738983  1.0000
  H   H5        1.0  0.6683318508471018  0.6729309104494889  0.8329145911484379  1.0000
  H   H6        1.0  0.8241709173160195  0.6963528000704462  0.0754851934385885  1.0000
  C   C10       1.0  0.16522497557283677  0.13829609252442365  0.40804877982719145  1.0000
  C   C11       1.0  0.142863855629219  0.2202472673439284  0.27915630258383484  1.0000
  C   C12       1.0  0.12951375813119737  0.15383169052152934  0.14944605908108333  1.0000
  C   C13       1.0  0.13857428952688688  0.004077570406329608  0.14768878942010266  1.0000
  C   C14       1.0  0.15914847674051624  0.9207883185693215  0.2748106607733867  1.0000
  C   C15       1.0  0.17114980922084846  0.9854617129480342  0.40649005317096726  1.0000
  N   N3        1.0  0.10774401990985756  0.23886744265031215  0.01913697888496912  1.0000
  H   H7        1.0  0.2742204760546787  0.22127880829376714  0.7234883293870904  1.0000
  H   H8        1.0  0.13799640876900282  0.3368341446283195  0.2786026460121136  1.0000
  H   H9        1.0  0.12875957483005185  0.951539201423487  0.0478898435759647  1.0000
  H   H10       1.0  0.16339743880501945  0.804580824857034  0.2706827553371407  1.0000
  H   H11       1.0  0.24065300913151344  0.6906558096106951  0.6211006334867157  1.0000
  H   H12       1.0  0.10109365875742468  0.3509408517186752  0.019090164242326676  1.0000
  H   H13       1.0  0.09802293246242265  0.1903712473920538  0.9217083767376345  1.0000
  C   C16       1.0  0.16769465108846954  0.5574208741179087  0.9840126987005973  1.0000
  C   C17       1.0  0.07910496727852201  0.5666062785242644  0.056676600189315085  1.0000
  C   C18       1.0  0.9923558930318063  0.5897440922325659  0.9803778607026538  1.0000
  C   C19       1.0  0.9947194426818302  0.6019542200600303  0.8288566941771005  1.0000
  C   C20       1.0  0.08171416795041385  0.5906509977874492  0.7551872586684203  1.0000
  C   C21       1.0  0.16868014810835832  0.566336855661312  0.8305261323121953  1.0000
  C   C22       1.0  0.9001899256875001  0.599701994637488  0.06021955357037223  1.0000
  O   O1        1.0  0.8933511057013923  0.5438818912173358  0.18769288235209247  1.0000
  N   N4        1.0  0.8185985365965249  0.6728814891187449  0.9965484385569975  1.0000
  H   H14       1.0  0.40226342895597533  0.6125183274720152  0.08387139039548575  1.0000
  H   H15       1.0  0.9291810023985567  0.6162162261386588  0.7662073159170455  1.0000
  H   H16       1.0  0.32674009783233005  0.5967550588618705  0.547548389081757  1.0000
  H   H17       1.0  0.8236825767046067  0.7351705160261488  0.898768000591818  1.0000
  H   H18       1.0  0.7533581484423271  0.6727191412791527  0.052791194926584906  1.0000
  Zn  Zn1       1.0  0.062424110852103504  0.5618806121695274  0.4072714804720754  1.0000
  Zn  Zn2       1.0  0.27394141190118315  0.5618764544167703  0.407266660565951  1.0000
  C   C23       1.0  0.16845150103231266  0.5589051442678036  0.6705275170729939  1.0000
  C   C24       1.0  0.16791634437670036  0.5648537437859646  0.14401076203038876  1.0000
  C   C25       1.0  0.17001822308097764  0.8252688514512299  0.4010410724005029  1.0000
  C   C26       1.0  0.1663495381210955  0.29848830437754925  0.41349728673673397  1.0000
  O   O2        1.0  0.24826041607476912  0.5673404119342209  0.1977057561338253  1.0000
  O   O3        1.0  0.24864415855986743  0.5564142279287208  0.6168284518670107  1.0000
  O   O4        1.0  0.24990822609864843  0.7715063059147187  0.39921623839765646  1.0000
  O   O5        1.0  0.24699627630581777  0.35224834313007714  0.41531786151599004  1.0000
  O   O6        1.0  0.08936917426699731  0.7715087234591297  0.39922027951609707  1.0000
  O   O7        1.0  0.08810511875468462  0.5564183777010305  0.6168324129456584  1.0000
  O   O8        1.0  0.08772137396488476  0.5673444931885223  0.19770798440728413  1.0000
  O   O9        1.0  0.08645723424563201  0.3522524152054338  0.4153201978706998  1.0000
