data_image0
_chemical_formula_structural       NC12NC2H8C7OC3OC4H12C7OC6OCH12Zn2C4O8
_chemical_formula_sum              "N2 C46 H32 O12 Zn2"
_cell_length_a       19.240039667572717
_cell_length_b       10.299371110280156
_cell_length_c       10.299362532796529
_cell_angle_alpha    85.59679077391144
_cell_angle_beta     90.01509071760941
_cell_angle_gamma    90.01145957794125

_space_group_name_H-M_alt    "P 1"
_space_group_IT_number       1

loop_
  _space_group_symop_operation_xyz
  'x, y, z'

loop_
  _atom_site_type_symbol
  _atom_site_label
  _atom_site_symmetry_multiplicity
  _atom_site_fract_x
  _atom_site_fract_y
  _atom_site_fract_z
  _atom_site_occupancy
  N   N1        1.0  0.6544273389586223  0.4208428160677847  0.5679623261055007  1.0000
  C   C1        1.0  0.5942789701387818  0.4208429000243939  0.567962244198785  1.0000
  C   C2        1.0  0.5194609329908184  0.42084301726866036  0.5679621069364486  1.0000
  C   C3        1.0  0.482994897835874  0.3564090410304448  0.6713506403674276  1.0000
  C   C4        1.0  0.4103241500631016  0.35629818563963994  0.6714371427429284  1.0000
  C   C5        1.0  0.3731286980312927  0.42084310976458505  0.5679618792889238  1.0000
  C   C6        1.0  0.41030892443416317  0.48538822093658657  0.4644868104408635  1.0000
  C   C7        1.0  0.48297961321716326  0.4852771300824757  0.4645734352325568  1.0000
  C   C8        1.0  0.2959236075697832  0.42084303107372256  0.5679617838459499  1.0000
  C   C9        1.0  0.2587295712787465  0.30759440866251087  0.6097918508955603  1.0000
  C   C10       1.0  0.1860588814660564  0.3077012815441867  0.6097005641414738  1.0000
  C   C11       1.0  0.1495913206413395  0.42084290191874185  0.56796184470978  1.0000
  C   C12       1.0  0.07477328350927129  0.42084278825133725  0.5679620933285243  1.0000
  N   N2        1.0  0.014624966682192196  0.4208427474913434  0.5679623017320762  1.0000
  C   C13       1.0  0.1860712706738988  0.5339845981051654  0.5262230724147028  1.0000
  C   C14       1.0  0.2587419654595873  0.5340916510590714  0.5261316231312829  1.0000
  H   H1        1.0  0.5107158043485414  0.3065230623864981  0.752073620869654  1.0000
  H   H2        1.0  0.38323712665647147  0.3072106379221622  0.7532759083737833  1.0000
  H   H3        1.0  0.38320941704839157  0.534475795691093  0.3826479939715348  1.0000
  H   H4        1.0  0.510688478195733  0.5351630085477102  0.38385073048834273  1.0000
  H   H5        1.0  0.2858176914037979  0.21844803719388062  0.640927453677574  1.0000
  H   H6        1.0  0.15833912642811437  0.21945441131082813  0.6418694485740832  1.0000
  H   H7        1.0  0.1583612022634747  0.6222314438059755  0.49405420252368293  1.0000
  H   H8        1.0  0.2858403241539131  0.6232381016910835  0.49499597560626424  1.0000
  C   C15       1.0  0.8344826158697769  0.0394713584052835  0.5678474955654993  1.0000
  C   C16       1.0  0.8264553638646769  0.048718493747081044  0.4318650640126566  1.0000
  C   C17       1.0  0.8216215815053086  0.9361956239798076  0.36344747423447554  1.0000
  C   C18       1.0  0.8264899064293958  0.8134507050838398  0.43217614386635883  1.0000
  C   C19       1.0  0.8345763708698117  0.8022042507201133  0.5680883430709678  1.0000
  C   C20       1.0  0.8383439708065774  0.9158114878365432  0.6351752561816838  1.0000
  C   C21       1.0  0.8138701637285158  0.9458318760617118  0.21970327981598436  1.0000
  O   O1        1.0  0.8423516816977361  0.8607741862621988  0.15568159151342909  1.0000
  C   C22       1.0  0.7738001668774632  0.051879975919502996  0.14859384760324246  1.0000
  C   C23       1.0  0.7932092244631108  0.09700244245293878  0.021453788816392153  1.0000
  C   C24       1.0  0.7556060897858792  0.19599522960022053  0.9520743609404889  1.0000
  O   O2        1.0  0.7777782682859454  0.23776536154509098  0.8259789917108533  1.0000
  C   C25       1.0  0.7446369713387483  0.3372264095977615  0.7445456106799697  1.0000
  C   C26       1.0  0.6973116022677872  0.24987131459606093  0.01056130987372428  1.0000
  C   C27       1.0  0.6771887749631956  0.2044585617875727  0.13618433966393081  1.0000
  C   C28       1.0  0.7149151430232111  0.10574685317137635  0.20481160470683488  1.0000
  H   H9        1.0  0.8506914575136459  0.22936043176566195  0.8242354139317349  1.0000
  H   H10       1.0  0.8247269001629556  0.14363727929858405  0.3788363905629346  1.0000
  H   H11       1.0  0.823286891228227  0.7265747984728395  0.3794547329280161  1.0000
  H   H12       1.0  0.844532841268521  0.9078788228191039  0.7400077471648878  1.0000
  H   H13       1.0  0.8382609243325061  0.47043653393978635  0.620174183709032  1.0000
  H   H14       1.0  0.8381405515832496  0.05609301516953782  0.9760818314753438  1.0000
  H   H15       1.0  0.7729757624456915  0.35028987446019255  0.6506765664835122  1.0000
  H   H16       1.0  0.7456675792431408  0.43069697846403004  0.7915637451984723  1.0000
  H   H17       1.0  0.6901661995499659  0.30898725613039657  0.7247817894560854  1.0000
  H   H18       1.0  0.6671150188064133  0.3263555348094281  0.9596738470758699  1.0000
  H   H19       1.0  0.6319945960341795  0.24552903333712386  0.18033458888759507  1.0000
  H   H20       1.0  0.6975907633737464  0.07062703759912692  0.3011883890654116  1.0000
  C   C29       1.0  0.8344752336275927  0.4207172646798519  0.18660099280963946  1.0000
  C   C30       1.0  0.7684929441027919  0.36203643033753163  0.18987013180931256  1.0000
  C   C31       1.0  0.7349138779021427  0.33376280198707686  0.0743478984996313  1.0000
  C   C32       1.0  0.7686886903589968  0.3621999887645083  0.9546158835609879  1.0000
  C   C33       1.0  0.834583756305463  0.4209583199262892  0.9493348439869828  1.0000
  C   C34       1.0  0.8670397615186543  0.450133550383884  0.06586620836419188  1.0000
  C   C35       1.0  0.665591513821359  0.27046489639684945  0.08013073544278515  1.0000
  O   O3        1.0  0.6513818632953717  0.19125799996269177  0.17600229118437793  1.0000
  C   C36       1.0  0.6123920331737754  0.29701622592862287  0.9772243178101971  1.0000
  C   C37       1.0  0.6070624528212075  0.42038925146135986  0.9094098751679229  1.0000
  C   C38       1.0  0.5561929674171578  0.4445689561268281  0.8137219310372319  1.0000
  C   C39       1.0  0.5094284235065305  0.3469042913561793  0.7846422917369873  1.0000
  C   C40       1.0  0.514027102904623  0.2237248211590315  0.8533750116396809  1.0000
  C   C41       1.0  0.5648903442677675  0.19941791689325267  0.9491353206178024  1.0000
  O   O4        1.0  0.45939914744645566  0.37606399575518656  0.6876669582142003  1.0000
  C   C42       1.0  0.40871282321623736  0.28630241041948823  0.6482660060445746  1.0000
  H   H21       1.0  0.9591023549507408  0.53095654944106  0.3877400897210286  1.0000
  H   H22       1.0  0.7427565817591879  0.3392954095787941  0.28239703628354196  1.0000
  H   H23       1.0  0.743840101515639  0.33711982486929576  0.8655538957325599  1.0000
  H   H24       1.0  0.917873180197335  0.49545714289253295  0.06252505309390632  1.0000
  H   H25       1.0  0.859979036873105  0.44301642313093215  0.619872607580616  1.0000
  H   H26       1.0  0.6417147904089591  0.4986402648964623  0.9312587833251026  1.0000
  H   H27       1.0  0.5528931705077714  0.5400287043520882  0.7621884372352786  1.0000
  H   H28       1.0  0.4785764886388029  0.1461595988549087  0.8336230958872402  1.0000
  H   H29       1.0  0.5675148481878958  0.1037762997271694  0.0005555649485000603  1.0000
  H   H30       1.0  0.3760726451087397  0.3349976731372324  0.5701979891724056  1.0000
  H   H31       1.0  0.3747702264417233  0.2540892843348142  0.7318055132306113  1.0000
  H   H32       1.0  0.43461104869848816  0.2009821314032294  0.6095832343737908  1.0000
  Zn  Zn1       1.0  0.758372603433332  0.4208393314198249  0.5679698063637236  1.0000
  Zn  Zn2       1.0  0.910679721184373  0.42083564193904643  0.5679654169733037  1.0000
  C   C43       1.0  0.8345610473024266  0.41573905350619933  0.8051601670325157  1.0000
  C   C44       1.0  0.834492940723807  0.42593755848306875  0.3307751842397532  1.0000
  C   C45       1.0  0.8345543296079169  0.6580298536439917  0.5628676585469599  1.0000
  C   C46       1.0  0.8344996062646145  0.18364519805554025  0.5730677614724129  1.0000
  O   O5        1.0  0.8922986401219742  0.42768247085385847  0.3791596923914702  1.0000
  O   O6        1.0  0.8923529259568819  0.4139903610577418  0.7567719532816118  1.0000
  O   O7        1.0  0.892346722357346  0.6096432468000637  0.5611190388686567  1.0000
  O   O8        1.0  0.8923047917366969  0.23202959437230347  0.5748125094346982  1.0000
  O   O9        1.0  0.7767474809060626  0.6096453789892387  0.5611227138969963  1.0000
  O   O10       1.0  0.7767536846843558  0.4139940535393236  0.7567755595575154  1.0000
  O   O11       1.0  0.7766993986679757  0.4276861175856835  0.3791617372605742  1.0000
  O   O12       1.0  0.7767055502925666  0.2320332318460321  0.5748146516681967  1.0000
