data_image0
_chemical_formula_structural       NC8NC6H8C12NCOCH13C12OCH12Zn2C4O8
_chemical_formula_sum              "N3 C45 H33 O10 Zn2"
_cell_length_a       17.457602349358154
_cell_length_b       10.299155265289647
_cell_length_c       10.299794127170987
_cell_angle_alpha    85.56075829467142
_cell_angle_beta     92.86889786892418
_cell_angle_gamma    91.66712233072684

_space_group_name_H-M_alt    "P 1"
_space_group_IT_number       1

loop_
  _space_group_symop_operation_xyz
  'x, y, z'

loop_
  _atom_site_type_symbol
  _atom_site_label
  _atom_site_symmetry_multiplicity
  _atom_site_fract_x
  _atom_site_fract_y
  _atom_site_fract_z
  _atom_site_occupancy
  N   N1        1.0  0.7221918176902272  0.4525164612477923  0.6261176859199843  1.0000
  C   C1        1.0  0.6611249238901339  0.40658543006187847  0.6155169578113796  1.0000
  C   C2        1.0  0.5851551230379425  0.34945294477462596  0.602339191723567  1.0000
  C   C3        1.0  0.526612385567556  0.38963907408549797  0.6772204463455758  1.0000
  C   C4        1.0  0.4520801498184691  0.3346251562158098  0.6646564203352339  1.0000
  C   C5        1.0  0.3899457118095981  0.37705585991550744  0.7439585492469589  1.0000
  C   C6        1.0  0.3153986847393999  0.3955090433343156  0.6881920372127523  1.0000
  C   C7        1.0  0.2568559784207192  0.4355112678913957  0.7631812979844136  1.0000
  C   C8        1.0  0.18087081032772603  0.4545696921992748  0.7051992459736696  1.0000
  N   N2        1.0  0.11979165311138733  0.4698862853134429  0.6585818292060017  1.0000
  C   C9        1.0  0.2723680473141454  0.45730361357276283  0.8944454861790816  1.0000
  C   C10       1.0  0.3461302566606228  0.4392395531452817  0.9505994542957718  1.0000
  C   C11       1.0  0.4046612865280577  0.3994175273913563  0.8760678350513824  1.0000
  C   C12       1.0  0.437379546865143  0.23874723056934877  0.5757785055928724  1.0000
  C   C13       1.0  0.4959104764169592  0.19883991467649897  0.5012971463618521  1.0000
  C   C14       1.0  0.5696578839196746  0.2539663756124635  0.5144110590450905  1.0000
  H   H1        1.0  0.5389350071527059  0.4648573325063868  0.7438241199228974  1.0000
  H   H2        1.0  0.3030639742092341  0.3805080483701  0.5861774173966557  1.0000
  H   H3        1.0  0.22749614204145932  0.4882054122202617  0.9532686301590195  1.0000
  H   H4        1.0  0.3579509315360179  0.45579819134766253  0.052240341947817126  1.0000
  H   H5        1.0  0.46114713875669505  0.3844383149570927  0.9221766822392967  1.0000
  H   H6        1.0  0.38090580105620775  0.1934058917798427  0.5651414767466882  1.0000
  H   H7        1.0  0.484101495143436  0.12473783331477575  0.4334948604646611  1.0000
  H   H8        1.0  0.6145299938006948  0.22219497713328118  0.45609928808132355  1.0000
  C   C15       1.0  0.9210810819045321  0.07980780832236013  0.6424757528302176  1.0000
  C   C16       1.0  0.9079849480771114  0.08890832743808286  0.5064881351345558  1.0000
  C   C17       1.0  0.9012706380035775  0.9763815295225372  0.43741576422530115  1.0000
  C   C18       1.0  0.9078015294470665  0.8536404823166632  0.506165389811134  1.0000
  C   C19       1.0  0.9209097480898439  0.8425852739302689  0.6422355806457614  1.0000
  C   C20       1.0  0.927472238420706  0.9561826288299878  0.709553335919431  1.0000
  C   C21       1.0  0.8874174568200452  0.9869824905679775  0.2935573624478862  1.0000
  C   C22       1.0  0.9263308171774357  0.08277682730014078  0.21532119965054308  1.0000
  C   C23       1.0  0.9133003736813257  0.09262242855922943  0.07994137385580992  1.0000
  C   C24       1.0  0.8615730721707334  0.006008969854979897  0.019970102974603773  1.0000
  C   C25       1.0  0.8217225926205851  0.9119899652539954  0.09806159373386604  1.0000
  C   C26       1.0  0.8347809810853414  0.9018895577987728  0.2334063676794762  1.0000
  N   N3        1.0  0.8460739422372048  0.015544870251493315  0.8811505449911725  1.0000
  C   C27       1.0  0.9020988206781699  0.0549089332671302  0.7875122673154884  1.0000
  O   O1        1.0  0.9724784478702929  0.06052356457180629  0.821115781483976  1.0000
  C   C28       1.0  0.8776332181377298  0.08025866226830769  0.6469818113949044  1.0000
  H   H9        1.0  0.9261422291643074  0.40378458548119817  0.6947786578110022  1.0000
  H   H10       1.0  0.9019185796376075  0.18367785620818913  0.4541858156011642  1.0000
  H   H11       1.0  0.9036781334128721  0.7666505477457934  0.4532029451685123  1.0000
  H   H12       1.0  0.9375761428555386  0.9484484558942287  0.8144431927118138  1.0000
  H   H13       1.0  0.9461102267295572  0.6144558723363944  0.8989676467116692  1.0000
  H   H14       1.0  0.9672949879361802  0.14962294172161572  0.2587562135038606  1.0000
  H   H15       1.0  0.9427364109163004  0.16935189318231525  0.022767435668877397  1.0000
  H   H16       1.0  0.7806848547668789  0.8458445106960719  0.05375358133867203  1.0000
  H   H17       1.0  0.8028796810615408  0.8286689119422609  0.2912119214345179  1.0000
  H   H18       1.0  0.7920401734053245  0.9843094125690657  0.8456668116086355  1.0000
  H   H19       1.0  0.8222534314148553  0.13128406883257668  0.6380066226399506  1.0000
  H   H20       1.0  0.8705370471393576  0.9863298129451877  0.6011806421902559  1.0000
  H   H21       1.0  0.9213117087297514  0.14224681981904852  0.5951557056862149  1.0000
  C   C29       1.0  0.9210213043846147  0.46108416998341495  0.26100638973666634  1.0000
  C   C30       1.0  0.8458548935952566  0.4086741621042824  0.2576902434660658  1.0000
  C   C31       1.0  0.8077463584963925  0.38221927043555953  0.138861303174868  1.0000
  C   C32       1.0  0.8458026849759797  0.40889836451516004  0.022381021826616495  1.0000
  C   C33       1.0  0.9209695252176544  0.46130889862054625  0.02370494117672161  1.0000
  C   C34       1.0  0.9581587116671587  0.4871054778821047  0.14350309244025583  1.0000
  C   C35       1.0  0.7282267518974753  0.32676545140797786  0.1364078867315075  1.0000
  C   C36       1.0  0.6732935933174689  0.3730362297006633  0.040759827993768434  1.0000
  C   C37       1.0  0.5985575323921646  0.32083768088473197  0.03872338129371555  1.0000
  C   C38       1.0  0.57766819176251  0.22198407640840265  0.13173350199827216  1.0000
  C   C39       1.0  0.6318447915293071  0.17427554779603782  0.2281827863228647  1.0000
  C   C40       1.0  0.7066849965117246  0.2271182388132105  0.22977617104508988  1.0000
  O   O2        1.0  0.6138087745987761  0.07490758101099626  0.3235610273160652  1.0000
  C   C41       1.0  0.5402832719102582  0.012417638931419226  0.3336124334332926  1.0000
  H   H22       1.0  0.9496731481303071  0.48099676188479906  0.589728393602416  1.0000
  H   H23       1.0  0.8163846528660101  0.38995660910533436  0.34756618241762527  1.0000
  H   H24       1.0  0.8170482451476789  0.3870462383892876  0.9307077929872244  1.0000
  H   H25       1.0  0.016146761118879475  0.5275367696304454  0.14529299517238317  1.0000
  H   H26       1.0  0.9495958540998597  0.4813401794195662  0.6967507568038976  1.0000
  H   H27       1.0  0.6878666679008724  0.4507445778008073  0.9686081653869936  1.0000
  H   H28       1.0  0.5566029598479376  0.3574030070299561  0.9649485176405488  1.0000
  H   H29       1.0  0.5193922659688007  0.18340137637200926  0.12781439636024783  1.0000
  H   H30       1.0  0.7483017786938931  0.18878800905460819  0.3033502067004985  1.0000
  H   H31       1.0  0.5244814065640869  0.9632680482306991  0.24347604371884368  1.0000
  H   H32       1.0  0.5422713789842768  0.9380232594512065  0.41746873805152984  1.0000
  H   H33       1.0  0.4965707456115955  0.08477171600308364  0.35029833495624385  1.0000
  Zn  Zn1       1.0  0.8369305418690494  0.4575255365444902  0.6354936355873683  1.0000
  Zn  Zn2       1.0  0.00505291635270044  0.4648665646370543  0.6492165148714248  1.0000
  C   C42       1.0  0.9209787413623237  0.45609231269957173  0.8795400856411766  1.0000
  C   C43       1.0  0.9210065523737256  0.4663015074094301  0.40517034161497234  1.0000
  C   C44       1.0  0.9209385151406304  0.6984023702892148  0.6371057616021202  1.0000
  C   C45       1.0  0.9210467215728495  0.2239898869311936  0.6476047306977248  1.0000
  O   O3        1.0  0.9848031676764438  0.47083270930386933  0.45876084377416954  1.0000
  O   O4        1.0  0.9847831184512567  0.45713180137123177  0.8363645578144583  1.0000
  O   O5        1.0  0.9847497751011788  0.6528002001466036  0.6405970552605434  1.0000
  O   O6        1.0  0.9848364536622699  0.2751643172856406  0.6545282442728144  1.0000
  O   O7        1.0  0.8571469471875642  0.6472277813921825  0.6301819014962022  1.0000
  O   O8        1.0  0.8571802901882961  0.4515609430016833  0.8259493343166449  1.0000
  O   O9        1.0  0.857200339580726  0.46526180521764404  0.44834405897445745  1.0000
  O   O10       1.0  0.8572336255588889  0.269593403938551  0.6441115568385964  1.0000
