data_image0
_chemical_formula_structural       NC9NC5H8C7NH5C6NCH7Zn2C4O8
_chemical_formula_sum              "N4 C32 H20 Zn2 O8"
_cell_length_a       17.807436237873137
_cell_length_b       10.302819778424748
_cell_length_c       9.273390368590329
_cell_angle_alpha    86.16779703784611
_cell_angle_beta     89.39974432744097
_cell_angle_gamma    88.39001009685678

_space_group_name_H-M_alt    "P 1"
_space_group_IT_number       1

loop_
  _space_group_symop_operation_xyz
  'x, y, z'

loop_
  _atom_site_type_symbol
  _atom_site_label
  _atom_site_symmetry_multiplicity
  _atom_site_fract_x
  _atom_site_fract_y
  _atom_site_fract_z
  _atom_site_occupancy
  N   N1        1.0  0.7075436330906087  0.3720169460108194  0.3986892732813243  1.0000
  C   C1        1.0  0.6469571229591048  0.33672096326883105  0.38645480164474555  1.0000
  C   C2        1.0  0.5715941633774073  0.29281664755374903  0.3712364473336718  1.0000
  C   C3        1.0  0.553512414453094  0.2203089145041923  0.25470323079997925  1.0000
  C   C4        1.0  0.4803388769939255  0.17756886616349354  0.23983548772812413  1.0000
  C   C5        1.0  0.4241983730078654  0.2069587921144673  0.3414649458093493  1.0000
  C   C6        1.0  0.346433757940658  0.16165288110654785  0.32575547223791257  1.0000
  C   C7        1.0  0.2842550062488783  0.24365938487756497  0.3545427774541994  1.0000
  C   C8        1.0  0.2109391627079083  0.20071650568468358  0.3396902177002814  1.0000
  C   C9        1.0  0.147710287356601  0.2854174017043676  0.3688813874958492  1.0000
  N   N2        1.0  0.0968872599348668  0.35351107376167445  0.3923502817451419  1.0000
  C   C10       1.0  0.19921852838260454  0.07550895252046642  0.2960222191748716  1.0000
  C   C11       1.0  0.2605399110259328  0.9934885116369917  0.26722560298209896  1.0000
  C   C12       1.0  0.3337363412635716  0.03603482060155238  0.281853383430553  1.0000
  C   C13       1.0  0.4429715061710639  0.27996306739695487  0.4582414658220473  1.0000
  C   C14       1.0  0.5161979293128377  0.3225111274485426  0.47293646604770195  1.0000
  H   H1        1.0  0.5959139323137508  0.1970694057372888  0.17511570243162256  1.0000
  H   H2        1.0  0.4674339581591923  0.12302288365918135  0.14780952653319712  1.0000
  H   H3        1.0  0.2927497981598198  0.34140097571182837  0.3865908383689267  1.0000
  H   H4        1.0  0.14275448402944485  0.04137085484854342  0.284263900321589  1.0000
  H   H5        1.0  0.2513468846494238  0.8965540284478323  0.23384531429406352  1.0000
  H   H6        1.0  0.380378938497042  0.9701077072886318  0.2607132550323237  1.0000
  H   H7        1.0  0.4012867497274247  0.30267743141240494  0.5392656408703695  1.0000
  H   H8        1.0  0.5296312932109077  0.37826626667530716  0.5638064202459245  1.0000
  C   C15       1.0  0.9022190286444031  0.9815108826184198  0.39552594666785446  1.0000
  C   C16       1.0  0.8583573468066593  0.9749039647056179  0.522452120870631  1.0000
  C   C17       1.0  0.8365357279044977  0.8545143814341764  0.5855990932392585  1.0000
  C   C18       1.0  0.8583574074398395  0.7396029520581864  0.5224521246067981  1.0000
  C   C19       1.0  0.9022190410241709  0.7440069096220508  0.3955259893045697  1.0000
  C   C20       1.0  0.9239207283785466  0.8654829038682423  0.3327260839112869  1.0000
  C   C21       1.0  0.7915711466874679  0.8488704276867748  0.7157170717167793  1.0000
  N   N3        1.0  0.7554343368396311  0.8443345649623126  0.8202892457106592  1.0000
  H   H9        1.0  0.9188327636141772  0.31133584728095454  0.34744878388770695  1.0000
  H   H10       1.0  0.8410587884718109  0.06315693988660431  0.5725101568163864  1.0000
  H   H11       1.0  0.841058882237971  0.6470073309779402  0.5725101210496177  1.0000
  H   H12       1.0  0.9577453074952139  0.8697284821535107  0.23484518794002843  1.0000
  H   H13       1.0  0.9188328325253603  0.41835276446646064  0.34744889230903153  1.0000
  C   C22       1.0  0.9022538543483003  0.35870867609247664  0.9722796356273801  1.0000
  C   C23       1.0  0.9712543240979594  0.3528494023128954  0.04475871995986869  1.0000
  C   C24       1.0  0.03905127037149381  0.35911625973087635  0.9682401256183976  1.0000
  C   C25       1.0  0.03957030721076536  0.3715122365642476  0.8166036873164981  1.0000
  C   C26       1.0  0.9710277507354749  0.3751602519294546  0.7433075455381339  1.0000
  C   C27       1.0  0.9021842306054986  0.3668091864609145  0.8187723042091699  1.0000
  N   N4        1.0  0.10863701991118879  0.3792135967462548  0.7346909368190846  1.0000
  C   C28       1.0  0.18281300705627831  0.37584096473751827  0.8004714703355651  1.0000
  H   H14       1.0  0.7836748732320401  0.3019809364370336  0.26005021946483753  1.0000
  H   H15       1.0  0.09081343522129504  0.3554613077893032  0.028518386640283614  1.0000
  H   H16       1.0  0.7271027399646426  0.27426751487206147  0.7261317270950736  1.0000
  H   H17       1.0  0.10619942425685157  0.3879337837416199  0.6218547906227512  1.0000
  H   H18       1.0  0.18768871943567442  0.458892939585808  0.8698606284217325  1.0000
  H   H19       1.0  0.19197692788137805  0.28260153148254075  0.8658762048965634  1.0000
  H   H20       1.0  0.22683987683905094  0.3835632123692901  0.7148640997225861  1.0000
  Zn  Zn1       1.0  0.8198997916338631  0.36667316656217136  0.3968683127922277  1.0000
  Zn  Zn2       1.0  0.9845310822194657  0.3588443836417201  0.39418309122467754  1.0000
  C   C29       1.0  0.9021956992812413  0.3601059706962433  0.6587670987446397  1.0000
  C   C30       1.0  0.9022369723290441  0.3654131334929604  0.1322844174131601  1.0000
  C   C31       1.0  0.9022156421160703  0.5998241896905074  0.38978260735143166  1.0000
  C   C32       1.0  0.9022169733107207  0.12569335807700144  0.40126898656412907  1.0000
  O   O1        1.0  0.9647080233631443  0.36468656430452473  0.18496445625104685  1.0000
  O   O2        1.0  0.9646759885269742  0.35488969139862403  0.6040486239713221  1.0000
  O   O3        1.0  0.9646912502789875  0.5484652392788252  0.38684175779868113  1.0000
  O   O4        1.0  0.9646927054425143  0.17111102734900974  0.40217121527277033  1.0000
  O   O5        1.0  0.8397381122302352  0.5544065255278019  0.3888801896528882  1.0000
  O   O6        1.0  0.839722850481137  0.36083253674221494  0.6060869789765213  1.0000
  O   O7        1.0  0.8397548855098363  0.3706293478210185  0.18700107840018254  1.0000
  O   O8        1.0  0.8397395675772436  0.17705380261373763  0.40420794548157724  1.0000
