data_image0
_chemical_formula_structural       NC8NH4C6NH7C7NH4Zn2C4O8
_chemical_formula_sum              "N4 C25 H15 Zn2 O8"
_cell_length_a       11.048855714531884
_cell_length_b       9.274771166103582
_cell_length_c       9.275157849593905
_cell_angle_alpha    86.00874675488272
_cell_angle_beta     89.74088388254012
_cell_angle_gamma    90.59705445283097

_space_group_name_H-M_alt    "P 1"
_space_group_IT_number       1

loop_
  _space_group_symop_operation_xyz
  'x, y, z'

loop_
  _atom_site_type_symbol
  _atom_site_label
  _atom_site_symmetry_multiplicity
  _atom_site_fract_x
  _atom_site_fract_y
  _atom_site_fract_z
  _atom_site_occupancy
  N   N1        1.0  0.15940099606965877  0.5633171637353724  0.40751310989511486  1.0000
  C   C1        1.0  0.10469767709116763  0.5045353454763035  0.32264919627945854  1.0000
  C   C2        1.0  0.03644478946006591  0.4311923921056488  0.21676298507190545  1.0000
  C   C3        1.0  0.9087280320270745  0.43119220246108153  0.21676308712178136  1.0000
  C   C4        1.0  0.845720836026854  0.35868942261755543  0.11209013501548215  1.0000
  C   C5        1.0  0.908911542594504  0.2867601394494004  0.008245065590881447  1.0000
  C   C6        1.0  0.03531775396567173  0.28676002951440127  0.008245088451446883  1.0000
  C   C7        1.0  0.09897837580825831  0.3586895208122658  0.11209010712520649  1.0000
  C   C8        1.0  0.8409542567178347  0.5045354203026385  0.3226491830127447  1.0000
  N   N2        1.0  0.7866348824755303  0.5633172066952918  0.4075131386024074  1.0000
  H   H1        1.0  0.7476556321973273  0.3577815132608287  0.11077873626869228  1.0000
  H   H2        1.0  0.859831471493483  0.23097011375725374  0.9277010277721643  1.0000
  H   H3        1.0  0.08403351368094203  0.2309702232028285  0.927701026963518  1.0000
  H   H4        1.0  0.19703764250912584  0.35778146685159484  0.11077901141971933  1.0000
  C   C9        1.0  0.469305080786241  0.13972818395182204  0.4082986191182254  1.0000
  C   C10       1.0  0.44193277511475293  0.2217952897831648  0.27942637309667406  1.0000
  C   C11       1.0  0.4258636177523356  0.1554963809473322  0.14973648894176556  1.0000
  C   C12       1.0  0.437233702042384  0.005743842867032668  0.1479794948677713  1.0000
  C   C13       1.0  0.46237452583582783  0.9223402523380908  0.27508141295464217  1.0000
  C   C14       1.0  0.4767422873594893  0.9868952073329833  0.40674013696570077  1.0000
  N   N3        1.0  0.39924016866184386  0.24064933836890215  0.019447862299060367  1.0000
  H   H5        1.0  0.6043438905149132  0.2224271894232262  0.7236886552768431  1.0000
  H   H6        1.0  0.43583234566375056  0.33838266429587716  0.27887280354904154  1.0000
  H   H7        1.0  0.42544293637788977  0.953295238201199  0.04819621347614443  1.0000
  H   H8        1.0  0.4677236382779286  0.8061364722107823  0.27095415531675776  1.0000
  H   H9        1.0  0.5627829315758442  0.6918962798070909  0.6213170307555573  1.0000
  H   H10       1.0  0.39090152291543134  0.3527227884968245  0.019401055173040808  1.0000
  H   H11       1.0  0.3875545488476442  0.192240775396334  0.9220345525583928  1.0000
  C   C15       1.0  0.4745938371826244  0.559234372423001  0.9843290936167354  1.0000
  C   C16       1.0  0.5793245553927651  0.6062583621998052  0.053938620881286856  1.0000
  C   C17       1.0  0.6779463491395744  0.6646249111402429  0.9739530839225916  1.0000
  C   C18       1.0  0.6729893074379152  0.6768953777875901  0.8232715629386564  1.0000
  C   C19       1.0  0.5707366471154797  0.6287033295004312  0.7523226427613658  1.0000
  C   C20       1.0  0.47145354600683564  0.5673889435248296  0.8307096622873961  1.0000
  C   C21       1.0  0.7838809349919332  0.7136577151034327  0.04686650780508494  1.0000
  N   N4        1.0  0.8690252113347477  0.7530668681948682  0.10547660945814363  1.0000
  H   H12       1.0  0.17968771223544946  0.5105990248535441  0.09225616452211248  1.0000
  H   H13       1.0  0.7487551811835462  0.7225225320407576  0.7603648301677642  1.0000
  H   H14       1.0  0.5705354766466137  0.63628698552361  0.6352442515244946  1.0000
  H   H15       1.0  0.27411008318011665  0.5285870385903109  0.5533745356256222  1.0000
  Zn  Zn1       1.0  0.34040709621698273  0.563313386541821  0.4075214443740456  1.0000
  Zn  Zn2       1.0  0.6056286618334757  0.5633092664777593  0.40751661985859156  1.0000
  C   C22       1.0  0.4719939521716078  0.5601011452252365  0.6707361582481974  1.0000
  C   C23       1.0  0.4740447175431111  0.5665233291379954  0.1443020440280678  1.0000
  C   C24       1.0  0.47535155971009535  0.8267072468364705  0.4012920114829143  1.0000
  C   C25       1.0  0.4706870040038128  0.29991549522977073  0.41374627081464393  1.0000
  O   O1        1.0  0.5745105746680976  0.568961713076785  0.19798860825562628  1.0000
  O   O2        1.0  0.5728251185263843  0.5576585420718622  0.617045519484525  1.0000
  O   O3        1.0  0.575535066703838  0.772946355275586  0.3994674618749636  1.0000
  O   O4        1.0  0.5718005364799852  0.353673909152124  0.4155665577949661  1.0000
  O   O5        1.0  0.37423513106341155  0.7729487438703598  0.39947150643173457  1.0000
  O   O6        1.0  0.3715251983797072  0.5576626629665289  0.6170494840140668  1.0000
  O   O7        1.0  0.3732106605891936  0.568965767012044  0.19799084025195632  1.0000
  O   O8        1.0  0.37050062190467803  0.35367795381122297  0.41556889785558204  1.0000
