data_image0
_chemical_formula_structural       NC5N2C2NH4C6ClH5C7F3H5Zn2C4O8
_chemical_formula_sum              "N4 C24 H14 Cl1 F3 Zn2 O8"
_cell_length_a       13.87973921873968
_cell_length_b       9.276545438789551
_cell_length_c       9.272721663655245
_cell_angle_alpha    85.91497059500672
_cell_angle_beta     90.51618180782579
_cell_angle_gamma    89.40960813042831

_space_group_name_H-M_alt    "P 1"
_space_group_IT_number       1

loop_
  _space_group_symop_operation_xyz
  'x, y, z'

loop_
  _atom_site_type_symbol
  _atom_site_label
  _atom_site_symmetry_multiplicity
  _atom_site_fract_x
  _atom_site_fract_y
  _atom_site_fract_z
  _atom_site_occupancy
  N   N1        1.0  0.8868589941280123  0.5692789216864962  0.4103711410347617  1.0000
  C   C1        1.0  0.8132421383755173  0.5934985607426424  0.3537285294303998  1.0000
  C   C2        1.0  0.7218126234750074  0.6235817171875004  0.2833722846840623  1.0000
  C   C3        1.0  0.6360220961280725  0.5932938857452075  0.35657652589221  1.0000
  C   C4        1.0  0.5489332230056703  0.6235816527883036  0.2833723245621955  1.0000
  C   C5        1.0  0.4587650170170949  0.5934984154914533  0.35372842608491495  1.0000
  N   N2        1.0  0.3861635630845042  0.5692788970059015  0.41037113002332526  1.0000
  N   N3        1.0  0.549337785736101  0.6814481952387558  0.14460500825254252  1.0000
  C   C6        1.0  0.6335147258203147  0.7116841678853967  0.07544533585383673  1.0000
  C   C7        1.0  0.6321785229506792  0.7713431229104788  0.921681092799148  1.0000
  N   N4        1.0  0.7189406847830655  0.681448148640855  0.1446050189796304  1.0000
  H   H1        1.0  0.6370075083204108  0.5469913255714209  0.46731528845672576  1.0000
  H   H2        1.0  0.6965793386371407  0.8390820224183557  0.8993175983266428  1.0000
  H   H3        1.0  0.6323663359795505  0.6810136506309012  0.8493840006329699  1.0000
  H   H4        1.0  0.566574527933785  0.8390799547425134  0.8993168308483871  1.0000
  C   C8        1.0  0.13942220889858237  0.14584244367905597  0.4101334396595331  1.0000
  C   C9        1.0  0.13898166872765746  0.22875883691719445  0.2770401778571323  1.0000
  C   C10       1.0  0.12979330978062564  0.1629603699619142  0.14684371446661526  1.0000
  C   C11       1.0  0.12083444645661465  0.013374164419576617  0.14773747223571632  1.0000
  C   C12       1.0  0.12274663758196303  0.9289058634183637  0.2783878055610407  1.0000
  C   C13       1.0  0.13360973301612433  0.9927043664258763  0.4106213217770831  1.0000
  Cl  Cl1       1.0  0.1280508490994541  0.2686725731429287  0.9822223409851981  1.0000
  H   H5        1.0  0.1900685492618006  0.4100535561761256  0.6368389447873892  1.0000
  H   H6        1.0  0.143478852207088  0.34546363449093365  0.274185276214473  1.0000
  H   H7        1.0  0.11330443406699087  0.9620962457099205  0.04700971392121734  1.0000
  H   H8        1.0  0.1180203960667674  0.8126307538041208  0.27573626207175184  1.0000
  H   H9        1.0  0.10272330450380095  0.6952565997446388  0.643790987474535  1.0000
  C   C14       1.0  0.13398286405814508  0.566934648470892  0.986932801707431  1.0000
  C   C15       1.0  0.17579699989103625  0.4489922189241986  0.06958719440087059  1.0000
  C   C16       1.0  0.22599663677624027  0.33962676005530357  0.003619184998251419  1.0000
  C   C17       1.0  0.2314435493186322  0.34626674359711623  0.8524731914541035  1.0000
  C   C18       1.0  0.1890790255342314  0.46120702805528674  0.7688487672707667  1.0000
  C   C19       1.0  0.1390490769586572  0.5716121429076984  0.8338219244308775  1.0000
  C   C20       1.0  0.2681041675320621  0.2121480684454744  0.09389310077493129  1.0000
  F   F1        1.0  0.30026259408584655  0.2540562907442867  0.22615019378064738  1.0000
  F   F2        1.0  0.34531153964216776  0.152505324002296  0.02473882595467747  1.0000
  F   F3        1.0  0.19808351755635245  0.10835701583096524  0.11686901483413627  1.0000
  H   H10       1.0  0.07055531054255626  0.9103014464442244  0.06335000430971949  1.0000
  H   H11       1.0  0.1710214661580478  0.44386944193539546  0.18642987668370004  1.0000
  H   H12       1.0  0.26763539951776405  0.26156215723152987  0.798516534070322  1.0000
  H   H13       1.0  0.19320434667550998  0.4616682020585659  0.6521944155340638  1.0000
  H   H14       1.0  0.9644847990602217  0.8148177589753921  0.7126711837047903  1.0000
  Zn  Zn1       1.0  0.030947584564424698  0.5692750965651896  0.4103794653660271  1.0000
  Zn  Zn2       1.0  0.24207511006091398  0.5692709756848575  0.410374619558906  1.0000
  C   C21       1.0  0.13812871222853554  0.5649836081176467  0.6737384545245849  1.0000
  C   C22       1.0  0.13489627626208  0.5735642842394806  0.1470157729251198  1.0000
  C   C23       1.0  0.1346690626470881  0.8325976667124995  0.4047829531166247  1.0000
  C   C24       1.0  0.13835586615090523  0.3059484936561419  0.41597135021429343  1.0000
  O   O1        1.0  0.21532466454417531  0.5757813960023013  0.20073923785921055  1.0000
  O   O2        1.0  0.21794123562289003  0.5627622786168887  0.6200108960166377  1.0000
  O   O3        1.0  0.215146453721883  0.7788640236761881  0.40282742661344373  1.0000
  O   O4        1.0  0.21811937368408854  0.35967966066225654  0.4179225991521842  1.0000
  O   O5        1.0  0.054903248893731105  0.7788664115907249  0.4028314857668187  1.0000
  O   O6        1.0  0.05769801843984168  0.5627663985228459  0.6200148792828692  1.0000
  O   O7        1.0  0.05508143739908666  0.5757854560849986  0.20074148742964185  1.0000
  O   O8        1.0  0.0578761472525746  0.3596837110286333  0.41792495682690634  1.0000
