data_image0
_chemical_formula_structural       NC10NC5H10C7OC3OC4H12C7OC6OCH11Zn2C4O8
_chemical_formula_sum              "N2 C47 H33 O12 Zn2"
_cell_length_a       19.4436361288709
_cell_length_b       10.299371110280154
_cell_length_c       10.299362532796529
_cell_angle_alpha    85.59679077391144
_cell_angle_beta     89.71996928525026
_cell_angle_gamma    89.43124194409341

_space_group_name_H-M_alt    "P 1"
_space_group_IT_number       1

loop_
  _space_group_symop_operation_xyz
  'x, y, z'

loop_
  _atom_site_type_symbol
  _atom_site_label
  _atom_site_symmetry_multiplicity
  _atom_site_fract_x
  _atom_site_fract_y
  _atom_site_fract_z
  _atom_site_occupancy
  N   N1        1.0  0.64761217603393  0.4088751257271728  0.5625838019395876  1.0000
  C   C1        1.0  0.5887802956120275  0.4187788394035737  0.576971111412776  1.0000
  C   C2        1.0  0.5154560794842656  0.43113010473777424  0.5949675871065303  1.0000
  C   C3        1.0  0.4732495740664764  0.39912124841533436  0.5002832864482215  1.0000
  C   C4        1.0  0.3973471921510432  0.4095602059913179  0.5056149244188779  1.0000
  C   C5        1.0  0.35762624115171304  0.384825833745956  0.6126783869120411  1.0000
  C   C6        1.0  0.2815035850766363  0.3887408152775274  0.5997204097598934  1.0000
  C   C7        1.0  0.24096600539242943  0.44641394775501575  0.6935104745600682  1.0000
  C   C8        1.0  0.16930094535591553  0.4500503687851719  0.682967869364213  1.0000
  C   C9        1.0  0.1371787196184251  0.3956176822455235  0.5789215887486683  1.0000
  C   C10       1.0  0.06338439134047612  0.39931532691494215  0.5682237232672669  1.0000
  N   N2        1.0  0.004058756591144002  0.40228803921898854  0.5596233486936872  1.0000
  C   C11       1.0  0.1769914012629884  0.33723750792531826  0.48551451435330994  1.0000
  C   C12       1.0  0.24867283418989639  0.3335468311879742  0.49580532460368243  1.0000
  C   C13       1.0  0.38578021383918665  0.34438161358552577  0.7437585442636363  1.0000
  C   C14       1.0  0.4444581864711908  0.3875094140196971  0.7910156465665485  1.0000
  C   C15       1.0  0.4886623751285116  0.4853581703685484  0.716682159628208  1.0000
  H   H1        1.0  0.4953273516726472  0.36999279622982373  0.40996686330944154  1.0000
  H   H2        1.0  0.3726330094977212  0.432043117913479  0.4124647108476887  1.0000
  H   H3        1.0  0.26485748539551207  0.48971498613889786  0.7743733170812284  1.0000
  H   H4        1.0  0.13897583114365392  0.4953741336553642  0.7559039765069757  1.0000
  H   H5        1.0  0.1526281276664816  0.29413216900433903  0.4049862205437714  1.0000
  H   H6        1.0  0.2783322067259176  0.2859797664995418  0.42356477667938397  1.0000
  H   H7        1.0  0.35481990201930586  0.2801726869302632  0.8079831086844899  1.0000
  H   H8        1.0  0.4596234571659472  0.35345454577918534  0.8889379491428808  1.0000
  H   H9        1.0  0.45855901813165806  0.5760691780401552  0.6914615273889776  1.0000
  H   H10       1.0  0.5319629160955854  0.5109520841404571  0.7797756522925342  1.0000
  C   C16       1.0  0.8257923692275358  0.024210948353886153  0.5609891559939397  1.0000
  C   C17       1.0  0.8178487124926752  0.033604880231470124  0.42507269779875695  1.0000
  C   C18       1.0  0.8130652688223569  0.9211704071539543  0.35669483529614104  1.0000
  C   C19       1.0  0.817882895333415  0.798336459878974  0.4253834937584222  1.0000
  C   C20       1.0  0.8258851478692154  0.786942126145588  0.5612292329577402  1.0000
  C   C21       1.0  0.8296135122700009  0.900480464139554  0.6282851813973598  1.0000
  C   C22       1.0  0.8053945737964354  0.9309484115162584  0.213014347244042  1.0000
  O   O1        1.0  0.8335794871256181  0.8453698724685635  0.14875857866464104  1.0000
  C   C23       1.0  0.7657418632362744  0.03772928228032879  0.14223423722424933  1.0000
  C   C24       1.0  0.7849487961828878  0.08249681011062648  0.014934661743875257  1.0000
  C   C25       1.0  0.7477372580574021  0.18217725598617812  0.9458642817278875  1.0000
  O   O2        1.0  0.7696785369604042  0.22354191928591563  0.8195866866180453  1.0000
  C   C26       1.0  0.7368823712826162  0.3236090312294705  0.7384256830627178  1.0000
  C   C27       1.0  0.6900498454678721  0.2371193880947378  0.004830333979690019  1.0000
  C   C28       1.0  0.6701365759528503  0.19207462688993482  0.13061874670318943  1.0000
  C   C29       1.0  0.7074700641168408  0.09267300594315535  0.19893595107132755  1.0000
  H   H11       1.0  0.8418324130690402  0.21380360622850203  0.8172438591943456  1.0000
  H   H12       1.0  0.8161382488973603  0.12855527466774253  0.37205823002663446  1.0000
  H   H13       1.0  0.8147132361202171  0.7115191276761652  0.3726884073539701  1.0000
  H   H14       1.0  0.8357379322452257  0.892434621568493  0.7330668080792768  1.0000
  H   H15       1.0  0.8295313306364052  0.45510702893620497  0.6132847914565053  1.0000
  H   H16       1.0  0.8294122114409795  0.04076571145508767  0.9691934285270563  1.0000
  H   H17       1.0  0.7649260440976035  0.3361542569285826  0.6443237316147936  1.0000
  H   H18       1.0  0.7379022465046131  0.4170607530893139  0.7854353473520758  1.0000
  H   H19       1.0  0.6829788545002717  0.2963659995476341  0.7191095392889646  1.0000
  H   H20       1.0  0.6601677272248764  0.31415582142436205  0.954191047020781  1.0000
  H   H21       1.0  0.6254130462071934  0.2339715766539832  0.17514043209563468  1.0000
  H   H22       1.0  0.6903260994085796  0.0578700060029027  0.2954551188375903  1.0000
  C   C30       1.0  0.8257850638635322  0.40545698962952065  0.17974271391031316  1.0000
  C   C31       1.0  0.7604899095277523  0.34798279132146814  0.1835541397577456  1.0000
  C   C32       1.0  0.7272605334964969  0.32032323246703354  0.06830788180587355  1.0000
  C   C33       1.0  0.7606836172954214  0.3481427700835374  0.9482982827349913  1.0000
  C   C34       1.0  0.8258924563934296  0.40569606029229777  0.9424756731752768  1.0000
  C   C35       1.0  0.8580104669199003  0.434277758974917  0.05874029226545942  1.0000
  C   C36       1.0  0.6586600879197403  0.2582930437608813  0.07466045657666731  1.0000
  O   O3        1.0  0.644598415752346  0.17934600306198936  0.17064879678644077  1.0000
  C   C37       1.0  0.6060146231369269  0.28581724663209146  0.9721912680682974  1.0000
  C   C38       1.0  0.6007405446808425  0.4092877356470335  0.9044206275030668  1.0000
  C   C39       1.0  0.5504008107255566  0.43439770439662534  0.8091507630280765  1.0000
  C   C40       1.0  0.5041232696751046  0.3375882355310452  0.7804554662125628  1.0000
  C   C41       1.0  0.5086740587308004  0.2143246680357933  0.8491503910740021  1.0000
  C   C42       1.0  0.5590076136702095  0.1890876138723605  0.9444926717141517  1.0000
  O   O4        1.0  0.45461499517938436  0.36766283887789375  0.6838913069398012  1.0000
  C   C43       1.0  0.40445651496960744  0.27882816810822897  0.6449069290841197  1.0000
  H   H23       1.0  0.9491143266069882  0.5134171844028153  0.37985754129037175  1.0000
  H   H24       1.0  0.7350215639554826  0.3257124184050293  0.2762925629729682  1.0000
  H   H25       1.0  0.7360938000090186  0.32351701907570807  0.859440517327642  1.0000
  H   H26       1.0  0.9083145097463046  0.4786717469614361  0.05498135376008718  1.0000
  H   H27       1.0  0.8510232721927411  0.4272897531096392  0.612804721267429  1.0000
  H   H28       1.0  0.635032015122124  0.48690505238100396  0.9259847394360889  1.0000
  H   H29       1.0  0.47359262481185654  0.13740774073504425  0.8296898323205345  1.0000
  H   H30       1.0  0.5616047861804968  0.0933980016908742  0.9958913461058847  1.0000
  H   H31       1.0  0.37215624951314225  0.3281203306206464  0.5671071711557332  1.0000
  H   H32       1.0  0.3708673941477844  0.24723575950183163  0.7287253993668037  1.0000
  H   H33       1.0  0.4300850380485284  0.1930342812145301  0.6060113083721705  1.0000
  Zn  Zn1       1.0  0.7504749614151277  0.40697076581995795  0.5617369900806761  1.0000
  Zn  Zn2       1.0  0.9011959629386354  0.4041817947450209  0.5604808383253648  1.0000
  C   C44       1.0  0.8258699838804454  0.40047720915790896  0.7983011828586748  1.0000
  C   C45       1.0  0.8258025865592205  0.4106769596182636  0.32391675981159707  1.0000
  C   C46       1.0  0.825863336143561  0.6427681321440042  0.556008729583652  1.0000
  C   C47       1.0  0.8258091826855279  0.16838447729618133  0.5662092822623579  1.0000
  O   O5        1.0  0.8830063012359041  0.4113647634773273  0.37182618183437044  1.0000
  O   O6        1.0  0.8830600217417257  0.3976716609414158  0.7494379965669982  1.0000
  O   O7        1.0  0.883053882746064  0.5933246601306454  0.5537851331393977  1.0000
  O   O8        1.0  0.8830123887881189  0.2157117744995241  0.5674789483194904  1.0000
  O   O9        1.0  0.7686584841319626  0.5954407870186061  0.554738880508383  1.0000
  O   O10       1.0  0.7686646233045197  0.39978934811851374  0.7503916751820784  1.0000
  O   O11       1.0  0.7686109026191159  0.41348240490798666  0.37277829904414267  1.0000
  O   O12       1.0  0.7686169901810959  0.21782940667190753  0.5684311628935754  1.0000
