data_image0
_chemical_formula_structural       NC8NC6H8C6OCH8C8H8Zn2C4O8
_chemical_formula_sum              "N2 C33 H24 O9 Zn2"
_cell_length_a       17.457602349358154
_cell_length_b       9.273888216677433
_cell_length_c       9.275657083861812
_cell_angle_alpha    86.0490458067009
_cell_angle_beta     92.37146316173272
_cell_angle_gamma    91.10627454168798

_space_group_name_H-M_alt    "P 1"
_space_group_IT_number       1

loop_
  _space_group_symop_operation_xyz
  'x, y, z'

loop_
  _atom_site_type_symbol
  _atom_site_label
  _atom_site_symmetry_multiplicity
  _atom_site_fract_x
  _atom_site_fract_y
  _atom_site_fract_z
  _atom_site_occupancy
  N   N1        1.0  0.720898338090268  0.6053059620064247  0.4808869822767392  1.0000
  C   C1        1.0  0.6601470013614522  0.5542666880105815  0.4689548478091155  1.0000
  C   C2        1.0  0.5845696724511725  0.4907802266406289  0.45412187894202005  1.0000
  C   C3        1.0  0.5254174381737191  0.535771664630845  0.5373590737449618  1.0000
  C   C4        1.0  0.4512624851713246  0.4746400272637818  0.5232149332555454  1.0000
  C   C5        1.0  0.3884832955914365  0.5221456585701996  0.611365852122018  1.0000
  C   C6        1.0  0.31411453706268777  0.5423437157802845  0.5495549090181195  1.0000
  C   C7        1.0  0.2549628328230584  0.5871315664551419  0.6329112698805683  1.0000
  C   C8        1.0  0.17916374427081475  0.6079901149767084  0.5686441765958192  1.0000
  N   N2        1.0  0.1182342305766486  0.6247533067253124  0.5169735798792421  1.0000
  C   C9        1.0  0.2696836653239805  0.6119940398523918  0.7786436139004957  1.0000
  C   C10       1.0  0.3432634201307097  0.5922299064772377  0.8408859175322769  1.0000
  C   C11       1.0  0.4024000955540547  0.5476444262208868  0.758038024745654  1.0000
  C   C12       1.0  0.4375598044502511  0.36775714717638563  0.42424143297518196  1.0000
  C   C13       1.0  0.49669661006605054  0.32307724940069504  0.3414489944646868  1.0000
  C   C14       1.0  0.5700632991295964  0.38433662946159863  0.35620370945585317  1.0000
  H   H1        1.0  0.5369730392477848  0.6196075489789359  0.6115406461143047  1.0000
  H   H2        1.0  0.3023837254581957  0.525169664257465  0.4363032100148983  1.0000
  H   H3        1.0  0.224336765742374  0.6465973216034014  0.8440283269579105  1.0000
  H   H4        1.0  0.3544732209451824  0.6111310802453871  0.9537286671070017  1.0000
  H   H5        1.0  0.4587369666130147  0.5312531338200286  0.809145552850731  1.0000
  H   H6        1.0  0.38139844051298066  0.31737226560918264  0.41227119464606  1.0000
  H   H7        1.0  0.485654381350695  0.24047422060408796  0.2659415492783314  1.0000
  H   H8        1.0  0.6154127589536298  0.34877068161440095  0.2913832120182813  1.0000
  C   C15       1.0  0.9218279193835305  0.19167063309727927  0.49766287220213407  1.0000
  C   C16       1.0  0.9045221060946363  0.27342518905356195  0.3673318710978286  1.0000
  C   C17       1.0  0.8806676299958313  0.20690084733709926  0.24206168549572712  1.0000
  C   C18       1.0  0.8739793267282314  0.055619274024476084  0.24664688069198526  1.0000
  C   C19       1.0  0.8921002976245566  0.9726952717886191  0.37427898802816606  1.0000
  C   C20       1.0  0.9173119605070912  0.038377927260580896  0.5002107860665497  1.0000
  O   O1        1.0  0.8638068205419512  0.2948660485745365  0.11600921376466933  1.0000
  C   C21       1.0  0.8388341179735996  0.2420379203462686  0.9810793635968622  1.0000
  H   H9        1.0  0.9264259227205419  0.27040196221049784  0.8528282617103059  1.0000
  H   H10       1.0  0.9077800266456256  0.3904382729744123  0.3633549028062273  1.0000
  H   H11       1.0  0.8554882375747076  0.000798522333065762  0.1517352111639343  1.0000
  H   H12       1.0  0.8881185583120416  0.8560295050422412  0.37343734724144406  1.0000
  H   H13       1.0  0.9236260201448188  0.7409781727185983  0.73872171536433  1.0000
  H   H14       1.0  0.7837399949763216  0.181302677155142  0.9926894264036762  1.0000
  H   H15       1.0  0.883051183723395  0.17137181646205057  0.9418698064834187  1.0000
  H   H16       1.0  0.8298796020585819  0.3348757886890805  0.9005670220437159  1.0000
  C   C22       1.0  0.9215344888372656  0.6129465736739783  0.07578777791811708  1.0000
  C   C23       1.0  0.9606637708056728  0.7247886536263355  0.14466587243741502  1.0000
  C   C24       1.0  0.9929902912856687  0.8424697750193898  0.06426872121533145  1.0000
  C   C25       1.0  0.9873306667154128  0.8473809480713923  0.9131339403845998  1.0000
  C   C26       1.0  0.9498538915737804  0.736265392575455  0.842955580003605  1.0000
  C   C27       1.0  0.9176054044327208  0.6171019728010991  0.9220859046583162  1.0000
  C   C28       1.0  0.035633764449975805  0.9601965493548694  0.1397454500572224  1.0000
  C   C29       1.0  0.12006747859033662  0.9231799353508001  0.1651147297193638  1.0000
  H   H17       1.0  0.9646421512708597  0.7223098548436422  0.2617428826390569  1.0000
  H   H18       1.0  0.012708094156074216  0.9367605213795311  0.8493603572614741  1.0000
  H   H19       1.0  0.8279675560301696  0.4465172792179937  0.6455300037462481  1.0000
  H   H20       1.0  0.030876735392376238  0.06465223847626866  0.07383874399569068  1.0000
  H   H21       1.0  0.010046229261577728  0.9752761445796868  0.2453550916435319  1.0000
  H   H22       1.0  0.12607248322865372  0.8208882956023584  0.23405000024089537  1.0000
  H   H23       1.0  0.147119113948596  0.911232082238789  0.060350429296730505  1.0000
  H   H24       1.0  0.15043821965274473  0.011231067349392278  0.22074199251880477  1.0000
  Zn  Zn1       1.0  0.8355608757599875  0.6109142202961286  0.4913091031461187  1.0000
  Zn  Zn2       1.0  0.003571686929186637  0.619133286173551  0.5065632207940336  1.0000
  C   C30       1.0  0.9183770090593845  0.610573120732272  0.7620999765478487  1.0000
  C   C31       1.0  0.9207573779441055  0.6194762952220805  0.23577266087143414  1.0000
  C   C32       1.0  0.9181882990466267  0.8783038392976195  0.4939866875893886  1.0000
  C   C33       1.0  0.9209460395080529  0.3517438421310908  0.5038860162364363  1.0000
  O   O2        1.0  0.9842558332179696  0.6247805325271516  0.2952538882938567  1.0000
  O   O3        1.0  0.9823948796839052  0.611505874621254  0.7141958533891357  1.0000
  O   O4        1.0  0.9822416275009612  0.8277017810898817  0.4976924020823659  1.0000
  O   O5        1.0  0.9844090285168043  0.4085846330365272  0.5117572263841019  1.0000
  O   O6        1.0  0.8547234768385527  0.8214628706299212  0.48611509234299444  1.0000
  O   O7        1.0  0.8548767201364896  0.6052686958837034  0.7026184720301656  1.0000
  O   O8        1.0  0.8567376820327178  0.6185432950467131  0.28367477433141497  1.0000
  O   O9        1.0  0.8568908768818441  0.4023473857748534  0.5001782204251286  1.0000
