data_image0
_chemical_formula_structural       NC9NC5H8C8H6C7ONH5Zn2C4O8
_chemical_formula_sum              "N3 C33 H19 O9 Zn2"
_cell_length_a       17.807436237873137
_cell_length_b       9.275140704573507
_cell_length_c       10.297855452804892
_cell_angle_alpha    85.67857769171053
_cell_angle_beta     89.38396818287444
_cell_angle_gamma    88.98377242316299

_space_group_name_H-M_alt    "P 1"
_space_group_IT_number       1

loop_
  _space_group_symop_operation_xyz
  'x, y, z'

loop_
  _atom_site_type_symbol
  _atom_site_label
  _atom_site_symmetry_multiplicity
  _atom_site_fract_x
  _atom_site_fract_y
  _atom_site_fract_z
  _atom_site_occupancy
  N   N1        1.0  0.7158282041611231  0.540955818702507  0.5600544095125577  1.0000
  C   C1        1.0  0.6550310489622698  0.5018993777126395  0.5489471194723314  1.0000
  C   C2        1.0  0.5794060701140338  0.45331746624798114  0.5351308568046858  1.0000
  C   C3        1.0  0.5608958414030893  0.37408648111460746  0.42994283522835164  1.0000
  C   C4        1.0  0.48746723543881715  0.326793459249586  0.41644523413237833  1.0000
  C   C5        1.0  0.4314978838773099  0.3583123766754099  0.5081023251056127  1.0000
  C   C6        1.0  0.353462885122432  0.3081796009859039  0.49384022603084315  1.0000
  C   C7        1.0  0.2917735282930932  0.3989191686072125  0.5199729005356022  1.0000
  C   C8        1.0  0.21820140179114267  0.3514007691624186  0.5064885144620235  1.0000
  C   C9        1.0  0.1554780259423623  0.4451276012482337  0.5329913756220612  1.0000
  N   N2        1.0  0.1050613851612911  0.5204774894347077  0.5542989358786872  1.0000
  C   C10       1.0  0.2057335460439859  0.2128564538010598  0.4668455036446928  1.0000
  C   C11       1.0  0.266565450856723  0.1221015133000587  0.44070440583942827  1.0000
  C   C12       1.0  0.34001580139352355  0.16918204868277356  0.45398530349906907  1.0000
  C   C13       1.0  0.450702456866864  0.4380920257357177  0.6135107600375869  1.0000
  C   C14       1.0  0.524182807665487  0.48517376867275536  0.626852240711028  1.0000
  H   H1        1.0  0.6031619878990125  0.3491550310071385  0.3581642979366404  1.0000
  H   H2        1.0  0.4742401830821873  0.26723751422535985  0.3333848064637399  1.0000
  H   H3        1.0  0.300851723298004  0.5070942907597717  0.5490805220665429  1.0000
  H   H4        1.0  0.1490657633641474  0.17508043991445255  0.45616999942823105  1.0000
  H   H5        1.0  0.2567939130159742  0.014837156466647183  0.4103980340381468  1.0000
  H   H6        1.0  0.3862648686715128  0.09621225296847657  0.4347814467924757  1.0000
  H   H7        1.0  0.4091498625916273  0.4624246406850083  0.6865828017063482  1.0000
  H   H8        1.0  0.5379455944172341  0.5460849586771637  0.7088736578599675  1.0000
  C   C15       1.0  0.9081669368939511  0.10739606804781254  0.5563019904166153  1.0000
  C   C16       1.0  0.9189010117608377  0.19031186668016686  0.4376562006332411  1.0000
  C   C17       1.0  0.9361844787378657  0.12412508596228333  0.32356900260456767  1.0000
  C   C18       1.0  0.9431472881970424  0.9738280377211129  0.325935370857922  1.0000
  C   C19       1.0  0.9314514857972358  0.8893826929957286  0.4424665769838223  1.0000
  C   C20       1.0  0.9127297464169635  0.9540258025360091  0.5580625344841164  1.0000
  C   C21       1.0  0.9614557204880873  0.9058376198720697  0.20820232688538254  1.0000
  C   C22       1.0  0.9767850827366698  0.8488973115786972  0.10963450154976928  1.0000
  H   H9        1.0  0.9204258233073683  0.18315228512681322  0.8752810922794709  1.0000
  H   H10       1.0  0.9156718025843458  0.3073079331776907  0.4337254228942382  1.0000
  H   H11       1.0  0.9448532748148903  0.1904392284403549  0.233645188708915  1.0000
  H   H12       1.0  0.9352375695291935  0.7725763207341203  0.4422501366226816  1.0000
  H   H13       1.0  0.9181009335051407  0.655146793934033  0.7730204585768482  1.0000
  H   H14       1.0  0.9902409727586311  0.798913987948299  0.02311265148225594  1.0000
  C   C23       1.0  0.9104785855623653  0.5308526841867443  0.17574009743942987  1.0000
  C   C24       1.0  0.8338423994962273  0.5696473253956451  0.17355920008855907  1.0000
  C   C25       1.0  0.7948002207074997  0.5880912138412991  0.05545511979160222  1.0000
  C   C26       1.0  0.833749330888224  0.5693278489436292  0.9383269635287568  1.0000
  C   C27       1.0  0.9104181074981392  0.5305691407807229  0.9386243781052768  1.0000
  C   C28       1.0  0.9482336695547295  0.5112550906002444  0.057799281205659137  1.0000
  C   C29       1.0  0.7139153756457697  0.6294054456938056  0.0557271595721085  1.0000
  O   O1        1.0  0.6864544922267716  0.6923784273053295  0.15007554550922353  1.0000
  N   N3        1.0  0.6656950148577047  0.5978454100914457  0.9517425391008824  1.0000
  H   H15       1.0  0.8042176967320189  0.5843524326843232  0.26418332964239677  1.0000
  H   H16       1.0  0.8049887969213588  0.5874679322549667  0.8463969076928612  1.0000
  H   H17       1.0  0.0072974438658615064  0.4813520715816076  0.05872671794840966  1.0000
  H   H18       1.0  0.6097959012469049  0.6338156310516821  0.9515539901092245  1.0000
  H   H19       1.0  0.6831909453100893  0.5311413185267562  0.8796541837528093  1.0000
  Zn  Zn1       1.0  0.8281524697796957  0.5350423659645722  0.5584010083830382  1.0000
  Zn  Zn2       1.0  0.9927370371699684  0.5263791875258073  0.5559629912356057  1.0000
  C   C30       1.0  0.9103969193989978  0.5248800641910231  0.7944110097651493  1.0000
  C   C31       1.0  0.9104943946015498  0.5365432135219916  0.3199530945035753  1.0000
  C   C32       1.0  0.9118638377434856  0.7939968860034611  0.5525536191127896  1.0000
  C   C33       1.0  0.9090274107562449  0.26742466270036425  0.5618105516383314  1.0000
  O   O2        1.0  0.972958651950567  0.5351590870950422  0.3674270658411467  1.0000
  O   O3        1.0  0.972848534640232  0.5196879512798896  0.7450862636453566  1.0000
  O   O4        1.0  0.9740322476710623  0.7370032321570836  0.5497847251017898  1.0000
  O   O5        1.0  0.9717748828214693  0.3178438195223656  0.5627285078447206  1.0000
  O   O6        1.0  0.8491145679635689  0.7435777369259027  0.5516354925990696  1.0000
  O   O7        1.0  0.8479308642689295  0.5262641880157872  0.7469369654853872  1.0000
  O   O8        1.0  0.8480409814822705  0.5417352741744337  0.36927620587545906  1.0000
  O   O9        1.0  0.846857212286814  0.3244199962551291  0.5645777452441729  1.0000
