data_image0
_chemical_formula_structural       NC9NC5H8C7OC3FC3H9C7OC4NC3H9Zn2C4O8
_chemical_formula_sum              "N3 C45 H26 O10 F1 Zn2"
_cell_length_a       17.807436237873137
_cell_length_b       10.299378350833068
_cell_length_c       10.29937507404574
_cell_angle_alpha    85.53063417163439
_cell_angle_beta     89.38493469783968
_cell_angle_gamma    88.41049276798935

_space_group_name_H-M_alt    "P 1"
_space_group_IT_number       1

loop_
  _space_group_symop_operation_xyz
  'x, y, z'

loop_
  _atom_site_type_symbol
  _atom_site_label
  _atom_site_symmetry_multiplicity
  _atom_site_fract_x
  _atom_site_fract_y
  _atom_site_fract_z
  _atom_site_occupancy
  N   N1        1.0  0.707796755198419  0.38834120566703606  0.5568425118380018  1.0000
  C   C1        1.0  0.6472026713359206  0.35315455039735394  0.5458235313279887  1.0000
  C   C2        1.0  0.571830290866515  0.30938622620547007  0.5321171159932319  1.0000
  C   C3        1.0  0.5537311666425592  0.23800850924228167  0.4271202258662532  1.0000
  C   C4        1.0  0.4805484570689613  0.19540137072903901  0.41372956477064227  1.0000
  C   C5        1.0  0.4244160770963302  0.22379442016232678  0.5053033993423579  1.0000
  C   C6        1.0  0.346641740285139  0.17862889446204913  0.49115465491410376  1.0000
  C   C7        1.0  0.2844805925522036  0.26037780332177074  0.5170821130407632  1.0000
  C   C8        1.0  0.2111555350730961  0.21756761533917746  0.5037051653538103  1.0000
  C   C9        1.0  0.1479448313007865  0.30200782176881646  0.5299961252109557  1.0000
  N   N2        1.0  0.0971364125979105  0.3698919054160519  0.5511333313226123  1.0000
  C   C10       1.0  0.1994080286727851  0.09275054017451922  0.4643754487113416  1.0000
  C   C11       1.0  0.2607118042776264  0.010987781751754076  0.4384396026308204  1.0000
  C   C12       1.0  0.3339173616226557  0.05340349285094437  0.4516140633962198  1.0000
  C   C13       1.0  0.44320669352109354  0.29566643612854443  0.6105194529205866  1.0000
  C   C14       1.0  0.5164422454700609  0.33808323301232224  0.6237544852352348  1.0000
  H   H1        1.0  0.5961262759828762  0.21554959391916276  0.35540743964257326  1.0000
  H   H2        1.0  0.4676303805013594  0.14174867121944223  0.3308133848015078  1.0000
  H   H3        1.0  0.2929963212224008  0.35783478904223087  0.5459453827007741  1.0000
  H   H4        1.0  0.142936660531764  0.05871744249560872  0.4537853490759936  1.0000
  H   H5        1.0  0.25149798228771075  0.914351372382419  0.4083757347542178  1.0000
  H   H6        1.0  0.3805458463939561  0.9876636273472139  0.43257497239104614  1.0000
  H   H7        1.0  0.4015282650877431  0.3175857984207595  0.6835268852938423  1.0000
  H   H8        1.0  0.5298889952502911  0.3929569474775066  0.7056287969036077  1.0000
  C   C15       1.0  0.9023909845061157  0.9977351584024292  0.5540530703778441  1.0000
  C   C16       1.0  0.8240093830753923  0.0014632079592782337  0.5391768960635577  1.0000
  C   C17       1.0  0.7843803852859221  0.8860596741467514  0.5331525850436469  1.0000
  C   C18       1.0  0.8241930785427413  0.7662104977790479  0.5391810779887916  1.0000
  C   C19       1.0  0.902549341093436  0.7604876728295467  0.553933949149817  1.0000
  C   C20       1.0  0.9411717161670169  0.8767925257925521  0.5616268706309651  1.0000
  C   C21       1.0  0.7017077471511856  0.8899547409507105  0.5160697460048489  1.0000
  O   O1        1.0  0.6726946424788309  0.8066649531479668  0.449831067202485  1.0000
  C   C22       1.0  0.6519487457086246  0.988237982030647  0.5741409904848667  1.0000
  C   C23       1.0  0.5850320970102588  0.03143173429761292  0.5113384032604604  1.0000
  C   C24       1.0  0.5373062206696185  0.12292921581516582  0.5661016625317583  1.0000
  F   F1        1.0  0.4732101668340414  0.1646809743398496  0.5043191249193648  1.0000
  C   C25       1.0  0.5555832698082206  0.17131397110663005  0.6844442725663025  1.0000
  C   C26       1.0  0.6214213154463479  0.12791851119089623  0.7484772957527384  1.0000
  C   C27       1.0  0.6693025040729986  0.036485121233251545  0.6941164901097745  1.0000
  H   H9        1.0  0.05043758342688798  0.19816914433646995  0.5801280616981919  1.0000
  H   H10       1.0  0.7937823942847042  0.09441039343312885  0.5308065872551202  1.0000
  H   H11       1.0  0.7937803209496904  0.6771853948803215  0.5335744474563167  1.0000
  H   H12       1.0  0.001598106064929048  0.8731144735853811  0.5730945533893732  1.0000
  H   H13       1.0  0.932721017188714  0.43091446651480314  0.5585041739983247  1.0000
  H   H14       1.0  0.5700702902215489  0.9951745554101061  0.4193951184630101  1.0000
  H   H15       1.0  0.5186175981188783  0.2420374251412241  0.7268672595914427  1.0000
  H   H16       1.0  0.6352216788424445  0.16471780674359282  0.8406511918013384  1.0000
  H   H17       1.0  0.7193656198816412  0.002530334945354922  0.7465370310466559  1.0000
  C   C28       1.0  0.9024957367714497  0.3792525515829734  0.17260634911822015  1.0000
  C   C29       1.0  0.9603421552312776  0.4696260860011068  0.16330034685738126  1.0000
  C   C30       1.0  0.9889348739382245  0.5163159107445054  0.041357615195028785  1.0000
  C   C31       1.0  0.9602204715727408  0.4693941069634018  0.9280768513815288  1.0000
  C   C32       1.0  0.9024445787234566  0.3789702800528514  0.9353806989463007  1.0000
  C   C33       1.0  0.8737818767104334  0.33468042525455144  0.05812036385846375  1.0000
  C   C34       1.0  0.050555927143236985  0.6107186760753212  0.03146157386328885  1.0000
  O   O2        1.0  0.09856352445234903  0.6037585796345366  0.9411233890164125  1.0000
  C   C35       1.0  0.057704202960475064  0.7130295419228665  0.12396753414309103  1.0000
  C   C36       1.0  0.1291541725673997  0.756206687206247  0.15466924421156136  1.0000
  C   C37       1.0  0.13645438445005564  0.8538764843196439  0.24076392018271697  1.0000
  C   C38       1.0  0.2098279252183657  0.8967531425467948  0.2724685647246101  1.0000
  N   N3        1.0  0.26881198464484335  0.9312155280494357  0.29795176662686207  1.0000
  C   C39       1.0  0.07231184892787956  0.9097691297732045  0.2958898202752265  1.0000
  C   C40       1.0  0.001112565020695788  0.8685918360247227  0.2646831729142147  1.0000
  C   C41       1.0  0.9936629983428428  0.7711991115625647  0.1788662044632492  1.0000
  H   H18       1.0  0.7941225103445345  0.20720598704745988  0.3975913967699909  1.0000
  H   H19       1.0  0.9838033777842675  0.5027170274561512  0.2511343322570647  1.0000
  H   H20       1.0  0.9825895834702886  0.5045714279348443  0.8339981288566284  1.0000
  H   H21       1.0  0.8291867643190952  0.26500835249362753  0.06449078926546581  1.0000
  H   H22       1.0  0.8806827395768984  0.3434132793766802  0.6107852961738995  1.0000
  H   H23       1.0  0.17908931858052735  0.7131187115342157  0.112562585927382  1.0000
  H   H24       1.0  0.07733912988783764  0.9854119303709908  0.36248367486546984  1.0000
  H   H25       1.0  0.9515519046044671  0.9126408032968238  0.3066353713206933  1.0000
  H   H26       1.0  0.9378557745758793  0.7424488010960058  0.1543860341708454  1.0000
  Zn  Zn1       1.0  0.8201517677084308  0.38301366796354225  0.5552024773592059  1.0000
  Zn  Zn2       1.0  0.9847813789768712  0.37520885265196324  0.5527840445774868  1.0000
  C   C42       1.0  0.9024515171752633  0.3738498468122833  0.7912008181748396  1.0000
  C   C43       1.0  0.9024834275919683  0.3843742272002249  0.31678580456926153  1.0000
  C   C44       1.0  0.9025158999856834  0.6163132879857447  0.5487810981293124  1.0000
  C   C45       1.0  0.9024189882763495  0.14190922831138852  0.55920559492567  1.0000
  O   O3        1.0  0.9649553748444111  0.3831255556643984  0.36425596516223613  1.0000
  O   O4        1.0  0.9649296354272981  0.3691738645019669  0.7418947493483667  1.0000
  O   O5        1.0  0.9649807830629801  0.5649661990461199  0.5461391224132865  1.0000
  O   O6        1.0  0.9649041710402516  0.1873332331100617  0.5600114955417868  1.0000
  O   O7        1.0  0.8400289194650444  0.5708892901702602  0.5479750272133666  1.0000
  O   O8        1.0  0.8399777721545553  0.3750985160062983  0.7437305846560263  1.0000
  O   O9        1.0  0.8400035117169125  0.38905016248682833  0.36609023900085425  1.0000
  O   O10       1.0  0.8399523079012249  0.19325783060749196  0.5618458667543955  1.0000
