data_image0
_chemical_formula_structural       NC9NC3NH7C12H9C9H10Zn2C4O8
_chemical_formula_sum              "N3 C37 H26 Zn2 O8"
_cell_length_a       16.053384444249904
_cell_length_b       10.299137764757564
_cell_length_c       9.272679976505533
_cell_angle_alpha    85.9999409853106
_cell_angle_beta     90.20084585415952
_cell_angle_gamma    89.19348198390439

_space_group_name_H-M_alt    "P 1"
_space_group_IT_number       1

loop_
  _space_group_symop_operation_xyz
  'x, y, z'

loop_
  _atom_site_type_symbol
  _atom_site_label
  _atom_site_symmetry_multiplicity
  _atom_site_fract_x
  _atom_site_fract_y
  _atom_site_fract_z
  _atom_site_occupancy
  N   N1        1.0  0.7783853559448751  0.3926417187899156  0.4059677897531848  1.0000
  C   C1        1.0  0.7272981928649331  0.37123305276151936  0.32289054516309035  1.0000
  C   C2        1.0  0.6638109738175784  0.34463271186114475  0.21968835736819783  1.0000
  C   C3        1.0  0.6768531361559159  0.33151470460079513  0.07457145244669516  1.0000
  C   C4        1.0  0.5999949013670112  0.30577035879850256  0.016576765435754266  1.0000
  C   C5        1.0  0.5433443768467889  0.3046140438328113  0.12943918913858976  1.0000
  C   C6        1.0  0.4526421909680202  0.280709544334371  0.11807402153201865  1.0000
  C   C7        1.0  0.3971663104804119  0.32417190359755854  0.222299559612132  1.0000
  C   C8        1.0  0.3115701666799816  0.3014999482424172  0.21141378830002225  1.0000
  C   C9        1.0  0.2553249622959936  0.34672614488002584  0.31827159784933157  1.0000
  N   N2        1.0  0.2101204136042396  0.3830816174076432  0.4041685420938066  1.0000
  C   C10       1.0  0.2807239106155006  0.23525375080467545  0.09631774211381376  1.0000
  C   C11       1.0  0.33519219076347  0.19191269685728835  0.9923271220221147  1.0000
  C   C12       1.0  0.420580597884433  0.21441576160571227  0.002772727743570292  1.0000
  N   N3        1.0  0.5830262925326958  0.3284747782907247  0.25326282922501253  1.0000
  H   H1        1.0  0.735363289522138  0.33973996601164336  0.01727119014799983  1.0000
  H   H2        1.0  0.5872885770876632  0.2911915673948542  0.9042714705449982  1.0000
  H   H3        1.0  0.4198443050277999  0.3772687282963856  0.310859892269544  1.0000
  H   H4        1.0  0.2146610343223547  0.21721877094810657  0.08696420086784085  1.0000
  H   H5        1.0  0.3112231719447781  0.14045588684830346  0.9035065525264435  1.0000
  H   H6        1.0  0.4613717385642096  0.17838666895117103  0.9214772480196389  1.0000
  H   H7        1.0  0.5572690827995784  0.33158017217367214  0.35623018226498715  1.0000
  C   C13       1.0  0.9941773078781875  0.006464598979347256  0.4052256340488834  1.0000
  C   C14       1.0  0.9935345346852362  0.015231833162559605  0.25342510745463165  1.0000
  C   C15       1.0  0.9932903482378119  0.9025425017170244  0.17630038492953082  1.0000
  C   C16       1.0  0.9936975729219014  0.7799701600871727  0.25302798316772346  1.0000
  C   C17       1.0  0.9943364550864893  0.7692486915091669  0.4049231314232997  1.0000
  C   C18       1.0  0.9945737859632819  0.8830067037700748  0.48008682082636295  1.0000
  C   C19       1.0  0.9926093711177024  0.9128623046914416  0.01571042959468972  1.0000
  C   C20       1.0  0.0425427707261965  0.828879929860748  0.9379458364905987  1.0000
  C   C21       1.0  0.041798235863703015  0.8388465667730487  0.7867841525763439  1.0000
  C   C22       1.0  0.9913224667897663  0.9324058421925512  0.7116773251266957  1.0000
  C   C23       1.0  0.9414859585462304  0.016258245620796245  0.7875797368144819  1.0000
  C   C24       1.0  0.942021030605281  0.006791150811004563  0.9387432678491376  1.0000
  H   H8        1.0  0.9943751041931514  0.1099151196457846  0.19480764437188944  1.0000
  H   H9        1.0  0.9923641799459553  0.6928040428739494  0.19414596683596597  1.0000
  H   H10       1.0  0.9950672910600107  0.87552885586148  0.5971740598227638  1.0000
  H   H11       1.0  0.9950125958971003  0.5417326455372665  0.6916194637835098  1.0000
  H   H12       1.0  0.08291976340702045  0.7567288006876598  0.993972100052428  1.0000
  H   H13       1.0  0.08056697231141113  0.7741533180625946  0.7278394296353405  1.0000
  H   H14       1.0  0.9908272835225909  0.9399274538073216  0.5946674957412705  1.0000
  H   H15       1.0  0.9022209422885491  0.08848988013700755  0.7292524336514057  1.0000
  H   H16       1.0  0.9021212730074131  0.07170029116252195  0.995397666323588  1.0000
  C   C25       1.0  0.9925672501803068  0.38482715965672076  0.9817199577134148  1.0000
  C   C26       1.0  0.049163091127286895  0.30323463912419424  0.061782102731086086  1.0000
  C   C27       1.0  0.10986348310872507  0.2320759610346099  0.9929557453203014  1.0000
  C   C28       1.0  0.11602065614775103  0.24016838741395044  0.8420645780953424  1.0000
  C   C29       1.0  0.05842452137631218  0.32002036037444714  0.7606230226793573  1.0000
  C   C30       1.0  0.9959465080605301  0.3908861521002424  0.8284288421560688  1.0000
  C   C31       1.0  0.18448768394482618  0.16041452730565006  0.7756619542894629  1.0000
  C   C32       1.0  0.16463935933799623  0.10141603125911298  0.6336683235154437  1.0000
  C   C33       1.0  0.22325739823084056  0.21641156075484758  0.6355595430171705  1.0000
  H   H17       1.0  0.8671542385880511  0.47541779110985494  0.2551587651470195  1.0000
  H   H18       1.0  0.04784294607328146  0.2967124582243337  0.17886479882429773  1.0000
  H   H19       1.0  0.15297634852916642  0.17109952652905425  0.0584322234269985  1.0000
  H   H20       1.0  0.060289128190755825  0.32559374327498336  0.6438341265543825  1.0000
  H   H21       1.0  0.8068457881312601  0.517257902701638  0.7144658584293759  1.0000
  H   H22       1.0  0.22801461560399158  0.10102467149828474  0.8476899457597555  1.0000
  H   H23       1.0  0.10276641629183247  0.12494978637985588  0.5842358091943134  1.0000
  H   H24       1.0  0.19697690706212612  0.007198670515498269  0.6192765550410596  1.0000
  H   H25       1.0  0.19703173380496408  0.3097384221222639  0.5871590014172625  1.0000
  H   H26       1.0  0.28986435199724614  0.18939532532670997  0.622269243303578  1.0000
  Zn  Zn1       1.0  0.9029747977990795  0.38987947577885196  0.405456884854689  1.0000
  Zn  Zn2       1.0  0.08553099310832679  0.38583336355418385  0.40469123397607265  1.0000
  C   C34       1.0  0.9953048263190657  0.3845668378396849  0.668384750306253  1.0000
  C   C35       1.0  0.9932029590029721  0.3911475970629117  0.1417635010131335  1.0000
  C   C36       1.0  0.9942791623671412  0.6250252472125971  0.3992354002170502  1.0000
  C   C37       1.0  0.9942285606424055  0.1506876292030228  0.41091292884367947  1.0000
  O   O1        1.0  0.06269543222914176  0.39172764893233086  0.19518501788932707  1.0000
  O   O2        1.0  0.06436827940905276  0.3809148976479282  0.6143817075144002  1.0000
  O   O3        1.0  0.06353911486363462  0.575088135654219  0.39704170642242476  1.0000
  O   O4        1.0  0.06352453405102221  0.1975544208240949  0.4125249111440848  1.0000
  O   O5        1.0  0.9249811945588842  0.5781584198910406  0.3976232079403726  1.0000
  O   O6        1.0  0.9258103591192943  0.3839867417538254  0.6149631315446998  1.0000
  O   O7        1.0  0.9241375050676426  0.3947994353743733  0.19576470863960888  1.0000
  O   O8        1.0  0.9249666073155614  0.20062619875018206  0.41310470998528004  1.0000
