data_image0
_chemical_formula_structural       NC10NC5H10C7OC3OC4H12C7OC3FC3H8Zn2C4O8
_chemical_formula_sum              "N2 C46 H30 O11 F1 Zn2"
_cell_length_a       19.4436361288709
_cell_length_b       10.299371110280154
_cell_length_c       10.29938172300155
_cell_angle_alpha    85.59389208423815
_cell_angle_beta     89.68829794462899
_cell_angle_gamma    89.43124194409341

_space_group_name_H-M_alt    "P 1"
_space_group_IT_number       1

loop_
  _space_group_symop_operation_xyz
  'x, y, z'

loop_
  _atom_site_type_symbol
  _atom_site_label
  _atom_site_symmetry_multiplicity
  _atom_site_fract_x
  _atom_site_fract_y
  _atom_site_fract_z
  _atom_site_occupancy
  N   N1        1.0  0.64803273409067  0.4089404514201973  0.5625773633675925  1.0000
  C   C1        1.0  0.5891966442415175  0.41884351124215913  0.5769647372853923  1.0000
  C   C2        1.0  0.5158671627196016  0.43119395869755195  0.5949612935901796  1.0000
  C   C3        1.0  0.47368835995713404  0.39918940545557496  0.5002765688155376  1.0000
  C   C4        1.0  0.3977844181154199  0.40962812072668797  0.5056082306680281  1.0000
  C   C5        1.0  0.3580321425757133  0.3848888828099264  0.6126721727271041  1.0000
  C   C6        1.0  0.2819132777350039  0.3888044532376285  0.5997141375327076  1.0000
  C   C7        1.0  0.24134825703027202  0.4464733232746422  0.6935046224436932  1.0000
  C   C8        1.0  0.16968628154057208  0.45011022343046236  0.6829619700246871  1.0000
  C   C9        1.0  0.1375944975788498  0.3956822654415271  0.578915223357995  1.0000
  C   C10       1.0  0.06380329927364221  0.3993803962926632  0.5682173099579897  1.0000
  N   N2        1.0  0.004480180814875699  0.40235349945457677  0.5596168968610299  1.0000
  C   C11       1.0  0.17743450818891832  0.3373063361561809  0.4855077305673419  1.0000
  C   C12       1.0  0.24911293023897166  0.3336151917363997  0.4957985869130089  1.0000
  C   C13       1.0  0.38614776393785233  0.34443870550073663  0.7437529172218185  1.0000
  C   C14       1.0  0.44481191012547755  0.38756435825982116  0.7910102312019447  1.0000
  C   C15       1.0  0.4890378472136701  0.4854164928136458  0.7166764113040145  1.0000
  H   H1        1.0  0.49579256226859103  0.37006505784530197  0.4099597411253182  1.0000
  H   H2        1.0  0.373097489275473  0.4321152660102551  0.4124575998520932  1.0000
  H   H3        1.0  0.2652160782489615  0.48977068671647556  0.7743678271711749  1.0000
  H   H4        1.0  0.1393398277416776  0.49543067360185544  0.7558984038678012  1.0000
  H   H5        1.0  0.1530947954948159  0.2942046569731456  0.4049790760500156  1.0000
  H   H6        1.0  0.27879343885547814  0.2860514101359577  0.4235577154039549  1.0000
  H   H7        1.0  0.35516866134738995  0.2802268600567574  0.8079777693216912  1.0000
  H   H8        1.0  0.45994853079295683  0.3535050397826366  0.8889329723984872  1.0000
  H   H9        1.0  0.4589418692487899  0.576128646677484  0.6914556660948197  1.0000
  H   H10       1.0  0.5323199283382128  0.5110075392002147  0.7797701865809863  1.0000
  C   C16       1.0  0.8262133938444836  0.024276346518163024  0.5609827102790987  1.0000
  C   C17       1.0  0.8183095034359067  0.03367645533798359  0.42506564327771046  1.0000
  C   C18       1.0  0.8135460657047288  0.9212450898025016  0.35668747449234184  1.0000
  C   C19       1.0  0.818343595344219  0.7984080208608649  0.4253764406295142  1.0000
  C   C20       1.0  0.8263061022446415  0.7870075133991806  0.5612227883182683  1.0000
  C   C21       1.0  0.8300148474708227  0.9005428039276256  0.6282790371194344  1.0000
  C   C22       1.0  0.805917408598603  0.9310296239558774  0.2130063428568685  1.0000
  O   O1        1.0  0.8341211218280541  0.8454540051150221  0.1487502864586765  1.0000
  C   C23       1.0  0.766285406825198  0.0378137114359869  0.14222591579401292  1.0000
  C   C24       1.0  0.7855295849775913  0.0825870246004148  0.014925770104757593  1.0000
  C   C25       1.0  0.7483382554074544  0.1822706094905735  0.9458550807040461  1.0000
  O   O2        1.0  0.7703164805060544  0.22364101167889783  0.8195769199630464  1.0000
  C   C26       1.0  0.7375440608483714  0.32371181211491007  0.738415552865854  1.0000
  C   C27       1.0  0.6906335905785367  0.2372100617919668  0.0048213970805830435  1.0000
  C   C28       1.0  0.6706835179924999  0.19215958393025767  0.13061037324406066  1.0000
  C   C29       1.0  0.7079970179646574  0.092754858198151  0.198927883623248  1.0000
  H   H11       1.0  0.8421784628943072  0.21385735848528165  0.817238561312928  1.0000
  H   H12       1.0  0.8166145507702555  0.12862925910208456  0.3720509380395933  1.0000
  H   H13       1.0  0.8151893536163446  0.7115930834710846  0.3726811181896612  1.0000
  H   H14       1.0  0.8361086105233283  0.8924921993868662  0.7330611331463104  1.0000
  H   H15       1.0  0.8299370546390595  0.4551700504411446  0.6132785799878167  1.0000
  H   H16       1.0  0.8300063831683234  0.04085800472885246  0.9691843320007087  1.0000
  H   H17       1.0  0.7656152659354241  0.33626131442868756  0.6443131799100952  1.0000
  H   H18       1.0  0.7385501820212015  0.4171613975448849  0.7854254277240842  1.0000
  H   H19       1.0  0.6836461955675893  0.296469658286322  0.7190993225699219  1.0000
  H   H20       1.0  0.6607662883367428  0.3142487965055041  0.9541818832947504  1.0000
  H   H21       1.0  0.6259469621285088  0.2340545103346439  0.17513225806105506  1.0000
  H   H22       1.0  0.6908248137571553  0.057947471788946325  0.2954474837247043  1.0000
  C   C30       1.0  0.826317633252995  0.4055397141520758  0.17973456049058556  1.0000
  C   C31       1.0  0.8480673406234925  0.27468274595492886  0.18837397335230954  1.0000
  C   C32       1.0  0.8597845579634948  0.20912453400130637  0.07551662078737875  1.0000
  C   C33       1.0  0.8480015933169763  0.27497709634348966  0.9531085619440304  1.0000
  C   C34       1.0  0.8262018318662206  0.405744100679248  0.9424709416772519  1.0000
  C   C35       1.0  0.815659372975883  0.47036946843302335  0.056370939116640276  1.0000
  C   C36       1.0  0.8820545653978156  0.07054393714984308  0.08453332903825705  1.0000
  O   O3        1.0  0.8608617240289034  0.9976911382873191  0.0005049587966501371  1.0000
  C   C37       1.0  0.928371484356756  0.014614676589480352  0.18877647716104118  1.0000
  C   C38       1.0  0.9228147465053196  0.8827559250820466  0.2340541099651823  1.0000
  C   C39       1.0  0.9667888678680647  0.8287359433163485  0.33122855951205765  1.0000
  F   F1        1.0  0.9606828630414768  0.7017810382358544  0.37490795020468287  1.0000
  C   C40       1.0  0.017030889586349355  0.9054314269467685  0.38330371605594254  1.0000
  C   C41       1.0  0.02357795749955183  0.036066424400750474  0.3379524191850026  1.0000
  C   C42       1.0  0.979740274427035  0.09049565703150497  0.240847942348063  1.0000
  H   H23       1.0  0.7842628590742067  0.6518881335056427  0.3708067641963664  1.0000
  H   H24       1.0  0.8551867665391073  0.22316048432824132  0.2831042076396664  1.0000
  H   H25       1.0  0.8565203223442698  0.22426996632107166  0.8659960437658417  1.0000
  H   H26       1.0  0.7988916464518258  0.5712501447835622  0.04890654279425078  1.0000
  H   H27       1.0  0.8840615937437376  0.8219555219390818  0.19498359811638058  1.0000
  H   H28       1.0  0.051093793855408354  0.8635933524401028  0.45842448422892346  1.0000
  H   H29       1.0  0.06287058575795945  0.09510911301265203  0.3776568226423842  1.0000
  H   H30       1.0  0.9865147331361716  0.19132982893317796  0.20556283204343198  1.0000
  Zn  Zn1       1.0  0.7508957672313894  0.40703612999771127  0.5617305477155844  1.0000
  Zn  Zn2       1.0  0.9016171362787513  0.4042472160106128  0.5604743903336327  1.0000
  C   C43       1.0  0.8262215759384767  0.400531822295108  0.7982958001279385  1.0000
  C   C44       1.0  0.8262929736241351  0.41075313191921614  0.32390925218602146  1.0000
  C   C45       1.0  0.8262858179295983  0.6428337566517766  0.5560022615601474  1.0000
  C   C46       1.0  0.8262286800021975  0.16844963822341688  0.5662028599298599  1.0000
  O   O4        1.0  0.8834826710012696  0.4114387584574727  0.37181888880792285  1.0000
  O   O5        1.0  0.8834259101508771  0.39772849474477395  0.7494323949649682  1.0000
  O   O6        1.0  0.8834770151101323  0.5933903856933377  0.5537786551558095  1.0000
  O   O7        1.0  0.8834315146269307  0.21577687772474152  0.5674725316741667  1.0000
  O   O8        1.0  0.769081337449405  0.5955064692367138  0.5547324067968846  1.0000
  O   O9        1.0  0.769030232687161  0.3998461385804122  0.7503860778518299  1.0000
  O   O10       1.0  0.7690869938148059  0.4135563566176333  0.3727710102824833  1.0000
  O   O11       1.0  0.7690358374217457  0.2178944666222009  0.568424750513476  1.0000
