data_image0
_chemical_formula_structural       NC6NCNCH5C9H10C6NH7Zn2C4O8
_chemical_formula_sum              "N4 C27 H22 Zn2 O8"
_cell_length_a       14.933214217465613
_cell_length_b       10.297183801781406
_cell_length_c       9.274774538082514
_cell_angle_alpha    85.03689992379437
_cell_angle_beta     90.31607823643775
_cell_angle_gamma    90.03175022610812

_space_group_name_H-M_alt    "P 1"
_space_group_IT_number       1

loop_
  _space_group_symop_operation_xyz
  'x, y, z'

loop_
  _atom_site_type_symbol
  _atom_site_label
  _atom_site_symmetry_multiplicity
  _atom_site_fract_x
  _atom_site_fract_y
  _atom_site_fract_z
  _atom_site_occupancy
  N   N1        1.0  0.8371513941939649  0.43496003077499834  0.4064541788232985  1.0000
  C   C1        1.0  0.7596573453122291  0.4358656491205546  0.4054620007310219  1.0000
  C   C2        1.0  0.6632541803329857  0.43699472488631863  0.4042248773327497  1.0000
  C   C3        1.0  0.6157939028782271  0.3499811480363386  0.49957442481559133  1.0000
  C   C4        1.0  0.5222563608327924  0.35096508384046565  0.4984962564783499  1.0000
  C   C5        1.0  0.47527695092762895  0.43891274201138697  0.402123178305104  1.0000
  C   C6        1.0  0.3787094414229804  0.4369966839428836  0.40422280296573176  1.0000
  N   N2        1.0  0.3012304870726074  0.43539827112987844  0.40597398014661445  1.0000
  C   C7        1.0  0.5228313970093095  0.5270250620600485  0.30556975422241495  1.0000
  N   N3        1.0  0.4771372017632802  0.6184364627713014  0.20540133724738485  1.0000
  C   C8        1.0  0.6168529711250953  0.525163263529633  0.3076100299775557  1.0000
  H   H1        1.0  0.651078570057048  0.28137679489448914  0.5747510875471649  1.0000
  H   H2        1.0  0.48645760672464927  0.2829378422125317  0.57304039314479  1.0000
  H   H3        1.0  0.5132226069675245  0.6829999800796303  0.13465254262638293  1.0000
  H   H4        1.0  0.40737537291696063  0.6233003284497898  0.2000715801978794  1.0000
  H   H5        1.0  0.6537790252279495  0.5925060404550397  0.23381576724119155  1.0000
  C   C9        1.0  0.06919913102308928  0.053701977925634685  0.4064185854476057  1.0000
  C   C10       1.0  0.06601273969423205  0.0647495580801194  0.25454976246820693  1.0000
  C   C11       1.0  0.06438005110772904  0.9537930688707712  0.17674292355584664  1.0000
  C   C12       1.0  0.06600001705408798  0.8295830678467002  0.25396114178375395  1.0000
  C   C13       1.0  0.0691913726751272  0.8166462058496182  0.4060220556652516  1.0000
  C   C14       1.0  0.07076924708209442  0.9291895505994806  0.48125815948433476  1.0000
  C   C15       1.0  0.060933496129453424  0.9751740014690573  0.012486068072943503  1.0000
  C   C16       1.0  0.008194408151943606  0.8770371254424857  0.9321993969394703  1.0000
  C   C17       1.0  0.11019557226679798  0.8774775951847184  0.927509063410019  1.0000
  H   H6        1.0  0.07043545268380935  0.37698345295659075  0.46493850536200076  1.0000
  H   H7        1.0  0.06478280488709487  0.1604368990517815  0.1959200177615552  1.0000
  H   H8        1.0  0.0648020648261607  0.7424291067282622  0.19695953599139226  1.0000
  H   H9        1.0  0.0732271660753794  0.9199386672297273  0.598428146013772  1.0000
  H   H10       1.0  0.07520704948781809  0.5849956550962889  0.6932223174081928  1.0000
  H   H11       1.0  0.05982653489140244  0.07630241776475488  0.9596910263262747  1.0000
  H   H12       1.0  0.9785620002517624  0.7928567366470095  0.9979099750230129  1.0000
  H   H13       1.0  0.9762152248176557  0.9186804058343688  0.8301209794687193  1.0000
  H   H14       1.0  0.14252339694053828  0.7935655619142944  0.9903712691659886  1.0000
  H   H15       1.0  0.13783157543445435  0.9193759538635926  0.8226880207805385  1.0000
  C   C18       1.0  0.06758814092524595  0.4384951084879804  0.9824039569159807  1.0000
  C   C19       1.0  0.1310393092045674  0.5152149526404606  0.049034972779138375  1.0000
  C   C20       1.0  0.19850797795702046  0.5812377040961976  0.9681659668867777  1.0000
  C   C21       1.0  0.2030719168783124  0.5708402754388384  0.8191892353461303  1.0000
  C   C22       1.0  0.1399080161316546  0.49698239913160286  0.7508538724349565  1.0000
  C   C23       1.0  0.07080233923988358  0.4318530364695259  0.8300367111416929  1.0000
  N   N4        1.0  0.2629871647685216  0.657777791541557  0.037801258143972394  1.0000
  H   H16       1.0  0.9337384565451919  0.1844255174339473  0.1085947411355932  1.0000
  H   H17       1.0  0.1294273397809509  0.5213745122046728  0.16505356803139914  1.0000
  H   H18       1.0  0.25516280514238443  0.6210798955633555  0.7555784821299043  1.0000
  H   H19       1.0  0.14390117023249882  0.4933726845755584  0.6346785691972578  1.0000
  H   H20       1.0  0.9778996455606356  0.2646803471532062  0.5641378910532624  1.0000
  H   H21       1.0  0.26038670626886695  0.6659216885585082  0.14916963793929816  1.0000
  H   H22       1.0  0.3137855613950562  0.7069946349928617  0.9784810578128837  1.0000
  Zn  Zn1       1.0  0.9710746280170326  0.43508294641719764  0.4063239487373249  1.0000
  Zn  Zn2       1.0  0.16730728363809622  0.43526460548755325  0.4061160676960207  1.0000
  C   C24       1.0  0.07019284711931295  0.4279334101331737  0.6698186640601855  1.0000
  C   C25       1.0  0.06819120791076033  0.4424157817297316  0.1426214909051131  1.0000
  C   C26       1.0  0.06916640897506343  0.672478564823815  0.4003458537704543  1.0000
  C   C27       1.0  0.06921757940219718  0.19786906562894346  0.41209437902198465  1.0000
  O   O1        1.0  0.14286287289104393  0.4437948668072102  0.19631307209062632  1.0000
  O   O2        1.0  0.1444572256754274  0.4266912233418609  0.6159688910274865  1.0000
  O   O3        1.0  0.14362736570203793  0.6241645157614921  0.39836769051520027  1.0000
  O   O4        1.0  0.1436926654930852  0.24632158446640148  0.41391416445626916  1.0000
  O   O5        1.0  0.9946891791974395  0.6240259673778321  0.39852585204042423  1.0000
  O   O6        1.0  0.9955190388590378  0.42655423630782985  0.616126974788918  1.0000
  O   O7        1.0  0.9939246795548713  0.4436578481013451  0.19646942068642057  1.0000
  O   O8        1.0  0.9947544725636568  0.24618455562119634  0.41407062126205463  1.0000
