data_image0
_chemical_formula_structural       NC8NC6H8C6SCH8C6BrH4Zn2C4O8
_chemical_formula_sum              "N2 C31 H20 S1 Br1 Zn2 O8"
_cell_length_a       17.457602349358154
_cell_length_b       10.302809429070853
_cell_length_c       10.302972455390005
_cell_angle_alpha    85.56069891033052
_cell_angle_beta     92.87591776842113
_cell_angle_gamma    91.68806441137123

_space_group_name_H-M_alt    "P 1"
_space_group_IT_number       1

loop_
  _space_group_symop_operation_xyz
  'x, y, z'

loop_
  _atom_site_type_symbol
  _atom_site_label
  _atom_site_symmetry_multiplicity
  _atom_site_fract_x
  _atom_site_fract_y
  _atom_site_fract_z
  _atom_site_occupancy
  N   N1        1.0  0.7224247793442024  0.4523866135926944  0.6269594157207825  1.0000
  C   C1        1.0  0.661346848170454  0.4064756039346158  0.6163472016901475  1.0000
  C   C2        1.0  0.5853633187576768  0.34936802051500554  0.6031551462437248  1.0000
  C   C3        1.0  0.526834694107803  0.3895173123906292  0.6780280823807963  1.0000
  C   C4        1.0  0.45228924737179116  0.33452733614980157  0.6654502618645728  1.0000
  C   C5        1.0  0.3901697266409179  0.37691907466739344  0.7447435409159173  1.0000
  C   C6        1.0  0.3156230570230891  0.39538189088211023  0.688998448729959  1.0000
  C   C7        1.0  0.2570944295505816  0.43534731386324466  0.7639793029062356  1.0000
  C   C8        1.0  0.1811096043850713  0.45441580072006643  0.7060194814870389  1.0000
  N   N2        1.0  0.12003072145969354  0.46974048642596844  0.6594199360644282  1.0000
  C   C9        1.0  0.2726203090221107  0.45709298593089387  0.895213598880832  1.0000
  C   C10       1.0  0.3463822746398496  0.4390190354342476  0.9513461611245853  1.0000
  C   C11       1.0  0.40489929722157875  0.3992336101855584  0.876822877055844  1.0000
  C   C12       1.0  0.4375610710368405  0.23871086087443594  0.5765670588767271  1.0000
  C   C13       1.0  0.49607797755807614  0.1988401620674607  0.5020939939105789  1.0000
  C   C14       1.0  0.5698386586760973  0.2539424780321209  0.5152215825639181  1.0000
  H   H1        1.0  0.5391787354852483  0.46468828135376933  0.744636779022473  1.0000
  H   H2        1.0  0.30327804805959657  0.3804164571660955  0.5870076692883572  1.0000
  H   H3        1.0  0.2277593403921886  0.48796609207921227  0.9540299985153095  1.0000
  H   H4        1.0  0.358213572454436  0.4555416493310567  0.052963803202416344  1.0000
  H   H5        1.0  0.46138491640239554  0.38424633079071424  0.9229141014511592  1.0000
  H   H6        1.0  0.3810764178498882  0.19338933733260213  0.5659187398388759  1.0000
  H   H7        1.0  0.4842477458070833  0.1247853124534044  0.4342873717676981  1.0000
  H   H8        1.0  0.6146996713105256  0.22219994141900767  0.45691613912696516  1.0000
  C   C15       1.0  0.9212314339527207  0.0798102771056668  0.6431956171025828  1.0000
  C   C16       1.0  0.9654900857507437  0.08940603760701071  0.5325744220815896  1.0000
  C   C17       1.0  0.987301196026887  0.9771923586090784  0.47736857862697374  1.0000
  C   C18       1.0  0.965489989012575  0.8542548754641947  0.5325743444127748  1.0000
  C   C19       1.0  0.9212314033730244  0.842307137140072  0.6431956077906311  1.0000
  C   C20       1.0  0.8992985008288215  0.9557265678341191  0.6979393904080857  1.0000
  S   S1        1.0  0.04398970182118788  0.9909491502600924  0.3361968975671237  1.0000
  C   C21       1.0  0.9608499330919855  0.9956183999850449  0.22226872169852574  1.0000
  H   H9        1.0  0.9045272574481699  0.40350831604263604  0.6848534186374668  1.0000
  H   H10       1.0  0.9830691463598412  0.18378427350080817  0.4886338778729369  1.0000
  H   H11       1.0  0.9830689770561466  0.7684338726233962  0.4886337628830415  1.0000
  H   H12       1.0  0.86514731544082  0.9474183559917456  0.7832520819210947  1.0000
  H   H13       1.0  0.9045260042526498  0.5104924933674547  0.684851888719286  1.0000
  H   H14       1.0  0.9256424862761001  0.9046265762424675  0.2367060921620878  1.0000
  H   H15       1.0  0.9256432047705017  0.08086156926744922  0.23670567888781682  1.0000
  H   H16       1.0  0.9806599936950875  0.004424463227732377  0.12127011782646148  1.0000
  C   C22       1.0  0.9212313923544169  0.4610586898788913  0.2619530356156925  1.0000
  C   C23       1.0  0.9435997536339656  0.3306757819003803  0.27273025392393313  1.0000
  C   C24       1.0  0.9546957104711893  0.2659988217937399  0.1611385042917175  1.0000
  C   C25       1.0  0.9435998829431691  0.33067573687075824  0.037647873879405935  1.0000
  C   C26       1.0  0.92123142865357  0.4610586950161552  0.02443812065364792  1.0000
  C   C27       1.0  0.9101552260171328  0.5256204964982922  0.13725676089716177  1.0000
  Br  Br1       1.0  0.9851203779292962  0.08865552335390947  0.17745175785908374  1.0000
  H   H17       1.0  0.912812460184768  0.5101338344478612  0.585198161824291  1.0000
  H   H18       1.0  0.952504074502291  0.2787727271494216  0.36750393108804746  1.0000
  H   H19       1.0  0.9525043776595821  0.27877278387412385  0.9524230532084442  1.0000
  H   H20       1.0  0.8929038485103888  0.6261767931167286  0.12800689694712464  1.0000
  Zn  Zn1       1.0  0.8371652655105721  0.45739108478058377  0.6363343166903883  1.0000
  Zn  Zn2       1.0  0.005290221044560451  0.46472537064327624  0.6500556641001234  1.0000
  C   C28       1.0  0.9212297186092767  0.45588652016364745  0.8803119902192647  1.0000
  C   C29       1.0  0.9212276038650743  0.4662316534736994  0.40607826783202916  1.0000
  C   C30       1.0  0.9212274558555075  0.6981788160544717  0.6380217916532374  1.0000
  C   C31       1.0  0.921229809249624  0.22393779525017288  0.648368530931724  1.0000
  O   O1        1.0  0.9850288768482851  0.47074540654817804  0.4596551921971001  1.0000
  O   O2        1.0  0.9850313967297211  0.456938340929337  0.8371488773257221  1.0000
  O   O3        1.0  0.9850287094387035  0.6525923965449835  0.6414977575439105  1.0000
  O   O4        1.0  0.9850315067696375  0.275091357717242  0.655306209954341  1.0000
  O   O5        1.0  0.8574239224126996  0.6470250952052002  0.6310837661469195  1.0000
  O   O6        1.0  0.8574266097001404  0.4513725994208365  0.8267348167058123  1.0000
  O   O7        1.0  0.8574240898696353  0.4651796197996021  0.4492395706980221  1.0000
  O   O8        1.0  0.8574267197878566  0.2695255616825365  0.6448906857905832  1.0000
