data_image0
_chemical_formula_structural       NC4NC3NH3C6H6C6H6Zn2C4O8
_chemical_formula_sum              "N3 C23 H15 Zn2 O8"
_cell_length_a       11.06051283748042
_cell_length_b       10.302277161923591
_cell_length_c       10.681121600428286
_cell_angle_alpha    85.56070482122752
_cell_angle_beta     89.99555946168071
_cell_angle_gamma    89.9992255405461

_space_group_name_H-M_alt    "P 1"
_space_group_IT_number       1

loop_
  _space_group_symop_operation_xyz
  'x, y, z'

loop_
  _atom_site_type_symbol
  _atom_site_label
  _atom_site_symmetry_multiplicity
  _atom_site_fract_x
  _atom_site_fract_y
  _atom_site_fract_z
  _atom_site_occupancy
  N   N1        1.0  0.13844346521777504  0.42095593190798253  0.618588677136527  1.0000
  C   C1        1.0  0.08373544661351384  0.39417785485046974  0.7092869241082489  1.0000
  C   C2        1.0  0.015482865335502808  0.36077058001427287  0.8224385333668076  1.0000
  C   C3        1.0  0.07749780149937036  0.32764724259567934  0.9346285146291745  1.0000
  C   C4        1.0  0.012207639276156755  0.2952098582079892  0.044495230747355626  1.0000
  N   N2        1.0  0.8893658904734212  0.2958623361297321  0.042285270517691605  1.0000
  C   C5        1.0  0.8266049042060784  0.3275900267403244  0.934822403566648  1.0000
  C   C6        1.0  0.8881447464865826  0.36082340804800883  0.8222594913847708  1.0000
  C   C7        1.0  0.8197990465759653  0.39420884471430484  0.7091819655983409  1.0000
  N   N3        1.0  0.7650162983849936  0.4209707250916974  0.6185387613166018  1.0000
  H   H1        1.0  0.17542929614054636  0.32689857302316505  0.9371642789041994  1.0000
  H   H2        1.0  0.05928694520932609  0.26947172337123715  0.13167113478666204  1.0000
  H   H3        1.0  0.728721792153381  0.3268566142628331  0.9373065126654483  1.0000
  C   C8        1.0  0.45173568944940556  0.039690188109827274  0.6185691414228611  1.0000
  C   C9        1.0  0.39488194472175353  0.9187274552694787  0.646378282107438  1.0000
  C   C10       1.0  0.4517356312430647  0.8022264222714118  0.6185691726282379  1.0000
  C   C11       1.0  0.5667049643027005  0.8079680283679184  0.5623336300007373  1.0000
  C   C12       1.0  0.6235696563298639  0.9277006900676891  0.5345190601246737  1.0000
  C   C13       1.0  0.566704946487915  0.04297097176829689  0.5623335449882443  1.0000
  H   H4        1.0  0.23493014366127116  0.24069894709751094  0.7246164022177279  1.0000
  H   H5        1.0  0.3063019362920494  0.9152518067346362  0.6897057588427071  1.0000
  H   H6        1.0  0.23493054630552956  0.5842034374804084  0.7246173815196559  1.0000
  H   H7        1.0  0.6127495714467077  0.7199823578851573  0.5398116341247106  1.0000
  H   H8        1.0  0.7121131374853362  0.9311750682476174  0.49120933781687176  1.0000
  H   H9        1.0  0.6127495885946821  0.13457000777062755  0.5398114998406993  1.0000
  C   C14       1.0  0.4517357037718359  0.42095828944106134  0.2508239178734799  1.0000
  C   C15       1.0  0.3651990182386491  0.34874642320813876  0.18940831539957892  1.0000
  C   C16       1.0  0.3651989427535016  0.34874650645813166  0.058526175452696005  1.0000
  C   C17       1.0  0.45173560872690793  0.4209583530841237  0.9863143535573915  1.0000
  C   C18       1.0  0.5382008693810525  0.4931103773123988  0.04772938136775239  1.0000
  C   C19       1.0  0.5382008539126029  0.4931103571792023  0.1786216800320295  1.0000
  H   H10       1.0  0.5392472322277431  0.4939843277730709  0.5440746975575601  1.0000
  H   H11       1.0  0.29736747884131143  0.29214334956930976  0.24245054740228486  1.0000
  H   H12       1.0  0.2973674535910116  0.29214341068457017  0.013946518178763906  1.0000
  H   H13       1.0  0.6060412667201892  0.5497209097771605  0.9947314840279509  1.0000
  H   H14       1.0  0.6060412058050202  0.549720864261052  0.2231558515172043  1.0000
  H   H15       1.0  0.5392476095672497  0.49398387542910727  0.6821456718140801  1.0000
  Zn  Zn1       1.0  0.31925886085892685  0.4209567122473099  0.6185815101364829  1.0000
  Zn  Zn2       1.0  0.5842009172160396  0.4209592765778514  0.6185562065020056  1.0000
  C   C20       1.0  0.4517329616970047  0.4157859385444041  0.847290928601699  1.0000
  C   C21       1.0  0.45172970953691693  0.4261316885167003  0.3898469106734446  1.0000
  C   C22       1.0  0.45172944666803516  0.6580908445030218  0.6135788504786706  1.0000
  C   C23       1.0  0.45173313415972677  0.18382522264660484  0.6235590555703001  1.0000
  O   O1        1.0  0.552271827447496  0.4278632373380535  0.43649469445035827  1.0000
  O   O2        1.0  0.552275734219646  0.4140553565142003  0.8006235794606035  1.0000
  O   O3        1.0  0.552271540406245  0.6097196324265013  0.6118994229539954  1.0000
  O   O4        1.0  0.5522759308541263  0.23219897071276163  0.6252187570694601  1.0000
  O   O5        1.0  0.3511837568091185  0.6097170181129374  0.6119189595710759  1.0000
  O   O6        1.0  0.3511879506169584  0.4140543021126535  0.8006430493059051  1.0000
  O   O7        1.0  0.35118404392533  0.42786213769184034  0.43651265867306766  1.0000
  O   O8        1.0  0.3511881473270095  0.23219786178007773  0.6252368151817236  1.0000
