data_image0
_chemical_formula_structural       NC9NC5H8C7NH5C7OH5Zn2C4O8
_chemical_formula_sum              "N3 C32 H18 O9 Zn2"
_cell_length_a       17.807436237873137
_cell_length_b       10.302819778424748
_cell_length_c       9.274081674992354
_cell_angle_alpha    86.07103821472641
_cell_angle_beta     89.07685020002327
_cell_angle_gamma    88.39001009685678

_space_group_name_H-M_alt    "P 1"
_space_group_IT_number       1

loop_
  _space_group_symop_operation_xyz
  'x, y, z'

loop_
  _atom_site_type_symbol
  _atom_site_label
  _atom_site_symmetry_multiplicity
  _atom_site_fract_x
  _atom_site_fract_y
  _atom_site_fract_z
  _atom_site_occupancy
  N   N1        1.0  0.7122090166793726  0.3742364769604795  0.39852267395565133  1.0000
  C   C1        1.0  0.6516581514119405  0.3389574520693299  0.38628692945260723  1.0000
  C   C2        1.0  0.57633953017087  0.29507423007942735  0.37106699183385716  1.0000
  C   C3        1.0  0.5585972982103102  0.22272802038473505  0.2545216512601709  1.0000
  C   C4        1.0  0.4854670775936336  0.1800085797970159  0.2396523613580046  1.0000
  C   C5        1.0  0.4290304784163307  0.20925764006599265  0.34129239290189495  1.0000
  C   C6        1.0  0.3513116325549153  0.1639735035095975  0.32558128492705385  1.0000
  C   C7        1.0  0.2890490096824336  0.24594010602109104  0.3543715851558371  1.0000
  C   C8        1.0  0.2157764387476921  0.20301781353602677  0.33951748015127015  1.0000
  C   C9        1.0  0.1524625155651123  0.2876782485110576  0.3687116869771423  1.0000
  N   N2        1.0  0.10157111203607397  0.35573939100600493  0.3921830229149157  1.0000
  C   C10       1.0  0.2041830301758135  0.07787078733426589  0.295844938435718  1.0000
  C   C11       1.0  0.26558831112716913  0.9958902606159927  0.2670453262617414  1.0000
  C   C12       1.0  0.3387421236481427  0.03841629443289562  0.2816746285749516  1.0000
  C   C13       1.0  0.4474633857564395  0.28210005475762917  0.45808106226772205  1.0000
  C   C14       1.0  0.5206469953382056  0.3246277464901508  0.47277759135163544  1.0000
  H   H1        1.0  0.6012306925847034  0.19959882561215722  0.17492584265716826  1.0000
  H   H2        1.0  0.47283027437315045  0.12559015184263345  0.14761682584197655  1.0000
  H   H3        1.0  0.297450430272651  0.3436372759557189  0.3864229803299608  1.0000
  H   H4        1.0  0.1477532434260623  0.04374898753144206  0.2840853962545964  1.0000
  H   H5        1.0  0.25649253748770545  0.8990020448892408  0.23366156471019897  1.0000
  H   H6        1.0  0.3854463121808206  0.9725184828466652  0.2605323007715248  1.0000
  H   H7        1.0  0.4055425671605542  0.3047021134839252  0.539113667018476  1.0000
  H   H8        1.0  0.5338156116229893  0.3802569334751852  0.5636569996007428  1.0000
  C   C15       1.0  0.9068936285156924  0.9837347981645267  0.3953590182317397  1.0000
  C   C16       1.0  0.8626621500605717  0.9769519515158058  0.5222983977510611  1.0000
  C   C17       1.0  0.8406565538430439  0.8564748420339852  0.5854519398895899  1.0000
  C   C18       1.0  0.8626622106828665  0.7416509388631959  0.5222984014876162  1.0000
  C   C19       1.0  0.9068936407712395  0.7462308251090605  0.3953590608728912  1.0000
  C   C20       1.0  0.9287782942689805  0.867793864506034  0.33255262181832945  1.0000
  C   C21       1.0  0.7953128767570715  0.8506505354821469  0.7155834557568939  1.0000
  N   N3        1.0  0.758871398179892  0.845969728261417  0.8201665093716872  1.0000
  H   H9        1.0  0.9236474352419883  0.31362640120584845  0.3472768535348718  1.0000
  H   H10       1.0  0.8452177487387936  0.0651355426864273  0.5723616417022919  1.0000
  H   H11       1.0  0.8452178426091592  0.6489859338273383  0.5723616059318022  1.0000
  H   H12       1.0  0.9628880472236158  0.8721751126986875  0.2346615423823675  1.0000
  H   H13       1.0  0.9236475038372884  0.4206433182410749  0.3472769619674758  1.0000
  C   C22       1.0  0.9081615730394326  0.3615192412319505  0.9720686729205665  1.0000
  C   C23       1.0  0.969178749963339  0.41512347265637906  0.03960126995347047  1.0000
  C   C24       1.0  0.025941305180936968  0.47850768181893155  0.9581941124733775  1.0000
  C   C25       1.0  0.021671444025606494  0.48864047013687606  0.8071409335242135  1.0000
  C   C26       1.0  0.9622286224420877  0.4342211853219064  0.7383798754509154  1.0000
  C   C27       1.0  0.9056256979708827  0.36844641806174877  0.81864937685034  1.0000
  C   C28       1.0  0.08871029807894601  0.5346131645889056  0.03261703672113093  1.0000
  O   O1        1.0  0.14041493020272555  0.5926445204655659  0.9624354582924322  1.0000
  H   H14       1.0  0.7301516212379868  0.2856389743150267  0.08633582122698913  1.0000
  H   H15       1.0  0.06468867995363081  0.5375872195611637  0.7418326660501662  1.0000
  H   H16       1.0  0.9615317561983248  0.44096223219842484  0.6213174631223182  1.0000
  H   H17       1.0  0.7869639057261852  0.3119677949722153  0.5454970752293975  1.0000
  H   H18       1.0  0.0909005748227174  0.5262554260940899  0.14948856313190229  1.0000
  Zn  Zn1       1.0  0.824570480550968  0.36889522149302767  0.39670152401501113  1.0000
  Zn  Zn2       1.0  0.9892095944705587  0.36107016048130847  0.39401602307875705  1.0000
  C   C29       1.0  0.9061033518447441  0.3619650152185634  0.6586275577466365  1.0000
  C   C30       1.0  0.9076785206070191  0.36800192058564973  0.13209010149969247  1.0000
  C   C31       1.0  0.9069069750801596  0.602056065914798  0.3896150813820334  1.0000
  C   C32       1.0  0.9068748409615641  0.12790931335994296  0.40110265563014713  1.0000
  O   O2        1.0  0.9699960895064229  0.36720233310371286  0.18477562113452928  1.0000
  O   O3        1.0  0.9687430621634456  0.3568245796321312  0.6039033900988213  1.0000
  O   O4        1.0  0.9693911513435779  0.5507011917304785  0.3866739258652092  1.0000
  O   O5        1.0  0.9693479444698557  0.17332573207857035  0.4020049782060755  1.0000
  O   O6        1.0  0.8444320743684446  0.5566396525674262  0.3887125697965399  1.0000
  O   O7        1.0  0.8437839854151253  0.36276459967021113  0.6059419571731488  1.0000
  O   O8        1.0  0.8450370179992694  0.3731422937165585  0.18681245517250789  1.0000
  O   O9        1.0  0.8443888726359101  0.17926568428987144  0.40404192031496766  1.0000
