data_image0
_chemical_formula_structural       NC9NC5H8C7ONH7C8NH7Zn2C4O8
_chemical_formula_sum              "N4 C33 H22 O9 Zn2"
_cell_length_a       17.807436237873137
_cell_length_b       10.297852080636378
_cell_length_c       9.274266800404106
_cell_angle_alpha    85.98589005779941
_cell_angle_beta     88.95510806583813
_cell_angle_gamma    88.36921327777658

_space_group_name_H-M_alt    "P 1"
_space_group_IT_number       1

loop_
  _space_group_symop_operation_xyz
  'x, y, z'

loop_
  _atom_site_type_symbol
  _atom_site_label
  _atom_site_symmetry_multiplicity
  _atom_site_fract_x
  _atom_site_fract_y
  _atom_site_fract_z
  _atom_site_occupancy
  N   N1        1.0  0.7136604839204238  0.3769688142295904  0.39833526237180283  1.0000
  C   C1        1.0  0.6531303247771296  0.34168810300855745  0.38609821743800943  1.0000
  C   C2        1.0  0.5778374596948085  0.29780278343420097  0.3708766622244508  1.0000
  C   C3        1.0  0.5602370620025003  0.225570470286117  0.2543181779204158  1.0000
  C   C4        1.0  0.4871319720645123  0.182849055732234  0.2394473072520813  1.0000
  C   C5        1.0  0.4305787877791986  0.21198210555332153  0.3410988987183348  1.0000
  C   C6        1.0  0.3528865260603669  0.16669581124280497  0.32538612090263297  1.0000
  C   C7        1.0  0.290575401626029  0.24866586720567696  0.3541794839988095  1.0000
  C   C8        1.0  0.2173279874824188  0.2057414812925573  0.33932380055012334  1.0000
  C   C9        1.0  0.1539645579765485  0.2904061790867769  0.3685211087800355  1.0000
  N   N2        1.0  0.1030333534680557  0.3584707470412436  0.3919949381710712  1.0000
  C   C10       1.0  0.20580832206075722  0.08058881709545852  0.2956466150409276  1.0000
  C   C11       1.0  0.2672621176172166  0.9986048420124274  0.2668439389727606  1.0000
  C   C12       1.0  0.3403911008553418  0.04113306242972681  0.2814747951144432  1.0000
  C   C13       1.0  0.44886949221725286  0.2847105560120138  0.4579007382655292  1.0000
  C   C14       1.0  0.5220281991200629  0.32724034889567055  0.47259882887466986  1.0000
  H   H1        1.0  0.6029618029131245  0.20253201469462412  0.1747133172143025  1.0000
  H   H2        1.0  0.4746066050318948  0.1285219087678573  0.14740138437774464  1.0000
  H   H3        1.0  0.2989214727371442  0.3463700587833356  0.38623427046387304  1.0000
  H   H4        1.0  0.1493984809061469  0.04646529023623591  0.2838858236600901  1.0000
  H   H5        1.0  0.2582229712575131  0.9017117130510812  0.23345663117124693  1.0000
  H   H6        1.0  0.387132105252881  0.9752299029735133  0.2603302344577789  1.0000
  H   H7        1.0  0.4068558766120271  0.30721977203824924  0.5389425612327206  1.0000
  H   H8        1.0  0.5350863811129296  0.3827803351777351  0.5634884885593205  1.0000
  C   C15       1.0  0.9084305642650204  0.986278734690267  0.39517236549405244  1.0000
  C   C16       1.0  0.8987629945718457  0.9952655685038251  0.24474115814960842  1.0000
  C   C17       1.0  0.8931968651846208  0.8827618866063394  0.1685939983404332  1.0000
  C   C18       1.0  0.8985732562909807  0.7600220397379187  0.2446945186012366  1.0000
  C   C19       1.0  0.908270371951851  0.7491506097311955  0.39517018110083735  1.0000
  C   C20       1.0  0.9129576315913619  0.8628033704892577  0.4694629463545084  1.0000
  C   C21       1.0  0.8831724054800413  0.8948454494712627  0.009686134419957693  1.0000
  O   O1        1.0  0.9035382694320216  0.9965013756636006  0.9375719446788341  1.0000
  N   N3        1.0  0.8499096159273777  0.7941171659378112  0.9358036929404094  1.0000
  H   H9        1.0  0.9269746809123954  0.176553618460614  0.6794065159602493  1.0000
  H   H10       1.0  0.8948842929363239  0.09018710941883976  0.18669816690335672  1.0000
  H   H11       1.0  0.8966841021371248  0.6725241941450927  0.18691075196197837  1.0000
  H   H12       1.0  0.9204066735233662  0.8551236458840092  0.5854021775149048  1.0000
  H   H13       1.0  0.9278028352342177  0.52128850053091  0.6792568841884086  1.0000
  H   H14       1.0  0.8465842042234587  0.8025912608798341  0.8232303122586369  1.0000
  H   H15       1.0  0.8240252565626787  0.7155822336168076  0.9916141512855092  1.0000
  C   C22       1.0  0.9100790917507657  0.3647925427485932  0.9718324431762634  1.0000
  C   C23       1.0  0.8664380550106804  0.273880815024361  0.053693122959446615  1.0000
  C   C24       1.0  0.8182485123517844  0.19328716207750027  0.9865813012085011  1.0000
  C   C25       1.0  0.8120934394578632  0.20240809229624743  0.8359836085918584  1.0000
  C   C26       1.0  0.8567665560047794  0.29016541090179127  0.7527998913003291  1.0000
  C   C27       1.0  0.9066218503906173  0.37063679793552207  0.8185101180624055  1.0000
  C   C28       1.0  0.760938415432607  0.11411570563917728  0.7637353468602859  1.0000
  C   C29       1.0  0.8016483637970786  0.9934312814005053  0.7318581046866193  1.0000
  N   N4        1.0  0.8337834269886805  0.8981831480388901  0.7066966990433549  1.0000
  H   H16       1.0  0.9927839227683122  0.6467380741339501  0.049919241620395974  1.0000
  H   H17       1.0  0.868357667493649  0.26706245621731695  0.17067593019721516  1.0000
  H   H18       1.0  0.7851068398359297  0.12444414227824517  0.052365369434174795  1.0000
  H   H19       1.0  0.8538400166094938  0.29326816843577097  0.6359565307301522  1.0000
  H   H20       1.0  0.9650347813497508  0.5578092278978806  0.521217795877063  1.0000
  H   H21       1.0  0.7394980983619716  0.16269533320500365  0.6613151334710397  1.0000
  H   H22       1.0  0.7116678837116817  0.08976805683452492  0.834699366536114  1.0000
  Zn  Zn1       1.0  0.8260250486459301  0.3716272632280983  0.39651391913650064  1.0000
  Zn  Zn2       1.0  0.9906687243750575  0.3638017916761422  0.39382813301724773  1.0000
  C   C30       1.0  0.9072747699175552  0.36435753406776944  0.6584699790788526  1.0000
  C   C31       1.0  0.9094208000853997  0.3710730752882445  0.13187218523584335  1.0000
  C   C32       1.0  0.9083202641813267  0.6049121153778103  0.38942599518751475  1.0000
  C   C33       1.0  0.9083752496540622  0.13051693658179886  0.4009162469064098  1.0000
  O   O2        1.0  0.9716812894701546  0.37020548689946353  0.1845637428328178  1.0000
  O   O3        1.0  0.9699750227161169  0.35928478784571144  0.6037395569768886  1.0000
  O   O4        1.0  0.97081842415601  0.5535357048616905  0.3864846501901007  1.0000
  O   O5        1.0  0.9708378322879417  0.1759545810996592  0.40181854244523163  1.0000
  O   O6        1.0  0.8458558845482709  0.5594744764763926  0.38852351061746054  1.0000
  O   O7        1.0  0.8450124830911686  0.3652251195286291  0.6057783405339632  1.0000
  O   O8        1.0  0.8467187569819538  0.3761457613517165  0.1866007931551774  1.0000
  O   O9        1.0  0.8458752993572852  0.1818948470075492  0.4038557008509096  1.0000
