data_image0
_chemical_formula_structural       NC9NC5H8C6NO2H5C8NH7Zn2C4O8
_chemical_formula_sum              "N4 C32 H20 O10 Zn2"
_cell_length_a       17.807436237873137
_cell_length_b       9.273392599741051
_cell_length_c       9.274266800404106
_cell_angle_alpha    86.1050913810774
_cell_angle_beta     88.95510806583813
_cell_angle_gamma    87.79638846343423

_space_group_name_H-M_alt    "P 1"
_space_group_IT_number       1

loop_
  _space_group_symop_operation_xyz
  'x, y, z'

loop_
  _atom_site_type_symbol
  _atom_site_label
  _atom_site_symmetry_multiplicity
  _atom_site_fract_x
  _atom_site_fract_y
  _atom_site_fract_z
  _atom_site_occupancy
  N   N1        1.0  0.7056657972430896  0.5293634136443401  0.4017697192028067  1.0000
  C   C1        1.0  0.6453404780562644  0.49017804619722943  0.3894446765755264  1.0000
  C   C2        1.0  0.5703024113223922  0.44143576426641995  0.3741136619217573  1.0000
  C   C3        1.0  0.5531213947414285  0.3612092145653743  0.25737501466940627  1.0000
  C   C4        1.0  0.4802643455144872  0.313759651639436  0.2423975875906952  1.0000
  C   C5        1.0  0.4235420146204285  0.3461169716192476  0.34412184315865724  1.0000
  C   C6        1.0  0.34611268531520584  0.29581866352228203  0.3282961115699736  1.0000
  C   C7        1.0  0.2833256423941351  0.3868606706530935  0.35729392564262086  1.0000
  C   C8        1.0  0.2103274474141298  0.339185672722654  0.34233117952926695  1.0000
  C   C9        1.0  0.1464724543198171  0.4332205483826228  0.37173965975282175  1.0000
  N   N2        1.0  0.0951460666459535  0.5088180920011476  0.3953832568379003  1.0000
  C   C10       1.0  0.1995344188826792  0.2001818668519679  0.29834183631684064  1.0000
  C   C11       1.0  0.2614642137403413  0.10912440011676862  0.2693346745549181  1.0000
  C   C12       1.0  0.3343462779533823  0.1563593873448641  0.2840716052391856  1.0000
  C   C13       1.0  0.441410457371844  0.42689456811463433  0.4611050831274912  1.0000
  C   C14       1.0  0.5143222361198238  0.47413130184017505  0.4759092522012866  1.0000
  H   H1        1.0  0.5959798970212864  0.33562100172831544  0.17771269109241006  1.0000
  H   H2        1.0  0.4680544021236874  0.2534199038714495  0.15021616110939795  1.0000
  H   H3        1.0  0.2911044425615269  0.4953781725851699  0.38959240740761714  1.0000
  H   H4        1.0  0.14332269906730755  0.16228175394911726  0.28649593350957936  1.0000
  H   H5        1.0  0.2529876292914288  0.0015077243172416687  0.23570569441834535  1.0000
  H   H6        1.0  0.3814699163695384  0.0831624638747466  0.2627626679068549  1.0000
  H   H7        1.0  0.3992661531645074  0.4518949683449052  0.5422030489280885  1.0000
  H   H8        1.0  0.5270579527207367  0.5358181186629813  0.56693744057541  1.0000
  C   C15       1.0  0.9027042258186572  0.09543411361473697  0.39763235710942246  1.0000
  C   C16       1.0  0.8936767940531564  0.1782638667447929  0.26610103494928317  1.0000
  C   C17       1.0  0.8779974286411754  0.11303838577211467  0.13945685090054294  1.0000
  C   C18       1.0  0.8708237122789063  0.9630101007038017  0.14081279674713332  1.0000
  C   C19       1.0  0.8810275735248277  0.8789423428210984  0.2713196228983723  1.0000
  C   C20       1.0  0.8981148261352571  0.9427360084025921  0.399532960022017  1.0000
  N   N3        1.0  0.8539923441736942  0.8963960936104087  0.009960662068370986  1.0000
  O   O1        1.0  0.8446590284198203  0.9790216270661036  0.8821377972618158  1.0000
  O   O2        1.0  0.8473733868451095  0.7628137314599246  0.010299325385183524  1.0000
  H   H9        1.0  0.8859406660574407  0.17546646086822637  0.7517018847367802  1.0000
  H   H10       1.0  0.8969797458657072  0.2948998955937629  0.2617879446152136  1.0000
  H   H11       1.0  0.8707269085493282  0.18059208428358264  0.040502325234473606  1.0000
  H   H12       1.0  0.8773933629785694  0.7625396375990477  0.27240531656228106  1.0000
  H   H13       1.0  0.8893847258848361  0.6469145910030786  0.6387849386147846  1.0000
  C   C21       1.0  0.9021551005564249  0.5158395459102278  0.9752365297633437  1.0000
  C   C22       1.0  0.8590418976866061  0.41486625674359745  0.05687045611458674  1.0000
  C   C23       1.0  0.8113202821127922  0.32535298460907947  0.9895576164327786  1.0000
  C   C24       1.0  0.8051122530599868  0.3354833643466627  0.8389826733808112  1.0000
  C   C25       1.0  0.849275850249134  0.43295313342777275  0.7560178417453987  1.0000
  C   C26       1.0  0.8986639274262908  0.5223306079956761  0.821928781480814  1.0000
  C   C27       1.0  0.7544698549998382  0.23741930911080547  0.7665141914181439  1.0000
  C   C28       1.0  0.7958804976346897  0.10337826103476472  0.7343359362941908  1.0000
  N   N4        1.0  0.8285685718857708  0.9975886390216677  0.7089369612892367  1.0000
  H   H14       1.0  0.983222954643044  0.8289891073856128  0.05402656109570913  1.0000
  H   H15       1.0  0.8610010975892401  0.4072932831273237  0.17383625689676996  1.0000
  H   H16       1.0  0.7785783124569648  0.24889083479294108  0.05516997533782453  1.0000
  H   H17       1.0  0.8463312962306675  0.436399285442866  0.6391822201208663  1.0000
  H   H18       1.0  0.9559901344765594  0.7302181530650959  0.5251033076539944  1.0000
  H   H19       1.0  0.7327474844089799  0.29137543671505384  0.6642151460844237  1.0000
  H   H20       1.0  0.7053406858294015  0.21037700945572585  0.8374174828132053  1.0000
  Zn  Zn1       1.0  0.8180613750359851  0.5234306920101416  0.3999350529887009  1.0000
  Zn  Zn2       1.0  0.9827504854855751  0.5147391444874964  0.39722974845773873  1.0000
  C   C29       1.0  0.8993533043854296  0.515356393093552  0.661872980660579  1.0000
  C   C30       1.0  0.9014603440929441  0.5228151698932009  0.1352919368239458  1.0000
  C   C31       1.0  0.8990021377470095  0.7825341039017276  0.39342899171209833  1.0000
  C   C32       1.0  0.9018114636060479  0.2556357293253848  0.4037359996671732  1.0000
  O   O3        1.0  0.9637258706995021  0.5218515620567761  0.18798133046859467  1.0000
  O   O4        1.0  0.9620830095697092  0.509722225929746  0.6071299060368334  1.0000
  O   O5        1.0  0.9617985893753875  0.725471662286673  0.39035950288003374  1.0000
  O   O6        1.0  0.9640102350863831  0.30610213815736165  0.4047516264789963  1.0000
  O   O7        1.0  0.8368015692348888  0.7320677013077868  0.3924131758830516  1.0000
  O   O8        1.0  0.8370859803542392  0.5163199976780121  0.6091835060607127  1.0000
  O   O9        1.0  0.8387288489530607  0.5284492702404325  0.19003319711501354  1.0000
  O   O10       1.0  0.8390132129470946  0.3126998368510161  0.4068036011874214  1.0000
