data_image0
_chemical_formula_structural       NC9NC4H8C9H10C7ONH7Zn2C4O8
_chemical_formula_sum              "N3 C33 H25 O9 Zn2"
_cell_length_a       16.32274767691083
_cell_length_b       9.27267660452572
_cell_length_c       10.297855452804892
_cell_angle_alpha    85.79104961089988
_cell_angle_beta     89.4600573046752
_cell_angle_gamma    90.07922574154927

_space_group_name_H-M_alt    "P 1"
_space_group_IT_number       1

loop_
  _space_group_symop_operation_xyz
  'x, y, z'

loop_
  _atom_site_type_symbol
  _atom_site_label
  _atom_site_symmetry_multiplicity
  _atom_site_fract_x
  _atom_site_fract_y
  _atom_site_fract_z
  _atom_site_occupancy
  N   N1        1.0  0.780198548923938  0.5683621665947527  0.5626420279251413  1.0000
  C   C1        1.0  0.7275876949740196  0.5157067735878862  0.5081355573072315  1.0000
  C   C2        1.0  0.6621921239119379  0.4503083655334464  0.4404380849923897  1.0000
  C   C3        1.0  0.6732771714419512  0.3608550154744006  0.3478356969303087  1.0000
  C   C4        1.0  0.5936833153104373  0.3172013049188933  0.30264879657088817  1.0000
  C   C5        1.0  0.5350843223694635  0.38108750122666507  0.36878628070010944  1.0000
  C   C6        1.0  0.4450585540791403  0.36420295250241064  0.35131026718874137  1.0000
  C   C7        1.0  0.3898519718968635  0.43866644291280243  0.42839038144128483  1.0000
  C   C8        1.0  0.3050680066102937  0.42423609624478226  0.4134542738181659  1.0000
  C   C9        1.0  0.2494614680742847  0.500988731575722  0.4929032048240444  1.0000
  N   N2        1.0  0.2047726865222349  0.5626852205782427  0.5567666905641317  1.0000
  C   C10       1.0  0.27443695545634167  0.3352218285957209  0.3213140170428255  1.0000
  C   C11       1.0  0.32832213493015805  0.26085697039639544  0.24433634238534796  1.0000
  C   C12       1.0  0.41294527189574565  0.2748986302800438  0.2588699836688071  1.0000
  C   C13       1.0  0.5733254052116549  0.4742406305959333  0.46521607184170083  1.0000
  H   H1        1.0  0.7320028438588697  0.32607082667754966  0.31182473670910915  1.0000
  H   H2        1.0  0.5850058429123912  0.24409119347057628  0.22696479545587533  1.0000
  H   H3        1.0  0.41232765867391136  0.5081570850171081  0.5003214917904608  1.0000
  H   H4        1.0  0.20898305779808396  0.32333421229765724  0.30900998704547344  1.0000
  H   H5        1.0  0.3044536936923614  0.19199613565909757  0.17305741518843337  1.0000
  H   H6        1.0  0.4524155701939936  0.21541153042818828  0.19729319340814988  1.0000
  H   H7        1.0  0.5563295807263522  0.4356255068340316  0.56658847319608  1.0000
  H   H8        1.0  0.5571808655108129  0.5897968337417245  0.44349336986744387  1.0000
  C   C14       1.0  0.9901684102054842  0.14206664622863285  0.5580771219147229  1.0000
  C   C15       1.0  0.9573610718514753  0.2065784674360396  0.6661053807924506  1.0000
  C   C16       1.0  0.9320489977690574  0.12275329163433456  0.7772044457544449  1.0000
  C   C17       1.0  0.9387274239188678  0.9719130510063207  0.7840131839506899  1.0000
  C   C18       1.0  0.9701926074751336  0.905969750422375  0.675002747924073  1.0000
  C   C19       1.0  0.9948106414282558  0.9889694771381373  0.561342698330999  1.0000
  C   C20       1.0  0.9104844121930006  0.8886447969850868  0.9091788465204457  1.0000
  C   C21       1.0  0.8690803829657562  0.7431070611964798  0.8968190786558704  1.0000
  C   C22       1.0  0.955580986222702  0.749380789322133  0.9505820684763904  1.0000
  H   H9        1.0  0.008387549320282519  0.44069945172501646  0.3449765052595064  1.0000
  H   H10       1.0  0.9530382734950816  0.3231588242809431  0.6660403342315533  1.0000
  H   H11       1.0  0.907768932228574  0.17650506762886867  0.8591536574948134  1.0000
  H   H12       1.0  0.9741008188884819  0.7895168681675317  0.6761548326044481  1.0000
  H   H13       1.0  0.01610817246250673  0.9119445741258088  0.2430029431227203  1.0000
  H   H14       1.0  0.8872828807198474  0.9490585743174144  0.9912822632455764  1.0000
  H   H15       1.0  0.8652906378580754  0.7039309412849326  0.7978499150374159  1.0000
  H   H16       1.0  0.8215910323747815  0.7149420284965655  0.9724114294974113  1.0000
  H   H17       1.0  0.004310770465051131  0.7138874612931115  0.884348090103244  1.0000
  H   H18       1.0  0.9586449668038326  0.7248764172641387  0.057613488598170615  1.0000
  C   C23       1.0  0.9925224350151066  0.5656609859217199  0.1782679998461545  1.0000
  C   C24       1.0  0.9089142094023179  0.6015454842341337  0.17617254754349407  1.0000
  C   C25       1.0  0.8663206585620293  0.6185066499252274  0.05810964904076399  1.0000
  C   C26       1.0  0.9088128187776255  0.6012224305267488  0.9409397626415212  1.0000
  C   C27       1.0  0.992456579150519  0.5653751090034176  0.9411517891001506  1.0000
  C   C28       1.0  0.033712510488028036  0.54749702729361  0.06028422557318568  1.0000
  C   C29       1.0  0.7780771028689891  0.656749445882852  0.05847252700059657  1.0000
  O   O1        1.0  0.7480985366676822  0.7186854136541059  0.15293882171602946  1.0000
  N   N3        1.0  0.7254919900097172  0.6233517323551945  0.9544421070624378  1.0000
  H   H19       1.0  0.1506092492033033  0.4983552690510729  0.3894613937229114  1.0000
  H   H20       1.0  0.8765944904007164  0.6151256041008963  0.2668291885149223  1.0000
  H   H21       1.0  0.8774343555957367  0.6182707973689521  0.8490481432106987  1.0000
  H   H22       1.0  0.09814966137530279  0.5198368650418798  0.06114580266438718  1.0000
  H   H23       1.0  0.1508645843081684  0.49988995966742  0.7341225561712652  1.0000
  H   H24       1.0  0.6645043744540273  0.6572001717465392  0.9543295316949365  1.0000
  H   H25       1.0  0.7446025040032133  0.5573052185295677  0.8822313428917473  1.0000
  Zn  Zn1       1.0  0.9027214580740222  0.5667200495450306  0.5609540189780033  1.0000
  Zn  Zn2       1.0  0.082249717764453  0.5643155005615825  0.5584652951004294  1.0000
  C   C30       1.0  0.992435717558575  0.5596845574492952  0.7969283052785707  1.0000
  C   C31       1.0  0.9925374286850678  0.5713527858103511  0.32249111612954673  1.0000
  C   C32       1.0  0.9939293681797643  0.828888822596191  0.5555493190379416  1.0000
  C   C33       1.0  0.9910437073009584  0.3021467889597167  0.563870165790967  1.0000
  O   O2        1.0  0.060672465147307786  0.5723442010251338  0.3699492294498017  1.0000
  O   O3        1.0  0.060558470269581825  0.5568670574885171  0.7475809300081966  1.0000
  O   O4        1.0  0.061763693493892775  0.7742529179423098  0.5526657093358865  1.0000
  O   O5        1.0  0.059467180727112545  0.35495835174383705  0.5648643536178157  1.0000
  O   O6        1.0  0.9255039338471879  0.7760771991849029  0.5545549613030697  1.0000
  O   O7        1.0  0.9242987201216218  0.5586930712569764  0.7494701193970417  1.0000
  O   O8        1.0  0.9244127149131869  0.5741701651275575  0.3718368569446177  1.0000
  O   O9        1.0  0.9232074304247012  0.3567843054958924  0.5667520784593805  1.0000
