data_image0
_chemical_formula_structural       NC11NC3H8C6SCOC6H10C7OC4NC3H9Zn2C4O8
_chemical_formula_sum              "N3 C45 H27 S1 O10 Zn2"
_cell_length_a       17.807433833752565
_cell_length_b       10.302038109246572
_cell_length_c       10.299375074045738
_cell_angle_alpha    85.54623755187913
_cell_angle_beta     88.51814048155188
_cell_angle_gamma    90.70325301409062

_space_group_name_H-M_alt    "P 1"
_space_group_IT_number       1

loop_
  _space_group_symop_operation_xyz
  'x, y, z'

loop_
  _atom_site_type_symbol
  _atom_site_label
  _atom_site_symmetry_multiplicity
  _atom_site_fract_x
  _atom_site_fract_y
  _atom_site_fract_z
  _atom_site_occupancy
  N   N1        1.0  0.7077777324991154  0.43869065208258456  0.5347712003321041  1.0000
  C   C1        1.0  0.6569474043380008  0.4039469949866401  0.601332079045134  1.0000
  C   C2        1.0  0.5937093515728351  0.3607287505612531  0.684125317868129  1.0000
  C   C3        1.0  0.6054165510064397  0.29714720928306115  0.8068410846129797  1.0000
  C   C4        1.0  0.5440863549933259  0.2556092059313886  0.8873505059389335  1.0000
  C   C5        1.0  0.4708945113700795  0.27733930734695655  0.8457849446451667  1.0000
  C   C6        1.0  0.4582105776830449  0.3410755372552649  0.722608980311638  1.0000
  C   C7        1.0  0.38045094588304534  0.36413649367752154  0.6782628148228205  1.0000
  C   C8        1.0  0.3616727272794891  0.34731709781748565  0.5486747562882646  1.0000
  C   C9        1.0  0.28845093679474354  0.3690084969856882  0.5070651167261389  1.0000
  C   C10       1.0  0.233064404502437  0.40783805379039667  0.59422326609558  1.0000
  C   C11       1.0  0.1577061050457801  0.4301882761993723  0.551252355973558  1.0000
  N   N2        1.0  0.0971234052094216  0.44815619460239575  0.5167068716455496  1.0000
  C   C12       1.0  0.251151133847715  0.4248681772731502  0.7232801940290889  1.0000
  C   C13       1.0  0.3243201393073318  0.4031417600374045  0.7651452695434551  1.0000
  C   C14       1.0  0.5203980836501523  0.3826089705621819  0.6421159749499383  1.0000
  H   H1        1.0  0.661876895721225  0.2797242604510757  0.8402058831709004  1.0000
  H   H2        1.0  0.5532689876027362  0.20613287763702481  0.982084540344061  1.0000
  H   H3        1.0  0.42424462369409116  0.2427675149247572  0.9092224262470663  1.0000
  H   H4        1.0  0.4033496815468394  0.31570866059433245  0.47995132321350414  1.0000
  H   H5        1.0  0.27501343263551914  0.3551687711610125  0.40702454706876523  1.0000
  H   H6        1.0  0.20875720143729007  0.4552540715359738  0.791488683385904  1.0000
  H   H7        1.0  0.3372295117419034  0.41852659791638525  0.8650032703694557  1.0000
  H   H8        1.0  0.5119141676185446  0.4334472403785221  0.5476164371646524  1.0000
  C   C15       1.0  0.9023830072415571  0.06214335678616599  0.5257019860432719  1.0000
  C   C16       1.0  0.8381641970314441  0.06538170003671272  0.4491586098746639  1.0000
  C   C17       1.0  0.806564997410118  0.9500432294403023  0.4105734672099173  1.0000
  C   C18       1.0  0.838405839417033  0.8302549967540901  0.4490933900234983  1.0000
  C   C19       1.0  0.9025253322102922  0.8246936798584591  0.5257869608680568  1.0000
  C   C20       1.0  0.9342219162963535  0.9412841273892679  0.5636066627429679  1.0000
  S   S1        1.0  0.725050548877048  0.955635187032062  0.3117420660699701  1.0000
  C   C21       1.0  0.7802933445304732  0.9655279788128073  0.16275083722538297  1.0000
  O   O1        1.0  0.7984109301290085  0.8607182062309002  0.1155582403860387  1.0000
  C   C22       1.0  0.8050744658666231  0.09232134882253229  0.09610076010724478  1.0000
  C   C23       1.0  0.8581969872711411  0.09599041684009779  0.9921252375345921  1.0000
  C   C24       1.0  0.8823460651782807  0.2149369927600195  0.9292791029834886  1.0000
  C   C25       1.0  0.853779107005142  0.33146486587790086  0.9691074078320537  1.0000
  C   C26       1.0  0.800882611348633  0.3292743868846326  0.07171934247254952  1.0000
  C   C27       1.0  0.7764831029927204  0.21062523944012512  0.13489728225872288  1.0000
  H   H9        1.0  0.023340925237713694  0.2633413072186155  0.6701500840913639  1.0000
  H   H10       1.0  0.8126067563498818  0.1572942461157418  0.41906727612766054  1.0000
  H   H11       1.0  0.8130904607170152  0.7419000786965563  0.41850227374525045  1.0000
  H   H12       1.0  0.9837304183446919  0.9378672875610234  0.6226131717028835  1.0000
  H   H13       1.0  0.9270345887425839  0.4952680509237746  0.5546176513377565  1.0000
  H   H14       1.0  0.881438698349413  0.007002793541294632  0.9597480035437975  1.0000
  H   H15       1.0  0.9233321640397223  0.21671630039784562  0.8496766035706749  1.0000
  H   H16       1.0  0.8725606196434262  0.42344401984168656  0.9203597025422336  1.0000
  H   H17       1.0  0.7786256164704952  0.419669504238652  0.10229016063664309  1.0000
  H   H18       1.0  0.7350569971669983  0.21222337172105182  0.21338781088609515  1.0000
  C   C28       1.0  0.9024797210015106  0.44356145508782263  0.14435653046284158  1.0000
  C   C29       1.0  0.9603250714217726  0.5380563854903264  0.13324036595303124  1.0000
  C   C30       1.0  0.9889172196548297  0.5867827963810112  0.010403448649359163  1.0000
  C   C31       1.0  0.9602033908923385  0.5378157485533299  0.8980206667909393  1.0000
  C   C32       1.0  0.9024285681622927  0.4432755953356181  0.9071324256858496  1.0000
  C   C33       1.0  0.873766385034703  0.39694346580653267  0.030769154092267888  1.0000
  C   C34       1.0  0.050537174491261924  0.6855764128003704  0.9985786150431721  1.0000
  O   O2        1.0  0.09854561267813097  0.6820596687731819  0.9067156807660798  1.0000
  C   C35       1.0  0.057683397595965184  0.7883710582800074  0.09088587331769205  1.0000
  C   C36       1.0  0.12913349048126954  0.8366579766686788  0.11933296670736171  1.0000
  C   C37       1.0  0.13643174965336533  0.9348237441310417  0.2052228488388872  1.0000
  C   C38       1.0  0.20980544784778732  0.9829481499548886  0.23461177703039904  1.0000
  N   N3        1.0  0.2687896339454836  0.02162913480854289  0.2582334023701669  1.0000
  C   C39       1.0  0.07228710874350419  0.9861027126270983  0.2623987264680345  1.0000
  C   C40       1.0  0.0010876630384550879  0.9398330562208717  0.23343929206018155  1.0000
  C   C41       1.0  0.9936400410724806  0.8419335774102993  0.14783193106489412  1.0000
  H   H19       1.0  0.7941085531444999  0.2637943660486648  0.37273210354674613  1.0000
  H   H20       1.0  0.9837859358782369  0.5728198709410945  0.22033921311530036  1.0000
  H   H21       1.0  0.9825720849332233  0.574586741965692  0.8032420206544252  1.0000
  H   H22       1.0  0.8291720960417929  0.32409411596117116  0.03853507422661129  1.0000
  H   H23       1.0  0.8806671636550089  0.4061685605940712  0.5832175792374414  1.0000
  H   H24       1.0  0.17907026659659508  0.7971616427400285  0.07563051149190936  1.0000
  H   H25       1.0  0.07731286831819628  0.06208471585221886  0.3288538480587657  1.0000
  H   H26       1.0  0.9515253576834434  0.980316957563478  0.276975671844093  1.0000
  H   H27       1.0  0.9378326161970414  0.8091907986222305  0.1251141313316868  1.0000
  Zn  Zn1       1.0  0.820134481962702  0.44141872655147324  0.5295657097891835  1.0000
  Zn  Zn2       1.0  0.9847666382943885  0.4454174990456834  0.5219229475470926  1.0000
  C   C42       1.0  0.9024356146214018  0.43815709291618865  0.7629509211142653  1.0000
  C   C43       1.0  0.902467303710883  0.4486808145378344  0.28853778041859224  1.0000
  C   C44       1.0  0.9024948887374564  0.6805572728436546  0.520595627294433  1.0000
  C   C45       1.0  0.9024079731216396  0.20627907328051817  0.5308931459146691  1.0000
  O   O3        1.0  0.9649401806378611  0.45191076723432344  0.3340259359444213  1.0000
  O   O4        1.0  0.9649147348636579  0.4379611366631729  0.7116617119143784  1.0000
  O   O5        1.0  0.9649617571510207  0.6337023265603319  0.5159581367005368  1.0000
  O   O6        1.0  0.9648931021809561  0.25616958529721146  0.5297294163877317  1.0000
  O   O7        1.0  0.84000796189526  0.630666638936776  0.5217592435498126  1.0000
  O   O8        1.0  0.8399609399002116  0.4349270090062989  0.7174627496886783  1.0000
  O   O9        1.0  0.8399863858206028  0.4488765949184679  0.3398254122328239  1.0000
  O   O10       1.0  0.8399393073523657  0.25313540365814013  0.5355289900479339  1.0000
