data_image0
_chemical_formula_structural       NC5NC4H6C6BrH5C7NH4Zn2C4O8
_chemical_formula_sum              "N3 C26 H15 Br1 Zn2 O8"
_cell_length_a       13.854160002989762
_cell_length_b       9.276564384272257
_cell_length_c       9.275157849593905
_cell_angle_alpha    86.064957766791
_cell_angle_beta     89.74088443434586
_cell_angle_gamma    90.58592978602583

_space_group_name_H-M_alt    "P 1"
_space_group_IT_number       1

loop_
  _space_group_symop_operation_xyz
  'x, y, z'

loop_
  _atom_site_type_symbol
  _atom_site_label
  _atom_site_symmetry_multiplicity
  _atom_site_fract_x
  _atom_site_fract_y
  _atom_site_fract_z
  _atom_site_occupancy
  N   N1        1.0  0.9244274489899568  0.5629052587035721  0.40905204918995985  1.0000
  C   C1        1.0  0.8524422766038644  0.5875464836618383  0.3500026768319232  1.0000
  C   C2        1.0  0.7628917153018451  0.618200829509072  0.27654299687388423  1.0000
  C   C3        1.0  0.6749062026451949  0.5894106871548064  0.34826888344858564  1.0000
  C   C4        1.0  0.5877493030973512  0.6182008436141482  0.27654297369640046  1.0000
  C   C5        1.0  0.49733413395917325  0.5875463372376662  0.35000276854932333  1.0000
  N   N2        1.0  0.4246538779574795  0.562905195211479  0.40905204915664745  1.0000
  C   C6        1.0  0.588614647659646  0.6763876607481116  0.13310965708184908  1.0000
  C   C7        1.0  0.6765824606400307  0.7073267396725597  0.06127855744262667  1.0000
  C   C8        1.0  0.6774508262598499  0.7656440733182874  0.9063595787577192  1.0000
  C   C9        1.0  0.7636917369535366  0.6763876585538398  0.1331095668325437  1.0000
  H   H1        1.0  0.674260984681921  0.5442639384620682  0.4592837302082018  1.0000
  H   H2        1.0  0.5210556702365126  0.6976364696308042  0.0774589255057372  1.0000
  H   H3        1.0  0.742842374001387  0.8335696260693053  0.8825230333428067  1.0000
  H   H4        1.0  0.6131338961628626  0.8335696285725338  0.8825230984060176  1.0000
  H   H5        1.0  0.6770427022505203  0.6744389873522376  0.8349034695189552  1.0000
  H   H6        1.0  0.8318786303418747  0.6976365812819667  0.07745884001124925  1.0000
  C   C10       1.0  0.17163609761184626  0.13942780828973175  0.40942058729290304  1.0000
  C   C11       1.0  0.15965654600062518  0.22165841769030606  0.2777058089333857  1.0000
  C   C12       1.0  0.15665629556859018  0.15541271834409698  0.14722131294949592  1.0000
  C   C13       1.0  0.1656214855682736  0.005993542040352739  0.14597396391685513  1.0000
  C   C14       1.0  0.1759065066595286  0.9220504192180737  0.27569699232135975  1.0000
  C   C15       1.0  0.1774543634926244  0.9863716304752168  0.4086959704366221  1.0000
  Br  Br1       1.0  0.16222832777557464  0.9159111769023605  0.9669264371439473  1.0000
  H   H7        1.0  0.14263822106138965  0.40423692772462316  0.6437133192065696  1.0000
  H   H8        1.0  0.15490051053164455  0.3382910471372955  0.2752386430126199  1.0000
  H   H9        1.0  0.14827971176756605  0.2206660621046561  0.04683851733371426  1.0000
  H   H10       1.0  0.18038169170950416  0.8057805090729968  0.27258995133319863  1.0000
  H   H11       1.0  0.23003644548449584  0.6906008811526027  0.6331470421324488  1.0000
  C   C16       1.0  0.1757979949229739  0.55882350312306  0.9858640201847282  1.0000
  C   C17       1.0  0.25931570421087446  0.6058350941695123  0.055519839566625206  1.0000
  C   C18       1.0  0.3379599616011274  0.6641862576515787  0.9755917601202087  1.0000
  C   C19       1.0  0.33400502601455423  0.6764534930262218  0.8249223179785227  1.0000
  C   C20       1.0  0.2524637528454321  0.6282741508106741  0.7539259559069531  1.0000
  C   C21       1.0  0.17329248819226098  0.5669759268020274  0.8322526160819614  1.0000
  C   C22       1.0  0.4224375015973192  0.7132061336351432  0.048553453603677806  1.0000
  N   N3        1.0  0.4903358084788607  0.7526048961167032  0.1072023510004454  1.0000
  H   H12       1.0  0.9406133748063124  0.5102010026060633  0.09374320894198807  1.0000
  H   H13       1.0  0.3944231171421193  0.7220686201005685  0.7620605017096705  1.0000
  H   H14       1.0  0.2523023056206494  0.6358558094137613  0.6368550299518577  1.0000
  H   H15       1.0  0.015913928227813564  0.5281842666414622  0.5548792891902679  1.0000
  Zn  Zn1       1.0  0.06878194527222067  0.5629014597481794  0.40906038359028574  1.0000
  Zn  Zn2       1.0  0.28029926674621497  0.5628973074247268  0.4090555603520942  1.0000
  C   C23       1.0  0.173724440420629  0.5596900479544482  0.6722719380076094  1.0000
  C   C24       1.0  0.1753590934414255  0.5661105400820233  0.14584414577137156  1.0000
  C   C25       1.0  0.17636661557076147  0.8262259282467508  0.40309023606522854  1.0000
  C   C26       1.0  0.17271683398542903  0.29957292794901025  0.41502592602978594  1.0000
  O   O1        1.0  0.25548147204283483  0.5685482691483836  0.199533112343272  1.0000
  O   O2        1.0  0.2541388083948224  0.5572480754770401  0.6185788967938752  1.0000
  O   O3        1.0  0.25627131173329043  0.7724791840740208  0.4012127667120796  1.0000
  O   O4        1.0  0.25334889691856927  0.35331716982803424  0.41689913436397796  1.0000
  O   O5        1.0  0.09573224291941873  0.7724815973477861  0.40121680957246686  1.0000
  O   O6        1.0  0.09359975170636736  0.5572522205944304  0.6185828613322939  1.0000
  O   O7        1.0  0.09494242020243  0.5685523473240014  0.19953534428256545  1.0000
  O   O8        1.0  0.09280984468351439  0.353321238729935  0.41690147435842584  1.0000
