data_image0
_chemical_formula_structural       NC9NC4H8C12H9C8NH7Zn2C4O8
_chemical_formula_sum              "N3 C37 H24 Zn2 O8"
_cell_length_a       16.32274767691083
_cell_length_b       10.299137764757564
_cell_length_c       9.274266800404106
_cell_angle_alpha    85.96615715637442
_cell_angle_beta     89.02225532851281
_cell_angle_gamma    89.54283159448198

_space_group_name_H-M_alt    "P 1"
_space_group_IT_number       1

loop_
  _space_group_symop_operation_xyz
  'x, y, z'

loop_
  _atom_site_type_symbol
  _atom_site_label
  _atom_site_symmetry_multiplicity
  _atom_site_fract_x
  _atom_site_fract_y
  _atom_site_fract_z
  _atom_site_occupancy
  N   N1        1.0  0.7789034135127265  0.40126819297633226  0.3974940585691223  1.0000
  C   C1        1.0  0.7268349138620039  0.35341683955299286  0.33724509449629014  1.0000
  C   C2        1.0  0.6621129511175485  0.29398508597251216  0.2624153993448963  1.0000
  C   C3        1.0  0.6741193956145989  0.21269302037468818  0.16005692797060814  1.0000
  C   C4        1.0  0.5949751688330872  0.17302208793761475  0.11010939780889606  1.0000
  C   C5        1.0  0.5357181173227982  0.23107963935020703  0.18321477737229633  1.0000
  C   C6        1.0  0.4458662508720739  0.21573557688376968  0.16389759935128434  1.0000
  C   C7        1.0  0.38989269481265904  0.28340534698238007  0.2490984335100748  1.0000
  C   C8        1.0  0.30525735568930173  0.2702915718012826  0.2325887489301446  1.0000
  C   C9        1.0  0.24886026881408313  0.34004162931539716  0.3204079613831728  1.0000
  N   N2        1.0  0.20353601833472304  0.3961091950514839  0.3909997341790761  1.0000
  C   C10       1.0  0.27554314196391233  0.1893985884262723  0.13074113049647895  1.0000
  C   C11       1.0  0.3301942777454615  0.1218184544489138  0.04565352991272232  1.0000
  C   C12       1.0  0.4146727926098123  0.13457900396220435  0.06171834605850403  1.0000
  C   C13       1.0  0.5729997070544299  0.3157339140123496  0.289803874431088  1.0000
  H   H1        1.0  0.733203366821364  0.1810823524642362  0.12025203896627802  1.0000
  H   H2        1.0  0.5870507539244383  0.10658218265223174  0.026451741668055872  1.0000
  H   H3        1.0  0.4116526348962101  0.3465559584454785  0.32860778784464634  1.0000
  H   H4        1.0  0.2102116803655622  0.17859555608797506  0.11714082416868044  1.0000
  H   H5        1.0  0.3070350949987217  0.05924019142534487  0.9668650701124424  1.0000
  H   H6        1.0  0.45475580473577504  0.08051924986399837  0.9936541804139601  1.0000
  H   H7        1.0  0.5557154531415165  0.2817503093631488  0.40248968280148284  1.0000
  H   H8        1.0  0.5563510797855141  0.41963887214425544  0.2651592242491565  1.0000
  C   C14       1.0  0.9911440806967285  0.017290748064250794  0.39440520099240195  1.0000
  C   C15       1.0  0.991783265351658  0.026117441901319923  0.24261081366080142  1.0000
  C   C16       1.0  0.9921890402255117  0.9134591595656917  0.16548831436705694  1.0000
  C   C17       1.0  0.991946941773585  0.7908576032024799  0.24221191413739973  1.0000
  C   C18       1.0  0.9913031377607187  0.780076594166804  0.39410096597485555  1.0000
  C   C19       1.0  0.9909070443991157  0.893804340205469  0.4692624957088727  1.0000
  C   C20       1.0  0.992864264082959  0.9238418549222677  0.00490486449452621  1.0000
  C   C21       1.0  0.04262576699659126  0.8404022175463793  0.9265968190335347  1.0000
  C   C22       1.0  0.04315951716199362  0.8504269991551449  0.7754423846017768  1.0000
  C   C23       1.0  0.9941449163575451  0.9435044857694106  0.7008840508977392  1.0000
  C   C24       1.0  0.9444943036379734  0.026815949033681896  0.7773288508299516  1.0000
  C   C25       1.0  0.9437545283585632  0.017288573878729837  0.9284874102618517  1.0000
  H   H9        1.0  0.9931009109470659  0.12083478540680061  0.18398388101360763  1.0000
  H   H10       1.0  0.9911286800595452  0.7037035010214437  0.18334406819989524  1.0000
  H   H11       1.0  0.9904117835091597  0.886280606453265  0.5863450241524526  1.0000
  H   H12       1.0  0.9895669899868138  0.5524427688797128  0.6807915522393299  1.0000
  H   H13       1.0  0.08186788142020586  0.7686382476476951  0.9821843042436664  1.0000
  H   H14       1.0  0.0817827948323715  0.7861545137588898  0.7160757284357828  1.0000
  H   H15       1.0  0.9946378784213017  0.9510719324621288  0.5838789507487769  1.0000
  H   H16       1.0  0.9063651055183981  0.0986727581545075  0.7194282205835285  1.0000
  H   H17       1.0  0.9040380572608082  0.08176641949810003  0.9855760287715913  1.0000
  C   C26       1.0  0.9931075148682537  0.39582106142389484  0.9709146601685484  1.0000
  C   C27       1.0  0.9454738742668698  0.30342411118438806  0.05282943782420891  1.0000
  C   C28       1.0  0.8928842559575119  0.22118834810218124  0.9857695118457319  1.0000
  C   C29       1.0  0.8861756710761464  0.2300974879392963  0.8351707571518685  1.0000
  C   C30       1.0  0.9349334932206025  0.31937571353334016  0.7519337637708889  1.0000
  C   C31       1.0  0.9893396869693051  0.401546279992597  0.8175914528489145  1.0000
  C   C32       1.0  0.8303486018434703  0.14006222838662663  0.762978669777187  1.0000
  C   C33       1.0  0.8746931000684578  0.020784968159383903  0.7311323610515847  1.0000
  N   N3        1.0  0.9096971616420634  0.9266476010132345  0.7059953668578327  1.0000
  H   H18       1.0  0.08342676580682219  0.6805696849763034  0.04885549989299553  1.0000
  H   H19       1.0  0.9475643748048941  0.29667222399810145  0.16981415037025438  1.0000
  H   H20       1.0  0.8567106249132129  0.1512174067790104  0.051594584893380084  1.0000
  H   H21       1.0  0.9317432368393013  0.3223779018186468  0.6350903870048974  1.0000
  H   H22       1.0  0.05312531298195932  0.5906997461385743  0.5202007804402764  1.0000
  H   H23       1.0  0.8069875579644835  0.18790233991503436  0.6605480988118169  1.0000
  H   H24       1.0  0.7766046888708755  0.1140295046262456  0.8339727532922454  1.0000
  Zn  Zn1       1.0  0.9014431791267417  0.3997759880690734  0.3956282635853503  1.0000
  Zn  Zn2       1.0  0.08099620411484243  0.39759082203646723  0.39287734343151537  1.0000
  C   C34       1.0  0.9900489983548495  0.39529004326275224  0.6575535305893987  1.0000
  C   C35       1.0  0.9923923453122486  0.4020783826818155  0.13095218722794266  1.0000
  C   C36       1.0  0.9912944254979222  0.6358550392653732  0.38841382593905793  1.0000
  C   C37       1.0  0.9911468562328546  0.16151182752332313  0.40009197029769955  1.0000
  O   O1        1.0  0.0602917639290581  0.40334347156376005  0.1836182856681663  1.0000
  O   O2        1.0  0.058426172772239056  0.39236548132021287  0.6027991328075406  1.0000
  O   O3        1.0  0.059430945717972694  0.5866247792669028  0.3854669306289529  1.0000
  O   O4        1.0  0.05928693019699229  0.20908418292273967  0.4009503806910393  1.0000
  O   O5        1.0  0.9231523917719904  0.5882826279298536  0.38755522725699676  1.0000
  O   O6        1.0  0.9221476194899763  0.394024889886088  0.6048873519473394  1.0000
  O   O7        1.0  0.9240132184049245  0.4050028231494644  0.18570477159296206  1.0000
  O   O8        1.0  0.9230083841865891  0.21074352594982715  0.4030369747027214  1.0000
