data_image0
_chemical_formula_structural       NC12NC2H8C6NCSNH8C6NCOCH9Zn2C4O8
_chemical_formula_sum              "N5 C33 H25 S1 O9 Zn2"
_cell_length_a       17.80743265337812
_cell_length_b       9.275078345756787
_cell_length_c       10.300272075376752
_cell_angle_alpha    85.36235857771439
_cell_angle_beta     91.53227337963533
_cell_angle_gamma    90.00966593732542

_space_group_name_H-M_alt    "P 1"
_space_group_IT_number       1

loop_
  _space_group_symop_operation_xyz
  'x, y, z'

loop_
  _atom_site_type_symbol
  _atom_site_label
  _atom_site_symmetry_multiplicity
  _atom_site_fract_x
  _atom_site_fract_y
  _atom_site_fract_z
  _atom_site_occupancy
  N   N1        1.0  0.7155306479425955  0.5628520029186546  0.5974290430000175  1.0000
  C   C1        1.0  0.664881643151258  0.5957062562549607  0.5286505774775101  1.0000
  C   C2        1.0  0.601869253968979  0.6365745612996474  0.44309881994380507  1.0000
  C   C3        1.0  0.6139081089728219  0.69661828387209  0.31633342198248005  1.0000
  C   C4        1.0  0.5527943968895775  0.7358157542229866  0.23318176585383957  1.0000
  C   C5        1.0  0.47948904968633155  0.7152623564205429  0.2761348976657336  1.0000
  C   C6        1.0  0.46647273284027063  0.6550865180550085  0.403368747521742  1.0000
  C   C7        1.0  0.528443779915895  0.6158926675320266  0.4865038837014428  1.0000
  C   C8        1.0  0.3885927383456871  0.6332946860866873  0.4491851621665537  1.0000
  C   C9        1.0  0.3699621278634779  0.6634450086047972  0.5761452683670703  1.0000
  C   C10       1.0  0.2966270734511801  0.6429377706790675  0.6191388430938063  1.0000
  C   C11       1.0  0.24097819095969555  0.5919975041814263  0.5360109515784792  1.0000
  C   C12       1.0  0.1655033408173595  0.5708757682162389  0.58040693783541  1.0000
  N   N2        1.0  0.10482690573334588  0.5538953130613168  0.6160982567214486  1.0000
  C   C13       1.0  0.2589163326503486  0.5616593852004064  0.4095942617742665  1.0000
  C   C14       1.0  0.3321986189311215  0.5821831347465332  0.3663447728868028  1.0000
  H   H1        1.0  0.6704592897711517  0.7130946573443545  0.2818564492872204  1.0000
  H   H2        1.0  0.5622352916399589  0.7826059423710091  0.13528916546124847  1.0000
  H   H3        1.0  0.4330206140632716  0.7482006053833271  0.2104639826176744  1.0000
  H   H4        1.0  0.5196933061474397  0.5675639052159953  0.5842759673416076  1.0000
  H   H5        1.0  0.41185177418803404  0.7047158169593857  0.6416093599406933  1.0000
  H   H6        1.0  0.2833085681439397  0.667166527087439  0.7170802564357119  1.0000
  H   H7        1.0  0.21631708886724582  0.5217959614681004  0.34453951341097144  1.0000
  H   H8        1.0  0.3449799011076023  0.5562487887256466  0.2687110246204829  1.0000
  C   C15       1.0  0.9079880322631897  0.13479964118822896  0.6078583714060963  1.0000
  C   C16       1.0  0.8833246540627504  0.21816539178826846  0.4947873063317339  1.0000
  C   C17       1.0  0.8661448893911067  0.15350451647094854  0.3800662071166281  1.0000
  C   C18       1.0  0.8740584304461985  0.003750754659101795  0.3751882366533785  1.0000
  C   C19       1.0  0.8960074096613714  0.9189588384931416  0.48848904838441753  1.0000
  C   C20       1.0  0.912376644408588  0.9819364534721599  0.6056804613888318  1.0000
  N   N3        1.0  0.855643322736521  0.9347868379773593  0.25843501409671776  1.0000
  C   C21       1.0  0.8653452638503375  0.0011395498508310884  0.12917684161801457  1.0000
  S   S1        1.0  0.8162713449044423  0.9423951200841768  0.0076229881074823015  1.0000
  N   N4        1.0  0.9230905668897746  0.1058074855793523  0.10284071416441633  1.0000
  H   H9        1.0  0.9127633033769864  0.3967403273689449  0.8226758043607248  1.0000
  H   H10       1.0  0.8786393018445934  0.3346626410611329  0.4942767426385351  1.0000
  H   H11       1.0  0.8464566157044626  0.22067652227580692  0.29516776589679083  1.0000
  H   H12       1.0  0.89912253397427  0.8026048071181069  0.4853295734901839  1.0000
  H   H13       1.0  0.9781741334051661  0.6843890696365768  0.7910615541820764  1.0000
  H   H14       1.0  0.834455792358093  0.8294455356512359  0.2681354134772622  1.0000
  H   H15       1.0  0.9617636398064513  0.13094126371365578  0.17547969628142246  1.0000
  H   H16       1.0  0.9296761126182622  0.15396139211378324  0.008648597228251285  1.0000
  C   C22       1.0  0.9101892640401762  0.5585143763184588  0.22541661908122168  1.0000
  C   C23       1.0  0.8334878754591645  0.5944046103585998  0.21820304820801173  1.0000
  C   C24       1.0  0.7950747058551528  0.6144331762903206  0.09715939018896425  1.0000
  C   C25       1.0  0.8334937644333354  0.5940755784518708  0.983070298838244  1.0000
  C   C26       1.0  0.9101754445669522  0.5582216480463229  0.9881222765124112  1.0000
  C   C27       1.0  0.948184983545727  0.5411664508351486  0.1097809275188757  1.0000
  N   N5        1.0  0.7162703580796271  0.648961006915362  0.08830635291128908  1.0000
  C   C28       1.0  0.679446153151396  0.7396097732247373  0.1737391878609229  1.0000
  O   O1        1.0  0.7171314620702084  0.8158990360692355  0.24759171528362048  1.0000
  C   C29       1.0  0.5957653996746579  0.7521453336987475  0.16858383549620304  1.0000
  H   H17       1.0  0.9390936127074477  0.5427980928638048  0.5557224027222432  1.0000
  H   H18       1.0  0.8032944437953725  0.603957794745615  0.30687325291303913  1.0000
  H   H19       1.0  0.8032657269582995  0.6075867866551832  0.8902152973911033  1.0000
  H   H20       1.0  0.007347202859205649  0.5135243501583218  0.11453305488637235  1.0000
  H   H21       1.0  0.9389718769881041  0.5425296497256895  0.6627697246713558  1.0000
  H   H22       1.0  0.6846992812216679  0.6137118408267231  0.009936950877817537  1.0000
  H   H23       1.0  0.5702637370259457  0.644925150251808  0.15528900740572382  1.0000
  H   H24       1.0  0.5753831706660973  0.7911471965451372  0.26054284774206216  1.0000
  H   H25       1.0  0.5781167299671509  0.8296494518183484  0.0856576812370271  1.0000
  Zn  Zn1       1.0  0.8278731219315923  0.5602634418338583  0.6028240713194852  1.0000
  Zn  Zn2       1.0  0.992484368105015  0.5564721042738368  0.6107138512541352  1.0000
  C   C30       1.0  0.9101465929235263  0.552530823780541  0.843969241274034  1.0000
  C   C31       1.0  0.9102127040888284  0.5642065008379566  0.3695688902379206  1.0000
  C   C32       1.0  0.9115433382829704  0.8218116215367611  0.6009170184311912  1.0000
  C   C33       1.0  0.908815893580068  0.2949239713720114  0.6126211840795011  1.0000
  O   O2        1.0  0.9726896482275529  0.5646717442265139  0.42094185583049537  1.0000
  O   O3        1.0  0.9726057701550733  0.5491869549073243  0.7985840650620107  1.0000
  O   O4        1.0  0.9737328175590902  0.7666346234934075  0.6023176312629375  1.0000
  O   O5        1.0  0.9715625447080897  0.34722408728986737  0.6172081895402377  1.0000
  O   O6        1.0  0.8487948891547861  0.769511460113198  0.5963297303341535  1.0000
  O   O7        1.0  0.8476678507263538  0.5520655245322118  0.7925960904352598  1.0000
  O   O8        1.0  0.8477517286167336  0.5675502641850774  0.41495232000060267  1.0000
  O   O9        1.0  0.8466246250389852  0.35010259689436474  0.6112187511004468  1.0000
