data_image0
_chemical_formula_structural       NC9NC3NH7C6NCOCH9C6SCNH5Zn2C4O8
_chemical_formula_sum              "N5 C31 H21 O9 S1 Zn2"
_cell_length_a       16.053384444249904
_cell_length_b       10.300268703208214
_cell_length_c       10.302218930750286
_cell_angle_alpha    85.55128926110262
_cell_angle_beta     89.81672032337951
_cell_angle_gamma    89.1549403880511

_space_group_name_H-M_alt    "P 1"
_space_group_IT_number       1

loop_
  _space_group_symop_operation_xyz
  'x, y, z'

loop_
  _atom_site_type_symbol
  _atom_site_label
  _atom_site_symmetry_multiplicity
  _atom_site_fract_x
  _atom_site_fract_y
  _atom_site_fract_z
  _atom_site_occupancy
  N   N1        1.0  0.7838480771277355  0.40410492903140477  0.5649025720680176  1.0000
  C   C1        1.0  0.733086228712682  0.3833056834465086  0.4900754956094155  1.0000
  C   C2        1.0  0.670003132176352  0.3574623919915936  0.39712202564560695  1.0000
  C   C3        1.0  0.6836030548276804  0.3454058068797865  0.2664248343367115  1.0000
  C   C4        1.0  0.6069765822789253  0.32008826323451106  0.21418562898983629  1.0000
  C   C5        1.0  0.5498971760657575  0.31810789198160894  0.3158293386702775  1.0000
  C   C6        1.0  0.45924855704002  0.2942894372840088  0.30558541758670255  1.0000
  C   C7        1.0  0.4033573751410904  0.3369851237787634  0.3994664646258679  1.0000
  C   C8        1.0  0.3178124417993127  0.3143955551616182  0.3896547233891578  1.0000
  C   C9        1.0  0.2611411595115729  0.3588356313582244  0.48590702117072365  1.0000
  N   N2        1.0  0.21559411061230402  0.3945591860745048  0.563278795090985  1.0000
  C   C10       1.0  0.2874326878778334  0.24899832003340164  0.2859756417344559  1.0000
  C   C11       1.0  0.3423153232869437  0.20642220784435233  0.19230620506498153  1.0000
  C   C12       1.0  0.4276542675173007  0.22884612180014655  0.20172147276447314  1.0000
  N   N3        1.0  0.5890976993233854  0.34106133343686706  0.4273535624838418  1.0000
  H   H1        1.0  0.7423276512175631  0.3540484677935923  0.21482300747533123  1.0000
  H   H2        1.0  0.5947038188065119  0.3063314659376906  0.11303812213844087  1.0000
  H   H3        1.0  0.4256755032470728  0.38942844597491155  0.47924279458738667  1.0000
  H   H4        1.0  0.2214131892202603  0.23103394619353493  0.2775454649375735  1.0000
  H   H5        1.0  0.3187064523682808  0.15562059165925926  0.11229608359907539  1.0000
  H   H6        1.0  0.4687702612677724  0.19341530209051672  0.12849390179199038  1.0000
  H   H7        1.0  0.5629474119984547  0.3434143886453722  0.5200872551061673  1.0000
  C   C13       1.0  0.999809708715753  0.017982470356535663  0.5640980127735564  1.0000
  C   C14       1.0  0.013827008634129667  0.02708032610776391  0.4290813625323664  1.0000
  C   C15       1.0  0.022026824124240955  0.9143391867618132  0.3613194574773775  1.0000
  C   C16       1.0  0.013638551889535673  0.7919249687392815  0.4291144616299038  1.0000
  C   C17       1.0  0.9996404224919043  0.7806715342259564  0.5640945192678439  1.0000
  C   C18       1.0  0.9931135385615399  0.8942945539172431  0.6309513841765491  1.0000
  N   N4        1.0  0.035080879905068585  0.9220922682411226  0.22276479905342958  1.0000
  C   C19       1.0  0.08397393030068417  0.020130143305788325  0.15281679097961787  1.0000
  O   O1        1.0  0.1310260626104256  0.09207563494251736  0.21259515698058593  1.0000
  C   C20       1.0  0.0839787532694718  0.031039386589950094  0.007373228971292891  1.0000
  H   H8        1.0  0.9932688812913393  0.3419989951070843  0.6151310600335083  1.0000
  H   H9        1.0  0.016717575513958357  0.12187414552912014  0.37625154234913527  1.0000
  H   H10       1.0  0.018799192773013566  0.705457174975511  0.37594852613669216  1.0000
  H   H11       1.0  0.9823251197527031  0.8864678321132546  0.7350912508475731  1.0000
  H   H12       1.0  0.9931043524687293  0.4490507120947416  0.6149395513175835  1.0000
  H   H13       1.0  0.01212339882465008  0.8471841993909155  0.17068353516129164  1.0000
  H   H14       1.0  0.020210636625829448  0.015420125879973772  0.9708032919655083  1.0000
  H   H15       1.0  0.10462490223556148  0.12924892933081567  0.9694370586484657  1.0000
  H   H16       1.0  0.12697144663630544  0.9563690693347522  0.9714710570434645  1.0000
  C   C21       1.0  0.9996473844527478  0.39938953340574157  0.18282139716633106  1.0000
  C   C22       1.0  0.07812380824124054  0.3371465991913678  0.18630526492694566  1.0000
  C   C23       1.0  0.11713664291139958  0.305767108298838  0.07106173018096062  1.0000
  C   C24       1.0  0.07832697480137862  0.3369812733809939  0.951150254845973  1.0000
  C   C25       1.0  0.9998027461551195  0.39926443639786036  0.9453711443460482  1.0000
  C   C26       1.0  0.9608800067259148  0.43007940096572694  0.061773816511413004  1.0000
  S   S1        1.0  0.2174552768508098  0.22681532120276504  0.0769468767130026  1.0000
  C   C27       1.0  0.17391772854316012  0.06998792003288547  0.08937428162448557  1.0000
  N   N5        1.0  0.14534998819534195  0.96718087775411  0.09752158335676864  1.0000
  H   H17       1.0  0.9697927329982817  0.4231381340448481  0.5088255922880274  1.0000
  H   H18       1.0  0.10922003978642492  0.3125618201710556  0.2782602829962541  1.0000
  H   H19       1.0  0.10956246232014588  0.3122831127320849  0.8628375292400289  1.0000
  H   H20       1.0  0.9003539555091598  0.4780658101370457  0.05824019363229737  1.0000
  H   H21       1.0  0.8518326165179347  0.5167859703594979  0.7272505931432773  1.0000
  Zn  Zn1       1.0  0.9084406561891122  0.4013467692336119  0.5644414761142431  1.0000
  Zn  Zn2       1.0  0.09100151260143097  0.3973067642690758  0.5637505027238086  1.0000
  C   C28       1.0  0.9997726799075635  0.39411471768046874  0.801232947742051  1.0000
  C   C29       1.0  0.9996714821041629  0.4045404102208002  0.32695915097813644  1.0000
  C   C30       1.0  0.9996670903878547  0.6365079910914759  0.5589213112797944  1.0000
  C   C31       1.0  0.9997770096889934  0.162145577953815  0.5692708569048497  1.0000
  O   O2        1.0  0.06896046433808478  0.4047302652512397  0.3750708770972371  1.0000
  O   O3        1.0  0.06904316366119168  0.3908576127499511  0.752596415058266  1.0000
  O   O4        1.0  0.06895696512416594  0.5865932669569585  0.5569280577487166  1.0000
  O   O5        1.0  0.06904660055755851  0.20899462172853034  0.5707391372918693  1.0000
  O   O6        1.0  0.9303955059339224  0.5896589131542274  0.5574528417751481  1.0000
  O   O7        1.0  0.9304817041067638  0.3939248191832685  0.7531211298492066  1.0000
  O   O8        1.0  0.930399004531037  0.4077974266857298  0.3755940308725034  1.0000
  O   O9        1.0  0.9304851407690004  0.2120617738587922  0.5712623884110188  1.0000
