data_image0
_chemical_formula_structural       NC12NC2H8C12H10C6H6Zn2C4O8
_chemical_formula_sum              "N2 C36 H24 Zn2 O8"
_cell_length_a       19.240039667572717
_cell_length_b       14.994057918209652
_cell_length_c       10.681121600428286
_cell_angle_alpha    85.56355070602301
_cell_angle_beta     89.99986269578453
_cell_angle_gamma    89.99018167561823

_space_group_name_H-M_alt    "P 1"
_space_group_IT_number       1

loop_
  _space_group_symop_operation_xyz
  'x, y, z'

loop_
  _atom_site_type_symbol
  _atom_site_label
  _atom_site_symmetry_multiplicity
  _atom_site_fract_x
  _atom_site_fract_y
  _atom_site_fract_z
  _atom_site_occupancy
  N   N1        1.0  0.6543485768826405  0.9763033436624591  0.6187475010282282  1.0000
  C   C1        1.0  0.5942002080577604  0.9763034013509532  0.6187474220255277  1.0000
  C   C2        1.0  0.5193821709060138  0.9763034819171195  0.6187472896358619  1.0000
  C   C3        1.0  0.48291423866793526  0.9320206352993599  0.7184595147207242  1.0000
  C   C4        1.0  0.4102435006285832  0.931944468740349  0.7185429558307048  1.0000
  C   C5        1.0  0.37304993596048186  0.9763035455029992  0.6187470700957309  1.0000
  C   C6        1.0  0.4102320496621931  0.020662750708076758  0.5189513719678073  1.0000
  C   C7        1.0  0.4829027482080103  0.02058642238016972  0.5190349311818969  1.0000
  C   C8        1.0  0.2958448455281922  0.9763034914701025  0.6187469780819657  1.0000
  C   C9        1.0  0.2586673728394215  0.8985026926210942  0.6591119982244085  1.0000
  C   C10       1.0  0.1859966747655839  0.8985761245895411  0.6590239446454  1.0000
  C   C11       1.0  0.14951255861676688  0.9763034027389199  0.6187470368049799  1.0000
  C   C12       1.0  0.0746945214719309  0.9763033246055666  0.6187472765727098  1.0000
  N   N2        1.0  0.014546204623310507  0.976303296561842  0.6187474775429577  1.0000
  C   C13       1.0  0.18597595331767433  0.05403073297577676  0.5784700779699109  1.0000
  C   C14       1.0  0.258646639829536  0.05410428867309046  0.5783818676206162  1.0000
  H   H1        1.0  0.5106335800297322  0.8977358875930712  0.7963120244520718  1.0000
  H   H2        1.0  0.383154594628988  0.8982079297723836  0.7974711923601405  1.0000
  H   H3        1.0  0.3831344248712434  0.05439930825910855  0.44002308640881266  1.0000
  H   H4        1.0  0.5106131783181409  0.0548711012127447  0.4411826873847283  1.0000
  H   H5        1.0  0.2857687862957726  0.8372603153148624  0.6891583586061238  1.0000
  H   H6        1.0  0.15828988725986898  0.8379514002326292  0.6900664492891867  1.0000
  H   H7        1.0  0.15825291737783156  0.11465544047785607  0.547427587354608  1.0000
  H   H8        1.0  0.2857317051831888  0.11534672036722844  0.5483354640737268  1.0000
  C   C15       1.0  0.8344796864085522  0.7143351387709498  0.6187345622164814  1.0000
  C   C16       1.0  0.8746350506553522  0.6619072082629465  0.7062758083392368  1.0000
  C   C17       1.0  0.8746002775924461  0.5686835623196382  0.706327634994496  1.0000
  C   C18       1.0  0.8344691101063096  0.525834207414216  0.6188012315164972  1.0000
  C   C19       1.0  0.7943529753838416  0.5783613498252232  0.5312635560377412  1.0000
  C   C20       1.0  0.7943420084598819  0.6715850270641001  0.5312780322450199  1.0000
  C   C21       1.0  0.8344528409468331  0.4267597069289255  0.6188115139710566  1.0000
  C   C22       1.0  0.8355225369869942  0.3853262707717403  0.5051797643715911  1.0000
  C   C23       1.0  0.8355362582537061  0.2921018807720978  0.5051787196778452  1.0000
  C   C24       1.0  0.834421789117009  0.23826464546568044  0.6187712058611817  1.0000
  C   C25       1.0  0.8333225816381581  0.27959610248682615  0.7324499151135121  1.0000
  C   C26       1.0  0.8333675404935339  0.3728168691116618  0.7324512493959373  1.0000
  H   H9        1.0  0.7939390161053768  0.932019324940036  0.530117724824172  1.0000
  H   H10       1.0  0.9062788979094715  0.6928956276123683  0.774659469654766  1.0000
  H   H11       1.0  0.9067533676775363  0.530152574961675  0.7738799892793486  1.0000
  H   H12       1.0  0.7621891021349946  0.5472936766419632  0.46372240661558634  1.0000
  H   H13       1.0  0.7627041222708061  0.7100971668503453  0.4628750186552515  1.0000
  H   H14       1.0  0.8372940167315445  0.4250288402754568  0.41613831938753654  1.0000
  H   H15       1.0  0.836599185819878  0.2622765633551826  0.4160574809874878  1.0000
  H   H16       1.0  0.8354502795748535  0.031806605310985905  0.5038175135675563  1.0000
  H   H17       1.0  0.8322483922348882  0.23992241667700326  0.8215627058800524  1.0000
  H   H18       1.0  0.8316082470542949  0.4027124177466919  0.8214894702303095  1.0000
  C   C27       1.0  0.8344507432317902  0.9762998843161639  0.25100765919899587  1.0000
  C   C28       1.0  0.7847089215949431  0.9266853789470099  0.18958170424060164  1.0000
  C   C29       1.0  0.7847088781945093  0.9266854361483068  0.058699564291715634  1.0000
  C   C30       1.0  0.8344506885885231  0.9762999280460904  0.9864980948784066  1.0000
  C   C31       1.0  0.8841514547817506  0.025873317848606796  0.04792346661706582  1.0000
  C   C32       1.0  0.8841514458909387  0.025873304015579843  0.17881576527914514  1.0000
  H   H19       1.0  0.884752910551985  0.026473781777922367  0.5442689080227727  1.0000
  H   H20       1.0  0.7457189335541392  0.8877951847521759  0.24261582147705044  1.0000
  H   H21       1.0  0.74571891903387  0.8877952267441485  0.014111792254457581  1.0000
  H   H22       1.0  0.923146534417141  0.0647686367697888  0.9949336851064354  1.0000
  H   H23       1.0  0.9231464994023214  0.06476860549720342  0.2233580525886576  1.0000
  H   H24       1.0  0.8847531275073238  0.02647347097168562  0.6823398822875673  1.0000
  Zn  Zn1       1.0  0.7582938409860658  0.9763009483958606  0.6187547150002064  1.0000
  Zn  Zn2       1.0  0.9106009600949408  0.9762984150039372  0.6187504833360242  1.0000
  C   C33       1.0  0.8344495596564636  0.9727460240146224  0.8474744211695475  1.0000
  C   C34       1.0  0.8344469044891155  0.9798544649505643  0.39003090011216246  1.0000
  C   C35       1.0  0.8344291396666167  0.13923082259588204  0.6137739858980396  1.0000
  C   C36       1.0  0.8344672726256658  0.8133685945742791  0.6237314020753508  1.0000
  O   O1        1.0  0.8922453745488251  0.9810425613888188  0.43668676358886316  1.0000
  O   O2        1.0  0.8922486689279555  0.9715553318040165  0.8008149854194806  1.0000
  O   O3        1.0  0.8922314003594698  0.1059939121590307  0.6121002305549204  1.0000
  O   O4        1.0  0.8922625911445066  0.8466039874162634  0.6254014245591736  1.0000
  O   O5        1.0  0.7766321579615554  0.10599537598537023  0.6121037737719144  1.0000
  O   O6        1.0  0.7766494264083929  0.9715578674272178  0.8008184619396517  1.0000
  O   O7        1.0  0.7766461320789873  0.981045065924951  0.4366887344842738  1.0000
  O   O8        1.0  0.776663348672528  0.846606485571772  0.6254034893436923  1.0000
