data_image0
_chemical_formula_structural       NC12NC2H8C12NH11C15H12Zn2C4O8
_chemical_formula_sum              "N3 C45 H31 Zn2 O8"
_cell_length_a       17.80743265337812
_cell_length_b       10.299770795358612
_cell_length_c       10.299157797200026
_cell_angle_alpha    85.53969178690444
_cell_angle_beta     91.55653286904399
_cell_angle_gamma    89.45311437677636

_space_group_name_H-M_alt    "P 1"
_space_group_IT_number       1

loop_
  _space_group_symop_operation_xyz
  'x, y, z'

loop_
  _atom_site_type_symbol
  _atom_site_label
  _atom_site_symmetry_multiplicity
  _atom_site_fract_x
  _atom_site_fract_y
  _atom_site_fract_z
  _atom_site_occupancy
  N   N1        1.0  0.7073433365186739  0.407035498217861  0.6011731034742702  1.0000
  C   C1        1.0  0.6565126077057136  0.4366117367568356  0.532468836499425  1.0000
  C   C2        1.0  0.5932741679333812  0.47340242969339985  0.44700937699000454  1.0000
  C   C3        1.0  0.604980646990568  0.5274552570003226  0.32037946020662167  1.0000
  C   C4        1.0  0.5436498575924885  0.5627417536131316  0.23731620270065634  1.0000
  C   C5        1.0  0.47045817755308567  0.5442390549971186  0.28022290788926485  1.0000
  C   C6        1.0  0.4577750143438734  0.49006730560304423  0.4073210002131469  1.0000
  C   C7        1.0  0.5199631165252228  0.45478406709602803  0.49036774491912594  1.0000
  C   C8        1.0  0.38001560326823614  0.47044975372461195  0.4530882223987163  1.0000
  C   C9        1.0  0.3612647142542795  0.4976036593219686  0.5801382324650832  1.0000
  C   C10       1.0  0.2880431052116595  0.4791425235269555  0.6230855005465004  1.0000
  C   C11       1.0  0.2326295706956084  0.43327299826064003  0.5398207883745267  1.0000
  C   C12       1.0  0.1572715932155993  0.4142586828351771  0.5841690935051627  1.0000
  N   N2        1.0  0.09668911587504822  0.3989724520535174  0.6198220799646739  1.0000
  C   C13       1.0  0.25068906641559724  0.4059500428283649  0.41331378782653316  1.0000
  C   C14       1.0  0.3238577618598243  0.4244260290477235  0.3701106174742599  1.0000
  H   H1        1.0  0.6614406971389339  0.5422877104559607  0.2859396997669952  1.0000
  H   H2        1.0  0.5528319602929072  0.604863480568052  0.13952928086125116  1.0000
  H   H3        1.0  0.4238083563649043  0.5738911126316082  0.21462675786288155  1.0000
  H   H4        1.0  0.5114791277446438  0.41127706865883606  0.5880302918292621  1.0000
  H   H5        1.0  0.4029632253356397  0.5347661350970111  0.6457129572096241  1.0000
  H   H6        1.0  0.2746269454890981  0.5009631097268985  0.7210986919104592  1.0000
  H   H7        1.0  0.20827399404599642  0.37005473923553506  0.34815196981688645  1.0000
  H   H8        1.0  0.3367453343988315  0.4010698246759077  0.27240086483201  1.0000
  C   C15       1.0  0.901951752775878  0.021636771241476897  0.6105340787232758  1.0000
  C   C16       1.0  0.8801166586630108  0.031302391089636616  0.47806995332706603  1.0000
  C   C17       1.0  0.8691215445988486  0.9190624624925059  0.41091753957248134  1.0000
  C   C18       1.0  0.8802541509833294  0.7960179502268984  0.47800798200475797  1.0000
  C   C19       1.0  0.9020878856823756  0.7843610665578596  0.6104725928678736  1.0000
  C   C20       1.0  0.9128147826587815  0.8977279801862561  0.6759937493857424  1.0000
  C   C21       1.0  0.8460216112572433  0.9303415256509419  0.2707781990167528  1.0000
  C   C22       1.0  0.7913075924282477  0.022665626668554754  0.2229676358780155  1.0000
  C   C23       1.0  0.7695981479203909  0.03315158882226821  0.09106897053801144  1.0000
  C   C24       1.0  0.8021919855357074  0.9517420041173535  0.00488093153181413  1.0000
  C   C25       1.0  0.8567255233923241  0.8596199809780921  0.05179223787894216  1.0000
  C   C26       1.0  0.8784951431513832  0.8488767555782827  0.18366381069236826  1.0000
  N   N3        1.0  0.7799540296639662  0.9625998330202293  0.8699722674696738  1.0000
  H   H9        1.0  0.9102399877507794  0.3454066375076017  0.6610246548144325  1.0000
  H   H10       1.0  0.872605098048948  0.12637817153898068  0.42635484970569615  1.0000
  H   H11       1.0  0.8708569863039096  0.7091982599587165  0.427142720925259  1.0000
  H   H12       1.0  0.9296589976797313  0.8895033679197054  0.7781839273173916  1.0000
  H   H13       1.0  0.9104402101355252  0.4524661406342346  0.6609346154146576  1.0000
  H   H14       1.0  0.7645982289272224  0.08561061699256457  0.2878954975858756  1.0000
  H   H15       1.0  0.7272347957618348  0.1045196231054466  0.05612630607300173  1.0000
  H   H16       1.0  0.8825056276285504  0.7963488802571291  0.9861305520505104  1.0000
  H   H17       1.0  0.9214340997237842  0.7780074907817615  0.21719441682208937  1.0000
  H   H18       1.0  0.8039311121679257  0.902327188077775  0.804977150216665  1.0000
  H   H19       1.0  0.7393488736972001  0.030991734502995315  0.8340905882265369  1.0000
  C   C27       1.0  0.9019327369057833  0.4031069682818804  0.22910715204890453  1.0000
  C   C28       1.0  0.823679082111141  0.38674819365936436  0.22553571088047852  1.0000
  C   C29       1.0  0.7841630095351911  0.3783414973422752  0.10659027653526244  1.0000
  C   C30       1.0  0.8239022616862898  0.3865348403087068  0.9902791247338173  1.0000
  C   C31       1.0  0.9021068802690926  0.40289083571701845  0.9918995342701957  1.0000
  C   C32       1.0  0.9406654520538392  0.4110756292860558  0.11182197180117126  1.0000
  C   C33       1.0  0.7014313729024659  0.3610519651276529  0.10386076142470735  1.0000
  C   C34       1.0  0.6676117446540979  0.2747734488791691  0.021141571606731354  1.0000
  C   C35       1.0  0.5897578250289114  0.25859632306564295  0.018605235152619803  1.0000
  C   C36       1.0  0.5443367487286253  0.3277173551760615  0.0992536592535378  1.0000
  C   C37       1.0  0.5777544710044945  0.41484974037253197  0.18097680787452042  1.0000
  C   C38       1.0  0.6556076339020995  0.43103108020718706  0.18366105843602742  1.0000
  C   C39       1.0  0.460466481871754  0.3126391052220272  0.09417497007316089  1.0000
  C   C40       1.0  0.42669610154367055  0.40710575292156187  0.9951381722012234  1.0000
  C   C41       1.0  0.3989418904276519  0.4847852996724379  0.9137032275528632  1.0000
  H   H20       1.0  0.049692035789638656  0.43318735860044666  0.4432056479026774  1.0000
  H   H21       1.0  0.7934596215788827  0.3787491676077708  0.3156267571975644  1.0000
  H   H22       1.0  0.7935752941763835  0.38192486224625183  0.8981946817131159  1.0000
  H   H23       1.0  0.0009870405449046156  0.4236877223339546  0.11378757683351061  1.0000
  H   H24       1.0  0.9321900752658593  0.40914039925756956  0.6650505848175436  1.0000
  H   H25       1.0  0.7014601718398509  0.2187069621287905  0.9593956877514933  1.0000
  H   H26       1.0  0.5648728732214926  0.19195607357549213  0.9538601441601474  1.0000
  H   H27       1.0  0.5434672615523525  0.47061613583004513  0.24235670315099722  1.0000
  H   H28       1.0  0.679880203817883  0.4997912361339363  0.24673538884176272  1.0000
  H   H29       1.0  0.4454548338591808  0.21270994214537797  0.07001961699260639  1.0000
  H   H30       1.0  0.4365548322447793  0.32857920629920967  0.19024958813467752  1.0000
  H   H31       1.0  0.3745971242868714  0.5529848334268839  0.842211779659229  1.0000
  Zn  Zn1       1.0  0.819700122538626  0.4047052078810265  0.606562282996818  1.0000
  Zn  Zn2       1.0  0.984332327889271  0.4012921459792802  0.6144434951045723  1.0000
  C   C42       1.0  0.9020713846023398  0.39775809016363683  0.8477158038936279  1.0000
  C   C43       1.0  0.9019628639257027  0.40824086500196  0.37329018761393584  1.0000
  C   C44       1.0  0.90205710940507  0.6401914785402245  0.6053085267432807  1.0000
  C   C45       1.0  0.9019770826828215  0.16580591747509765  0.6156975314442437  1.0000
  O   O1        1.0  0.9644500377601501  0.40866294272058085  0.42467021085584267  1.0000
  O   O2        1.0  0.9645362450388677  0.39474459782246013  0.8023170644887991  1.0000
  O   O3        1.0  0.9645238757241898  0.5905126420030504  0.6065714326903573  1.0000
  O   O4        1.0  0.9644623508764314  0.21289490902240504  0.6204157425825758  1.0000
  O   O5        1.0  0.8395700433705722  0.5931024460040284  0.600590032822512  1.0000
  O   O6        1.0  0.8395824129445079  0.3973359621398386  0.7963355952446911  1.0000
  O   O7        1.0  0.8394962053511351  0.4112542622235625  0.41868718010534206  1.0000
  O   O8        1.0  0.8395085184849201  0.2154862192090985  0.6144328092074822  1.0000
