data_image0
_chemical_formula_structural       NC8NC6H8C8H4C7NC2NH6Zn2C4O8
_chemical_formula_sum              "N4 C35 H18 Zn2 O8"
_cell_length_a       17.457602349358154
_cell_length_b       9.27514070457351
_cell_length_c       9.273999113489248
_cell_angle_alpha    85.20391567868208
_cell_angle_beta     92.55204972901187
_cell_angle_gamma    92.27341969939751

_space_group_name_H-M_alt    "P 1"
_space_group_IT_number       1

loop_
  _space_group_symop_operation_xyz
  'x, y, z'

loop_
  _atom_site_type_symbol
  _atom_site_label
  _atom_site_symmetry_multiplicity
  _atom_site_fract_x
  _atom_site_fract_y
  _atom_site_fract_z
  _atom_site_occupancy
  N   N1        1.0  0.7361358980235189  0.6270105136784989  0.47865117075981556  1.0000
  C   C1        1.0  0.674815153821503  0.5761114599578128  0.46670877939767214  1.0000
  C   C2        1.0  0.5985295662136778  0.5127992894392293  0.45186306454387304  1.0000
  C   C3        1.0  0.5399818225724902  0.5566646759163567  0.5352075085119307  1.0000
  C   C4        1.0  0.4651450769602007  0.49569895336059666  0.5210512820517106  1.0000
  C   C5        1.0  0.4030045278306906  0.5420119917801016  0.6093157975721895  1.0000
  C   C6        1.0  0.328767273766131  0.5630717295264431  0.5474190601328803  1.0000
  C   C7        1.0  0.27021802407050705  0.6067317891618729  0.63088285446027  1.0000
  C   C8        1.0  0.19455412696075466  0.628486190817262  0.5665265739832361  1.0000
  N   N2        1.0  0.13373323072693757  0.6459696431020865  0.5147842717743085  1.0000
  C   C9        1.0  0.2854135557041731  0.6295971314299328  0.7768091580783272  1.0000
  C   C10       1.0  0.35886711229027846  0.608965577430326  0.8391377888024747  1.0000
  C   C11       1.0  0.41740424122978026  0.5655009750880247  0.7561831260168144  1.0000
  C   C12       1.0  0.4501456415157278  0.3901296266867096  0.42195638360066456  1.0000
  C   C13       1.0  0.508681956637042  0.3465697974846764  0.339057260818592  1.0000
  C   C14       1.0  0.5827326824082099  0.4076549065675936  0.3538248717069188  1.0000
  H   H1        1.0  0.5525496950126091  0.6395178112004052  0.6094796423197673  1.0000
  H   H2        1.0  0.3166908091416317  0.5474507118590639  0.43401638459296504  1.0000
  H   H3        1.0  0.24053350168197873  0.6633155229297623  0.8422782025552915  1.0000
  H   H4        1.0  0.37044068818253795  0.6263201759660024  0.9521307644088574  1.0000
  H   H5        1.0  0.47363572713209046  0.5483973609950883  0.8073615565031673  1.0000
  H   H6        1.0  0.3934219011869446  0.33988580179777506  0.40997576181541917  1.0000
  H   H7        1.0  0.4966389342824685  0.2649683813627597  0.26345732209963946  1.0000
  H   H8        1.0  0.6276056700150191  0.372965613433629  0.28892091530982117  1.0000
  C   C15       1.0  0.9326108903369085  0.21294726116261575  0.4954971879378692  1.0000
  C   C16       1.0  0.9439839194785423  0.29807192148339556  0.3648727310933373  1.0000
  C   C17       1.0  0.9620310372809302  0.23471353595416522  0.24002773660333387  1.0000
  C   C18       1.0  0.969134960202529  0.08509859675722997  0.24341714448785257  1.0000
  C   C19       1.0  0.9567868727505598  0.9983670928922934  0.3715875484093043  1.0000
  C   C20       1.0  0.9372654500753913  0.060022003857310935  0.49795140119100934  1.0000
  C   C21       1.0  0.9882415795090614  0.020074782605219447  0.11463416045914367  1.0000
  C   C22       1.0  0.004239222930007447  0.9656182873077037  0.006815303105516704  1.0000
  H   H9        1.0  0.9440334182607798  0.2869252509542459  0.8511732988769483  1.0000
  H   H10       1.0  0.97119554010303  0.30275576920283176  0.1410833326293659  1.0000
  H   H11       1.0  0.9420110653581365  0.759652247424873  0.7373234462781846  1.0000
  H   H12       1.0  0.018281721958442805  0.9178152227040153  0.9121729820481215  1.0000
  C   C23       1.0  0.9362834651728057  0.6402391387890611  0.07300399906109489  1.0000
  C   C24       1.0  0.9961276560646972  0.574047534274454  0.15676147995022505  1.0000
  C   C25       1.0  0.050837016465614684  0.49734568394918477  0.09289099913467957  1.0000
  C   C26       1.0  0.047169268621080285  0.48416706344918964  0.9432300951856658  1.0000
  C   C27       1.0  0.9884930976385132  0.5528494188956714  0.858025958828216  1.0000
  C   C28       1.0  0.9335928937480048  0.6327301299639745  0.9204445122094703  1.0000
  C   C29       1.0  0.10557319380639175  0.4007142689973034  0.8776353717503991  1.0000
  N   N3        1.0  0.16954145175648927  0.3533832605500715  0.951366698520022  1.0000
  C   C30       1.0  0.20628420302628134  0.2829873026853251  0.8552097843332342  1.0000
  C   C31       1.0  0.16441707361072985  0.2881770758297886  0.7258801152100189  1.0000
  N   N4        1.0  0.10107669549459118  0.3621511013380272  0.7401415610793687  1.0000
  H   H13       1.0  0.8556179027081487  0.8183936991855696  0.3326869328954547  1.0000
  H   H14       1.0  0.09553634839793546  0.44635803749452063  0.16155353304959344  1.0000
  H   H15       1.0  0.814338303856952  0.708425458774763  0.6240398691479863  1.0000
  H   H16       1.0  0.2602538696632939  0.23068081104843194  0.878351287980581  1.0000
  H   H17       1.0  0.17887844816714274  0.24071908259680017  0.6283861867820139  1.0000
  H   H18       1.0  0.05779452658960671  0.3819430800408153  0.6605551549098108  1.0000
  Zn  Zn1       1.0  0.8508738519945909  0.6324777672293274  0.48908672316884233  1.0000
  Zn  Zn2       1.0  0.018995160020748532  0.6404904595580401  0.5043604983837646  1.0000
  C   C32       1.0  0.9340681845375329  0.6284035943700972  0.760243341453914  1.0000
  C   C33       1.0  0.9358026729073673  0.6445665384884354  0.23320419378203686  1.0000
  C   C34       1.0  0.9363999612237871  0.8999576064435411  0.4917372364945785  1.0000
  C   C35       1.0  0.9334708290870088  0.37301079014923544  0.5017103654366613  1.0000
  O   O1        1.0  0.9994424402799352  0.6490533360469175  0.29276514244107155  1.0000
  O   O2        1.0  0.998028595234502  0.6299971605025401  0.7122744162575405  1.0000
  O   O3        1.0  0.9999106695643449  0.849280405235704  0.4954537629843143  1.0000
  O   O4        1.0  0.9975603089818632  0.4297700998557892  0.5095856823440719  1.0000
  O   O5        1.0  0.8723086456619572  0.8431981241988773  0.48386153398876003  1.0000
  O   O6        1.0  0.8704265810947002  0.6239166129987681  0.7006821153469223  1.0000
  O   O7        1.0  0.8718404314228506  0.6429727536566441  0.2811711065938252  1.0000
  O   O8        1.0  0.8699582997214892  0.42368950619077833  0.4979917546472765  1.0000
