data_image0
_chemical_formula_structural       NC8NH4C6NH7C6SCH6Zn2C4O8
_chemical_formula_sum              "N3 C25 H17 S1 Zn2 O8"
_cell_length_a       13.859017981522156
_cell_length_b       9.274771166103582
_cell_length_c       9.275274088470228
_cell_angle_alpha    86.00109441054587
_cell_angle_beta     89.72577744646335
_cell_angle_gamma    90.59707920365587

_space_group_name_H-M_alt    "P 1"
_space_group_IT_number       1

loop_
  _space_group_symop_operation_xyz
  'x, y, z'

loop_
  _atom_site_type_symbol
  _atom_site_label
  _atom_site_symmetry_multiplicity
  _atom_site_fract_x
  _atom_site_fract_y
  _atom_site_fract_z
  _atom_site_occupancy
  N   N1        1.0  0.9245942610557454  0.5635355518114775  0.4075156986480448  1.0000
  C   C1        1.0  0.8523828817062726  0.5559210512029988  0.34623022254861624  1.0000
  C   C2        1.0  0.7625561845855808  0.5464499808710521  0.269999064127064  1.0000
  C   C3        1.0  0.7627210775128807  0.527980492010713  0.12134456623786828  1.0000
  C   C4        1.0  0.6754614297068773  0.5187837141777658  0.047314312797482216  1.0000
  C   C5        1.0  0.5878558143635998  0.5279822124488738  0.12134431485164487  1.0000
  C   C6        1.0  0.5873259550665253  0.546450952644028  0.26999887860361405  1.0000
  C   C7        1.0  0.6747674807258996  0.5556836457232026  0.34431498701890734  1.0000
  C   C8        1.0  0.49714307200208224  0.5559219529081638  0.34622998053145354  1.0000
  N   N2        1.0  0.424645347872051  0.5635358644866957  0.4075156044944841  1.0000
  H   H1        1.0  0.8301532347301759  0.5207126212714079  0.06285059001877547  1.0000
  H   H2        1.0  0.6757297119720996  0.5045170877078322  0.9324851090889387  1.0000
  H   H3        1.0  0.5206969879448482  0.5207157158188064  0.06285016450542225  1.0000
  H   H4        1.0  0.6744986435268945  0.5699790518044485  0.4593776465212944  1.0000
  C   C9        1.0  0.17165964547699009  0.1399466284383859  0.40830114429141706  1.0000
  C   C10       1.0  0.14986041634631397  0.22203134328777427  0.27942913208554065  1.0000
  C   C11       1.0  0.13707256632389656  0.155750161258712  0.1497394809267283  1.0000
  C   C12       1.0  0.1461374755451852  0.005997869460968148  0.1479824876839797  1.0000
  C   C13       1.0  0.16615800936999636  0.9225769108295239  0.2750841755394535  1.0000
  C   C14       1.0  0.17758910263068603  0.9871138688761683  0.40674266340764015  1.0000
  N   N3        1.0  0.11587060098392032  0.24092092178655378  0.019451090458827643  1.0000
  H   H5        1.0  0.2792610031058884  0.22260257519953308  0.7236905945755616  1.0000
  H   H6        1.0  0.14499705556101433  0.3386187902770408  0.27887556474283254  1.0000
  H   H7        1.0  0.13675519342360354  0.9535629040873042  0.048199385444393186  1.0000
  H   H8        1.0  0.1704232261528269  0.8063736979391782  0.27095692414043104  1.0000
  H   H9        1.0  0.24614542252538366  0.6920856430977347  0.6213191597660289  1.0000
  H   H10       1.0  0.10922277216337742  0.35299437390721966  0.019404285089041684  1.0000
  H   H11       1.0  0.10657172421573982  0.19252567406427937  0.922037955650223  1.0000
  C   C15       1.0  0.1759512021823442  0.5595107982246978  0.9843323688752889  1.0000
  C   C16       1.0  0.25847570112977947  0.6102842709989282  0.053587289316109565  1.0000
  C   C17       1.0  0.3357214940749652  0.6725497949253849  0.9734086601834435  1.0000
  C   C18       1.0  0.3317251967971142  0.6841801876292817  0.8228271389354288  1.0000
  C   C19       1.0  0.2512549275915714  0.6323148400445917  0.7520713147355713  1.0000
  C   C20       1.0  0.17329753589167596  0.5675496881758322  0.8307114044447403  1.0000
  S   S1        1.0  0.43980914996134685  0.7379504314497531  0.06397667583413336  1.0000
  C   C21       1.0  0.3914775472505159  0.9184995950741334  0.07537669977362249  1.0000
  H   H12       1.0  0.941881811901797  0.5001589286525012  0.09314631576169252  1.0000
  H   H13       1.0  0.3913531217311934  0.7325107021479427  0.7602403415994528  1.0000
  H   H14       1.0  0.016817163348456624  0.5217047394933674  0.5538809751088976  1.0000
  H   H15       1.0  0.37803744356120816  0.9689085538682332  0.9653218753497012  1.0000
  H   H16       1.0  0.3232245584147329  0.9130810581858312  0.1387522492769966  1.0000
  H   H17       1.0  0.4446606101936901  0.9858030214213646  0.13025219305454838  1.0000
  Zn  Zn1       1.0  0.06889815596517845  0.563531869166652  0.4075239967899493  1.0000
  Zn  Zn2       1.0  0.28034133632308134  0.5635278899711511  0.4075191190613743  1.0000
  C   C22       1.0  0.17375675792752412  0.5602837023747647  0.6707382179213266  1.0000
  C   C23       1.0  0.17548505560883793  0.5667778780893515  0.14430503597279554  1.0000
  C   C24       1.0  0.17648133593703721  0.8269266526844337  0.401294547856371  1.0000
  C   C25       1.0  0.17276039307787053  0.30013319547169304  0.41374878605892396  1.0000
  O   O1        1.0  0.2555701535154489  0.5692089734145919  0.1979914849235349  1.0000
  O   O2        1.0  0.2541521351347069  0.5578484948073703  0.617047654047679  1.0000
  O   O3        1.0  0.25635117994127166  0.7731660635954549  0.3994699813772789  1.0000
  O   O4        1.0  0.2533710369686517  0.35389141392030155  0.4155690495239224  1.0000
  O   O5        1.0  0.09586838316446245  0.7731683452203575  0.3994740663214822  1.0000
  O   O6        1.0  0.09366935072420701  0.5578525087431183  0.617051658964791  1.0000
  O   O7        1.0  0.09508737424963187  0.569212920627862  0.19799375731050442  1.0000
  O   O8        1.0  0.09288825728792216  0.35389535184263354  0.41557142997498653  1.0000
