data_image0
_chemical_formula_structural       NC6NC2H4C7NH5C6NCH8Zn2C4O8
_chemical_formula_sum              "N4 C26 H17 Zn2 O8"
_cell_length_a       14.927258858638513
_cell_length_b       9.275154477615127
_cell_length_c       9.274690524155615
_cell_angle_alpha    86.28222006600178
_cell_angle_beta     89.68735833801398
_cell_angle_gamma    89.43371000992973

_space_group_name_H-M_alt    "P 1"
_space_group_IT_number       1

loop_
  _space_group_symop_operation_xyz
  'x, y, z'

loop_
  _atom_site_type_symbol
  _atom_site_label
  _atom_site_symmetry_multiplicity
  _atom_site_fract_x
  _atom_site_fract_y
  _atom_site_fract_z
  _atom_site_occupancy
  N   N1        1.0  0.8393322550141832  0.5640762789750133  0.41638728277111914  1.0000
  C   C1        1.0  0.761805763985486  0.5640762505630436  0.416387293245275  1.0000
  C   C2        1.0  0.6653732559046375  0.5640763652047895  0.41638724384868797  1.0000
  C   C3        1.0  0.6189028892874214  0.5392853033923015  0.28962556790224636  1.0000
  C   C4        1.0  0.5251915782456807  0.5392853278595486  0.2896254345648886  1.0000
  C   C5        1.0  0.4775571929413343  0.5640761878506451  0.4163872617712865  1.0000
  C   C6        1.0  0.3811246178689519  0.5640763024953028  0.41638721236878773  1.0000
  N   N2        1.0  0.30359812684025544  0.5640762740833329  0.41638722284294377  1.0000
  C   C7        1.0  0.5240274925670166  0.588867249666045  0.5431489377118164  1.0000
  C   C8        1.0  0.6177388036087569  0.5888672251987981  0.5431490710491742  1.0000
  H   H1        1.0  0.6550519215733875  0.5199964584427781  0.1909977089087005  1.0000
  H   H2        1.0  0.4899482648637476  0.5199966559001368  0.19099770475743694  1.0000
  H   H3        1.0  0.48787852696019685  0.6081560852425045  0.6417769047340895  1.0000
  H   H4        1.0  0.6529821160107011  0.608155995428201  0.6417769112557044  1.0000
  C   C9        1.0  0.07406757184930512  0.1406724245719415  0.4147193702942231  1.0000
  C   C10       1.0  0.049915405725376366  0.22274315262643385  0.28763678387025365  1.0000
  C   C11       1.0  0.018453393821430183  0.15565508267080075  0.16728595216980624  1.0000
  C   C12       1.0  0.010623569355156182  0.005580907711783871  0.17260031489847605  1.0000
  C   C13       1.0  0.03561599567475306  0.922277240454996  0.29678615486197657  1.0000
  C   C14       1.0  0.06887142823302339  0.9874691448356318  0.4180676214217329  1.0000
  C   C15       1.0  0.9931146684698016  0.24129426449004132  0.0386716892572152  1.0000
  N   N3        1.0  0.9727493712109736  0.3101325479572077  0.9352987661226324  1.0000
  H   H5        1.0  0.09021962222069241  0.22042913260471034  0.7685153439544715  1.0000
  H   H6        1.0  0.05358866205148141  0.3396652539334071  0.2833601557440833  1.0000
  H   H7        1.0  0.9859656978415574  0.952647613900276  0.08010314214043679  1.0000
  H   H8        1.0  0.030912312725301715  0.8058085383193115  0.29665930967824994  1.0000
  H   H9        1.0  0.0835526125066968  0.6907663728898643  0.6551209870898631  1.0000
  C   C16       1.0  0.07292656290639338  0.5603792794494749  0.9931315839610919  1.0000
  C   C17       1.0  0.1453267896759921  0.6227495706321471  0.062115560694289806  1.0000
  C   C18       1.0  0.21305316131739016  0.6960395144317817  0.9819075442854062  1.0000
  C   C19       1.0  0.20768028849096284  0.706689798613215  0.8310531946711639  1.0000
  C   C20       1.0  0.13719699768695226  0.6434604979531402  0.7608551361206848  1.0000
  C   C21       1.0  0.07001239913470703  0.5677622569625854  0.8396553227713444  1.0000
  N   N4        1.0  0.28720281965859207  0.7614710445105306  0.050888043502052234  1.0000
  C   C22       1.0  0.29939173722825685  0.7563955156003576  0.20714952192818514  1.0000
  H   H10       1.0  0.9717396090940867  0.3865806100311733  0.2854431737048153  1.0000
  H   H11       1.0  0.25893452998877486  0.7631306772167237  0.7672177972214542  1.0000
  H   H12       1.0  0.13647225940108698  0.6508996270602305  0.6438118352992266  1.0000
  H   H13       1.0  0.9288587367732821  0.5001205860933735  0.5639496979117897  1.0000
  H   H14       1.0  0.33561248212624584  0.8154044842971236  0.9864671440927119  1.0000
  H   H15       1.0  0.3617351045261822  0.8135253517633079  0.23305372234234964  1.0000
  H   H16       1.0  0.3051048703057775  0.6424104505936188  0.25092347979224616  1.0000
  H   H17       1.0  0.24192407356181356  0.8104485466525231  0.2585652655686963  1.0000
  Zn  Zn1       1.0  0.9733093599450552  0.5640724867153277  0.41639557863766474  1.0000
  Zn  Zn2       1.0  0.16962106455900638  0.5640683594146727  0.41639070380542176  1.0000
  C   C23       1.0  0.07059651184549277  0.5606227951708727  0.6796215316073306  1.0000
  C   C24       1.0  0.0723360447260426  0.5675198713782319  0.15316489944420897  1.0000
  C   C25       1.0  0.06986876747963014  0.827356426379227  0.41169103622901765  1.0000
  C   C26       1.0  0.07306373246960174  0.3007845085603402  0.4210954648192218  1.0000
  O   O1        1.0  0.14663716884255942  0.5699084627437854  0.2068716671979458  1.0000
  O   O2        1.0  0.14529143729008942  0.5582299799521637  0.6259106447553218  1.0000
  O   O3        1.0  0.14470276506600313  0.773620773552322  0.4095548800373301  1.0000
  O   O4        1.0  0.1472257743874993  0.3545176785166917  0.42322732388720996  1.0000
  O   O5        1.0  0.9957045831250285  0.773623167616221  0.4095589585499648  1.0000
  O   O6        1.0  0.996293244979885  0.5582341056285114  0.6259146532653455  1.0000
  O   O7        1.0  0.9976389828657631  0.569912523062284  0.20687394259039094  1.0000
  O   O8        1.0  0.9982275880983151  0.3545217294650372  0.42322970730247156  1.0000
