data_image0
_chemical_formula_structural       NC8NH4C12H9C6NH5Zn2C4O8
_chemical_formula_sum              "N3 C30 H18 Zn2 O8"
_cell_length_a       13.859017981522156
_cell_length_b       14.994056859933258
_cell_length_c       9.274774538082514
_cell_angle_alpha    85.07848573505835
_cell_angle_beta     90.34966334456435
_cell_angle_gamma    89.97999317567633

_space_group_name_H-M_alt    "P 1"
_space_group_IT_number       1

loop_
  _space_group_symop_operation_xyz
  'x, y, z'

loop_
  _atom_site_type_symbol
  _atom_site_label
  _atom_site_symmetry_multiplicity
  _atom_site_fract_x
  _atom_site_fract_y
  _atom_site_fract_z
  _atom_site_occupancy
  N   N1        1.0  0.9017175008939583  0.984856181267811  0.4084771367634088  1.0000
  C   C1        1.0  0.8291137111887871  0.9808376368008986  0.3470862536564338  1.0000
  C   C2        1.0  0.7387989039230274  0.9758393239144123  0.27072398342548043  1.0000
  C   C3        1.0  0.738011961273937  0.9660920982713433  0.12181381015877224  1.0000
  C   C4        1.0  0.650278289665489  0.9612386189297552  0.04765623208188963  1.0000
  C   C5        1.0  0.5631466839049368  0.9660931650510518  0.12181356202016014  1.0000
  C   C6        1.0  0.5635686660544407  0.9758399269650635  0.2707237996729055  1.0000
  C   C7        1.0  0.6514860429722575  0.9807123966965364  0.3451677252143368  1.0000
  C   C8        1.0  0.47387389322721724  0.9808381971568514  0.34708601318052534  1.0000
  N   N2        1.0  0.4017685847722708  0.9848563756920627  0.4084770431293663  1.0000
  H   H1        1.0  0.8050695835527425  0.9622564688489019  0.06321922770068689  1.0000
  H   H2        1.0  0.6498113180363563  0.9537094666796456  0.9326295306888959  1.0000
  H   H3        1.0  0.49561331138495374  0.9622583873623689  0.06321880806768854  1.0000
  H   H4        1.0  0.6519539561130412  0.9882567168251477  0.46042828345415904  1.0000
  C   C9        1.0  0.15183798741441734  0.7228928410795739  0.4083738367896864  1.0000
  C   C10       1.0  0.1961581113405375  0.6812105442620965  0.29591347803729295  1.0000
  C   C11       1.0  0.19614893222913565  0.5879854056580306  0.2959940386896356  1.0000
  C   C12       1.0  0.15176388050773504  0.5343923587209949  0.40843415984167475  1.0000
  C   C13       1.0  0.10742759995403373  0.5761782995899931  0.5208159690907815  1.0000
  C   C14       1.0  0.10750638048308425  0.6694035682695599  0.5207997048429904  1.0000
  C   C15       1.0  0.1517122474025332  0.4353152147657863  0.4084966899957898  1.0000
  C   C16       1.0  0.06904545239166171  0.38549360771967695  0.450100591760634  1.0000
  C   C17       1.0  0.06899090721148271  0.2922729345332025  0.45009726425282953  1.0000
  C   C18       1.0  0.1516574073591768  0.24681282661901194  0.408592841442339  1.0000
  C   C19       1.0  0.23430376392613406  0.2965274042874857  0.36706413313215513  1.0000
  C   C20       1.0  0.23433085289299216  0.38975776436089105  0.36695218220356857  1.0000
  H   H5        1.0  0.10703386250848591  0.9297136713428975  0.5219470870883385  1.0000
  H   H6        1.0  0.23069776703975697  0.7206230844812767  0.20749721939412957  1.0000
  H   H7        1.0  0.22980060834365368  0.5578684321464786  0.20692163557575127  1.0000
  H   H8        1.0  0.07374171560982301  0.5366951027685211  0.6099287860567864  1.0000
  H   H9        1.0  0.07299683208154265  0.6994920964476019  0.6091876692510517  1.0000
  H   H10       1.0  0.003873137872741459  0.4187159566703428  0.4808472563033781  1.0000
  H   H11       1.0  0.00406200928743461  0.2558542836601655  0.48228163185320816  1.0000
  H   H12       1.0  0.29920779068428804  0.2634444056462542  0.3349181249818929  1.0000
  H   H13       1.0  0.2995366479371442  0.4261356166672235  0.33616358693713755  1.0000
  C   C21       1.0  0.15001526614962662  0.9871344318716989  0.9846679639692026  1.0000
  C   C22       1.0  0.2183673995489943  0.03977745339214067  0.05142645944035706  1.0000
  C   C23       1.0  0.2910508560999625  0.08507209184901776  0.9706804563795538  1.0000
  C   C24       1.0  0.29597090607635257  0.07792913642375399  0.8217000546490896  1.0000
  C   C25       1.0  0.22792766111717833  0.027251265170072703  0.7532398178833839  1.0000
  C   C26       1.0  0.1534801055441175  0.9825711847347525  0.8322986823361138  1.0000
  N   N3        1.0  0.36051073328745153  0.13759100686482  0.04044414487078263  1.0000
  H   H14       1.0  0.005847857585585811  0.8127495244850697  0.11051542733260698  1.0000
  H   H15       1.0  0.35208816874425986  0.1123953355905254  0.7581836760041205  1.0000
  H   H16       1.0  0.05341399187732885  0.8678325484124243  0.5661689689894205  1.0000
  H   H17       1.0  0.3577068674458249  0.1431851716594672  0.1518164064887355  1.0000
  H   H18       1.0  0.41523555043487614  0.17135569453327237  0.9812161579952731  1.0000
  Zn  Zn1       1.0  0.04602148286943743  0.9848538103786556  0.40848543927494185  1.0000
  Zn  Zn2       1.0  0.2574646562782641  0.9848514045258105  0.40848054607054163  1.0000
  C   C27       1.0  0.1528242547027725  0.9798799406413334  0.6720768431888027  1.0000
  C   C28       1.0  0.15066419358885952  0.9898263990467865  0.1448892842271834  1.0000
  C   C29       1.0  0.15166305362892407  0.14781173623685795  0.40280025176766376  1.0000
  C   C30       1.0  0.15182532319589837  0.8218935312615075  0.41416595214694096  1.0000
  O   O1        1.0  0.23112356327028466  0.9907250429994299  0.1986591643734208  1.0000
  O   O2        1.0  0.23284535971037176  0.9789787999644407  0.6183028334771901  1.0000
  O   O3        1.0  0.23190659959723714  0.11458584062864574  0.40086008114077454  1.0000
  O   O4        1.0  0.2320622507876482  0.8551180093000894  0.41610180850168277  1.0000
  O   O5        1.0  0.07142381620484395  0.11458720560621023  0.40086417683787967  1.0000
  O   O6        1.0  0.07236257562957871  0.9789812371335928  0.6183068526697546  1.0000
  O   O7        1.0  0.07064077217148967  0.9907274584235036  0.198661448368058  1.0000
  O   O8        1.0  0.07157946012941485  0.8551204177611321  0.4161042006985527  1.0000
