data_image0
_chemical_formula_structural       NC9NC5H8C6BrH5C6NCH7Zn2C4O8
_chemical_formula_sum              "N3 C31 H20 Br1 Zn2 O8"
_cell_length_a       17.807436237873137
_cell_length_b       10.302969083221269
_cell_length_c       9.273390368590327
_cell_angle_alpha    86.16778746315522
_cell_angle_beta     89.39974432744097
_cell_angle_gamma    88.39001038669201

_space_group_name_H-M_alt    "P 1"
_space_group_IT_number       1

loop_
  _space_group_symop_operation_xyz
  'x, y, z'

loop_
  _atom_site_type_symbol
  _atom_site_label
  _atom_site_symmetry_multiplicity
  _atom_site_fract_x
  _atom_site_fract_y
  _atom_site_fract_z
  _atom_site_occupancy
  N   N1        1.0  0.707543638252176  0.3719970786301308  0.3986890178954243  1.0000
  C   C1        1.0  0.6469571279878875  0.3367016069887727  0.3864545528288051  1.0000
  C   C2        1.0  0.5715941682410208  0.29279792702659235  0.3712362066900383  1.0000
  C   C3        1.0  0.5535124190439312  0.22029124391941401  0.2547030036528646  1.0000
  C   C4        1.0  0.48033888142397346  0.17755181447253654  0.23983526853660098  1.0000
  C   C5        1.0  0.4241983775484792  0.2069413148450587  0.34146472114721327  1.0000
  C   C6        1.0  0.3464337623108294  0.16163605988572827  0.3257552560089749  1.0000
  C   C7        1.0  0.2842550109275607  0.24364137616818413  0.3545425459606508  1.0000
  C   C8        1.0  0.2109391672250382  0.20069911880620017  0.33968999420007867  1.0000
  C   C9        1.0  0.14771029219237816  0.2853987883213933  0.3688811482295043  1.0000
  N   N2        1.0  0.0968872650268142  0.3534914743537756  0.39235002980390693  1.0000
  C   C10       1.0  0.1992185324287  0.07549337869985462  0.29602201898068103  1.0000
  C   C11       1.0  0.260539914763465  0.9934741255067565  0.2672254180551137  1.0000
  C   C12       1.0  0.3337363451611644  0.036019818382923015  0.2818531905840387  1.0000
  C   C13       1.0  0.4429715109863218  0.27994453299502803  0.4582412275709664  1.0000
  C   C14       1.0  0.5161979342881627  0.3224919769328658  0.47293621987676726  1.0000
  H   H1        1.0  0.5959139368171601  0.19705207167034186  0.17511547961028762  1.0000
  H   H2        1.0  0.4674339623840367  0.12300662181692323  0.1478093174948094  1.0000
  H   H3        1.0  0.2927498032062087  0.3413815516632275  0.3865905886818535  1.0000
  H   H4        1.0  0.1427544879471119  0.0413557753619007  0.28426370648183097  1.0000
  H   H5        1.0  0.2513468880222857  0.8965410459695596  0.23384514741036888  1.0000
  H   H6        1.0  0.38037894214661505  0.9700936597222473  0.2607130744574191  1.0000
  H   H7        1.0  0.40128675462813446  0.30265856809696334  0.5392653983912594  1.0000
  H   H8        1.0  0.5296312983959849  0.3782463088018351  0.5638061636967817  1.0000
  C   C15       1.0  0.9022190323368757  0.9814966699292752  0.3955257639703731  1.0000
  C   C16       1.0  0.9801056077359377  0.9751132555379212  0.4185478275553831  1.0000
  C   C17       1.0  0.01874154133315331  0.8550088859770341  0.42996782332132355  1.0000
  C   C18       1.0  0.9801056667454996  0.7400308905191593  0.4185475531118117  1.0000
  C   C19       1.0  0.9022190438953818  0.7439816858234799  0.39552566822891055  1.0000
  C   C20       1.0  0.8636518685916947  0.8652978000732324  0.3841258738952169  1.0000
  Br  Br1       1.0  0.12468069109527093  0.84798070256684  0.4612821831959005  1.0000
  H   H9        1.0  0.8729032778840385  0.31120098560855447  0.3868598287471394  1.0000
  H   H10       1.0  0.011110780628300393  0.06305563385190681  0.42771263437914353  1.0000
  H   H11       1.0  0.011110869083807987  0.6479746893005155  0.42771198369812713  1.0000
  H   H12       1.0  0.8035827462254401  0.8692828418884377  0.36637056571158766  1.0000
  H   H13       1.0  0.8729030625566839  0.4181670239941341  0.3868619620363851  1.0000
  C   C21       1.0  0.9022538594598011  0.3586890014211168  0.9722793827186683  1.0000
  C   C22       1.0  0.9712543291874178  0.352829812486277  0.044758468141796286  1.0000
  C   C23       1.0  0.03905127548452825  0.3590965791575346  0.9682398726338186  1.0000
  C   C24       1.0  0.03957031237043385  0.3714923764919637  0.8166034320245439  1.0000
  C   C25       1.0  0.9710277559088671  0.375140339032378  0.7433072895671415  1.0000
  C   C26       1.0  0.9021842357474741  0.36678939449076764  0.8187720497926373  1.0000
  N   N3        1.0  0.10863702509982984  0.379193625155046  0.7346906800936068  1.0000
  C   C27       1.0  0.1828130122322318  0.3758210419834347  0.8004712142378656  1.0000
  H   H14       1.0  0.7836748781301297  0.301962083207131  0.2600499771153719  1.0000
  H   H15       1.0  0.09081344032057981  0.3554416801411977  0.02851813433603345  1.0000
  H   H16       1.0  0.7271027447584737  0.2742490629441239  0.7261314899041578  1.0000
  H   H17       1.0  0.10619942947829863  0.38791368587844666  0.6218545322741066  1.0000
  H   H18       1.0  0.18768872492407174  0.458871814204304  0.8698603568648197  1.0000
  H   H19       1.0  0.19197693270656213  0.2825829588745479  0.8658759661543614  1.0000
  H   H20       1.0  0.2268398820440558  0.38354317779382324  0.7148638421874751  1.0000
  Zn  Zn1       1.0  0.819899796775327  0.36665337656165  0.3968680584010136  1.0000
  Zn  Zn2       1.0  0.9845310873314774  0.35882470700525815  0.39418283829070533  1.0000
  C   C28       1.0  0.9021957043979991  0.3600862757914718  0.6587668455758366  1.0000
  C   C29       1.0  0.9022369774657676  0.36539336173824627  0.1322841632564871  1.0000
  C   C30       1.0  0.9022156481346549  0.5998010235654068  0.38978230956171256  1.0000
  C   C31       1.0  0.9022169775456117  0.12567705756515402  0.40126877702866165  1.0000
  O   O1        1.0  0.9647080284971348  0.3646668030708369  0.18496420222961674  1.0000
  O   O2        1.0  0.964675993624108  0.3548700720277642  0.6040483717734725  1.0000
  O   O3        1.0  0.9646912561043581  0.5484428168528628  0.3868414695688671  1.0000
  O   O4        1.0  0.964692709848268  0.1710940691702667  0.4021709972833025  1.0000
  O   O5        1.0  0.8397381180779573  0.5543840170695225  0.38887990031716924  1.0000
  O   O6        1.0  0.8397228556006281  0.36081283131646225  0.6060867256724765  1.0000
  O   O7        1.0  0.8397548906661834  0.3706095005333341  0.18700082327256884  1.0000
  O   O8        1.0  0.8397395720053541  0.1770367583811163  0.4042077263859272  1.0000
