data_image0
_chemical_formula_structural       NC6NC2H4C6BrH5C6NH7Zn2C4O8
_chemical_formula_sum              "N3 C24 H16 Br1 Zn2 O8"
_cell_length_a       14.927258858638513
_cell_length_b       9.276564384272257
_cell_length_c       9.274774538082514
_cell_angle_alpha    85.01137938942293
_cell_angle_beta     90.34966586359073
_cell_angle_gamma    90.58593300640023

_space_group_name_H-M_alt    "P 1"
_space_group_IT_number       1

loop_
  _space_group_symop_operation_xyz
  'x, y, z'

loop_
  _atom_site_type_symbol
  _atom_site_label
  _atom_site_symmetry_multiplicity
  _atom_site_fract_x
  _atom_site_fract_y
  _atom_site_fract_z
  _atom_site_occupancy
  N   N1        1.0  0.8476449662067645  0.5920955524391365  0.406701580517022  1.0000
  C   C1        1.0  0.7701184748976155  0.592095523837175  0.4067015911422558  1.0000
  C   C2        1.0  0.6736859678979034  0.5920956393699264  0.40670154112637613  1.0000
  C   C3        1.0  0.6260091866851435  0.5695086438080508  0.2798869512566353  1.0000
  C   C4        1.0  0.5322978750051828  0.5695086706067609  0.27988681762018364  1.0000
  C   C5        1.0  0.4858699028481077  0.5920954616574136  0.40670155992752255  1.0000
  C   C6        1.0  0.38943732885685645  0.592095577193181  0.40670150990570897  1.0000
  N   N2        1.0  0.31191083754770793  0.5920955485912198  0.406701520530943  1.0000
  C   C7        1.0  0.5335466170693289  0.6146824572223049  0.5335161497913297  1.0000
  C   C8        1.0  0.6272579287492891  0.6146824304235956  0.5335162834277811  1.0000
  H   H1        1.0  0.6612195594760993  0.5519346889034825  0.18121792207857945  1.0000
  H   H2        1.0  0.49611590520128673  0.5519348864842601  0.1812179169706658  1.0000
  H   H3        1.0  0.49833631160501246  0.6322564008675793  0.6321852871901055  1.0000
  H   H4        1.0  0.6634398995808143  0.6322563109163414  0.6321852941531552  1.0000
  C   C9        1.0  0.07708453800781112  0.1686113641282463  0.40707062658244464  1.0000
  C   C10       1.0  0.06511122658021364  0.2532586330057388  0.2751612656929998  1.0000
  C   C11       1.0  0.061479693159350673  0.1894070211777361  0.14448400336931688  1.0000
  C   C12       1.0  0.06979229226985462  0.04001073170274559  0.1432348102853418  1.0000
  C   C13       1.0  0.08017996218057039  0.9536874932308618  0.2731494790265665  1.0000
  C   C14       1.0  0.08247983380327217  0.015568481915136498  0.40634493837967534  1.0000
  Br  Br1       1.0  0.06548087746250619  0.9532134730053219  0.9639227743072452  1.0000
  H   H5        1.0  0.05169205579397798  0.4291217526294157  0.6417094870856239  1.0000
  H   H6        1.0  0.06068108134222917  0.3699365287639016  0.27269045569143624  1.0000
  H   H7        1.0  0.05305371136327522  0.256502155563215  0.04395291191901274  1.0000
  H   H8        1.0  0.08431326510167357  0.8374745905133874  0.27003784729778135  1.0000
  H   H9        1.0  0.13273876437395976  0.7156795811879436  0.6311275873866757  1.0000
  C   C15       1.0  0.07819796369620136  0.5957783398210059  0.982888332132343  1.0000
  C   C16       1.0  0.1422175680851403  0.680879806976767  0.049551922290248074  1.0000
  C   C17       1.0  0.2101805078502933  0.7541020412513053  0.9687242634375566  1.0000
  C   C18       1.0  0.21467262015686117  0.7425548976110471  0.8197567409232094  1.0000
  C   C19       1.0  0.15096066508567552  0.6606302476687158  0.7513878663907452  1.0000
  C   C20       1.0  0.08136639604976198  0.5884014952666181  0.8305272783740052  1.0000
  N   N3        1.0  0.275227264688104  0.839002879833522  0.03839327051960528  1.0000
  H   H10       1.0  0.9424960095564494  0.3138717509533262  0.10905018879189732  1.0000
  H   H11       1.0  0.14064858175834186  0.687719326810111  0.16556619196358735  1.0000
  H   H12       1.0  0.26713991828624845  0.7982721341136418  0.7561782277707647  1.0000
  H   H13       1.0  0.15492983631630863  0.6566188572648579  0.6352182532267991  1.0000
  H   H14       1.0  0.987243033253743  0.40291768591887855  0.5646044231859548  1.0000
  H   H15       1.0  0.2726834508153193  0.8480462820559816  0.14975544562773124  1.0000
  H   H16       1.0  0.32639431639399696  0.8935860697420812  0.9791044137657177  1.0000
  Zn  Zn1       1.0  0.9816220825172521  0.5920916145359216  0.40670990592514045  1.0000
  Zn  Zn2       1.0  0.17793370112703996  0.592087571176094  0.4067050443444431  1.0000
  C   C21       1.0  0.08072890439914328  0.5840508914615883  0.6703102913920767  1.0000
  C   C22       1.0  0.07882903508248917  0.6001301125485408  0.14310479892034778  1.0000
  C   C23       1.0  0.08143389602467922  0.8555256318031645  0.4007309227299347  1.0000
  C   C24       1.0  0.0781239657200592  0.3286536389293282  0.41268424601423304  1.0000
  O   O1        1.0  0.15354002450281468  0.6015827813772353  0.1968730692156051  1.0000
  O   O2        1.0  0.15501388267878113  0.5825940695171075  0.6165379167424276  1.0000
  O   O3        1.0  0.15558217365643012  0.8018133425701106  0.39885066796916613  1.0000
  O   O4        1.0  0.15297166619852698  0.382363519583526  0.41456020976814667  1.0000
  O   O5        1.0  0.006584050454226059  0.8018156661315056  0.39885474049550296  1.0000
  O   O6        1.0  0.006015770221932118  0.5825981263591542  0.6165419108310874  1.0000
  O   O7        1.0  0.004541905299305655  0.6015868030666855  0.1968753281455431  1.0000
  O   O8        1.0  0.0039735473301178974  0.3823675300166974  0.41456257691287135  1.0000
