data_image0
_chemical_formula_structural       NC8NH4C6ClH5C6NCOH5Zn2C4O8
_chemical_formula_sum              "N3 C25 H14 Cl1 O9 Zn2"
_cell_length_a       13.859017124695912
_cell_length_b       10.30297070629231
_cell_length_c       9.27373355559583
_cell_angle_alpha    86.17407986501598
_cell_angle_beta     90.01104731116409
_cell_angle_gamma    89.99834178165982

_space_group_name_H-M_alt    "P 1"
_space_group_IT_number       1

loop_
  _space_group_symop_operation_xyz
  'x, y, z'

loop_
  _atom_site_type_symbol
  _atom_site_label
  _atom_site_symmetry_multiplicity
  _atom_site_fract_x
  _atom_site_fract_y
  _atom_site_fract_z
  _atom_site_occupancy
  N   N1        1.0  0.9083540641170476  0.40546980089820794  0.41027895352142363  1.0000
  C   C1        1.0  0.8359927643434424  0.384348377782215  0.35412095741839855  1.0000
  C   C2        1.0  0.7459796042063189  0.35807640858819645  0.2842676277356868  1.0000
  C   C3        1.0  0.658372647669536  0.38368890435542835  0.35236583558056855  1.0000
  C   C4        1.0  0.5707492842479548  0.35807750652478365  0.2842670485062382  1.0000
  C   C5        1.0  0.570915283757006  0.30684665929524346  0.1480491503528638  1.0000
  C   C6        1.0  0.6583397117439913  0.2813326076286544  0.08021307073528261  1.0000
  C   C7        1.0  0.7457806428294477  0.306844555607813  0.14805032856246922  1.0000
  C   C8        1.0  0.4807529255429766  0.384349207089496  0.3541204594603209  1.0000
  N   N2        1.0  0.4084051896711992  0.40547008923702105  0.4102787375366439  1.0000
  H   H1        1.0  0.6583853631037123  0.423343561733942  0.4578017522619837  1.0000
  H   H2        1.0  0.5036133799604431  0.28668863437866343  0.09444840614439576  1.0000
  H   H3        1.0  0.6583270880754862  0.24175893362306564  0.9749906796010207  1.0000
  H   H4        1.0  0.8130695969483785  0.286684649189231  0.09445058346172527  1.0000
  C   C9        1.0  0.15838422781518569  0.024222569285268006  0.4102850720211786  1.0000
  C   C10       1.0  0.2580215381601243  0.02134790243250607  0.43804476346180093  1.0000
  C   C11       1.0  0.30745891217837307  0.9029647245824586  0.45181828069333035  1.0000
  C   C12       1.0  0.2580215373809682  0.786239933107403  0.4380446956806485  1.0000
  C   C13       1.0  0.15838423812329697  0.7867075118954581  0.410285154523613  1.0000
  C   C14       1.0  0.10905126984494418  0.9062925018527427  0.39654059312329826  1.0000
  Cl  Cl1       1.0  0.43192965197451083  0.9008770967577815  0.48649664983683993  1.0000
  H   H5        1.0  0.12085259798797686  0.3526085164655315  0.3998276755606327  1.0000
  H   H6        1.0  0.29764971793944284  0.11072984087543004  0.44908534365466507  1.0000
  H   H7        1.0  0.29764967976821094  0.6955286470463778  0.4490852401077607  1.0000
  H   H8        1.0  0.032207952432182774  0.9075812046108531  0.3751314402337235  1.0000
  H   H9        1.0  0.12085259331799048  0.4595805524196206  0.3998279476670952  1.0000
  C   C15       1.0  0.15832903085737013  0.40137461882064396  0.9870580821836898  1.0000
  C   C16       1.0  0.069645858013198  0.3939229532135327  0.06100958355256902  1.0000
  C   C17       1.0  0.9818401790698551  0.39699248108650553  0.9860601374846008  1.0000
  C   C18       1.0  0.9826919537901229  0.4117337705941198  0.8347124027470509  1.0000
  C   C19       1.0  0.06992427063679174  0.4172481464303788  0.7595569094151999  1.0000
  C   C20       1.0  0.1584394519308181  0.4095554082552269  0.8335121149227764  1.0000
  N   N3        1.0  0.8928710320523879  0.39243893547901076  0.06607466240432425  1.0000
  C   C21       1.0  0.8059403459142976  0.3326544994987639  0.01929227627482866  1.0000
  O   O1        1.0  0.8054329610910447  0.26394879765528056  0.9119414427010598  1.0000
  H   H10       1.0  0.38570346508065567  0.4915232316891489  0.08337143172660233  1.0000
  H   H11       1.0  0.9160539547016624  0.4203777197653975  0.7740978197029573  1.0000
  H   H12       1.0  0.3123408200608726  0.4647846908965719  0.5484058099487177  1.0000
  H   H13       1.0  0.8925254761484543  0.4269588775061719  0.1694936619059244  1.0000
  H   H14       1.0  0.7399909123453147  0.3435424870887642  0.07971314634541081  1.0000
  Zn  Zn1       1.0  0.05265802134822084  0.40546649836028187  0.4102872184314921  1.0000
  Zn  Zn2       1.0  0.2641012263460911  0.40546291546543856  0.4102822934049515  1.0000
  C   C22       1.0  0.1584164287008003  0.40283704736318904  0.6735141590788549  1.0000
  C   C23       1.0  0.15834512796525546  0.40809400588821526  0.14705549416072025  1.0000
  C   C24       1.0  0.158378537019348  0.6425260907743262  0.404541911182992  1.0000
  C   C25       1.0  0.15838294750588156  0.16840340341532675  0.41602781889628915  1.0000
  O   O2        1.0  0.23859212465264945  0.410342069943741  0.20075021819248828  1.0000
  O   O3        1.0  0.23864993208989804  0.40058528055321885  0.6198152821874277  1.0000
  O   O4        1.0  0.2386182525783467  0.594137228891338  0.4026182890134893  1.0000
  O   O5        1.0  0.2386237319988611  0.21679012984970747  0.41794710330584195  1.0000
  O   O6        1.0  0.07813544354026125  0.594139283978576  0.40262240852470116  1.0000
  O   O7        1.0  0.07816712303744877  0.4005888947047711  0.6198193248530339  1.0000
  O   O8        1.0  0.07810931543832189  0.41034562210681025  0.20075252808200417  1.0000
  O   O9        1.0  0.07814092279468321  0.21679367377125414  0.4179495212500423  1.0000
