data_image0
_chemical_formula_structural       NC9NC4H8C6NCOCH7C9H10Zn2C4O8
_chemical_formula_sum              "N3 C34 H25 O9 Zn2"
_cell_length_a       16.32274767691083
_cell_length_b       10.300268703208216
_cell_length_c       9.272679976505533
_cell_angle_alpha    86.02026342835288
_cell_angle_beta     89.86705810092191
_cell_angle_gamma    89.50441699892957

_space_group_name_H-M_alt    "P 1"
_space_group_IT_number       1

loop_
  _space_group_symop_operation_xyz
  'x, y, z'

loop_
  _atom_site_type_symbol
  _atom_site_label
  _atom_site_symmetry_multiplicity
  _atom_site_fract_x
  _atom_site_fract_y
  _atom_site_fract_z
  _atom_site_occupancy
  N   N1        1.0  0.764889104300103  0.400390618836141  0.39805796725186127  1.0000
  C   C1        1.0  0.7123362831628024  0.352519244111104  0.33779037104262133  1.0000
  C   C2        1.0  0.6470127892549655  0.2930626239125269  0.26293753463278446  1.0000
  C   C3        1.0  0.658196406262733  0.2117365431349838  0.16054741015979346  1.0000
  C   C4        1.0  0.5786506683450309  0.17204901282237395  0.11058443310718415  1.0000
  C   C5        1.0  0.5199812887876177  0.23013085845366543  0.18371241881643208  1.0000
  C   C6        1.0  0.4299741387130006  0.21478037694312402  0.16438926618350047  1.0000
  C   C7        1.0  0.3746854835576473  0.2824784599614061  0.24961644928780127  1.0000
  C   C8        1.0  0.2899174291093935  0.2693591986283337  0.233101658518214  1.0000
  C   C9        1.0  0.2342262911182487  0.3391384390836232  0.32094802993413946  1.0000
  N   N2        1.0  0.1894695038334499  0.39522946291869016  0.3915616340682626  1.0000
  C   C10       1.0  0.25938449728877905  0.18843237069309549  0.1312225423331257  1.0000
  C   C11       1.0  0.3133516425392884  0.12082396146298426  0.046108627703920664  1.0000
  C   C12       1.0  0.3979592965356907  0.13358984928124018  0.06217841250268896  1.0000
  C   C13       1.0  0.5581197137057895  0.31482055389743135  0.290334478149765  1.0000
  H   H1        1.0  0.7169603976771372  0.18011264723762888  0.12073021276488684  1.0000
  H   H2        1.0  0.5700537558381283  0.10558130688402191  0.02690090692878711  1.0000
  H   H3        1.0  0.39708457212750015  0.3456554928607487  0.32915039292700055  1.0000
  H   H4        1.0  0.19394370787933535  0.177624819012127  0.11761802956216784  1.0000
  H   H5        1.0  0.2895591064258726  0.05821951658976764  0.9672958014559692  1.0000
  H   H6        1.0  0.4374951639300525  0.07950747699085325  0.9940931973144118  1.0000
  H   H7        1.0  0.5417935911160535  0.28089032945084136  0.4030062095689968  1.0000
  H   H8        1.0  0.5412206902545552  0.41870138916508703  0.26573113054626024  1.0000
  C   C14       1.0  0.9772664947058171  0.01646137798992587  0.3948169888328761  1.0000
  C   C15       1.0  0.9904904695846614  0.024601391469014182  0.2447525788225742  1.0000
  C   C16       1.0  0.9982728181735001  0.9113913970305196  0.16942586947200655  1.0000
  C   C17       1.0  0.9903052751794303  0.7894443843033508  0.24479137815728413  1.0000
  C   C18       1.0  0.9771000009342766  0.7791486890385726  0.3948149501775663  1.0000
  C   C19       1.0  0.970959084903448  0.8932502265746073  0.46911858707375953  1.0000
  N   N3        1.0  0.01053482264015315  0.9181479837154474  0.015443600336960463  1.0000
  C   C20       1.0  0.05832658250229139  0.01611368275869118  0.937247246801213  1.0000
  O   O1        1.0  0.10484687306111184  0.08902574376977457  0.0031090243144344973  1.0000
  C   C21       1.0  0.057727107167586666  0.025837355677111866  0.7757579271816897  1.0000
  H   H9        1.0  0.9931136357528582  0.11899399862370275  0.18606301542580983  1.0000
  H   H10       1.0  0.9951594785157373  0.7025957612265432  0.1857039410158914  1.0000
  H   H11       1.0  0.9607821805967226  0.8861625364875786  0.5848647076425675  1.0000
  H   H12       1.0  0.9877416417347765  0.8425815174769041  0.9578661627242462  1.0000
  H   H13       1.0  0.9948644181465651  0.009270446557125379  0.7358467065770602  1.0000
  H   H14       1.0  0.07787331982006829  0.12394795309184903  0.7334121031986458  1.0000
  H   H15       1.0  0.0998577820045412  0.9513122947335619  0.7354275744987806  1.0000
  C   C22       1.0  0.9755229189078233  0.39475871612806795  0.9714787279016718  1.0000
  C   C23       1.0  0.031214883735878995  0.3137532069374347  0.050893307287956935  1.0000
  C   C24       1.0  0.09093892316543961  0.24322200263375593  0.9813788988720513  1.0000
  C   C25       1.0  0.09699057633047903  0.2513761015093394  0.8304240050933474  1.0000
  C   C26       1.0  0.04031564075207106  0.3306310987697949  0.7496401995902122  1.0000
  C   C27       1.0  0.9788435790688437  0.40085134772409564  0.8181532780470753  1.0000
  C   C28       1.0  0.16435611115016036  0.1723299349151033  0.7632454958312437  1.0000
  C   C29       1.0  0.1448618776616245  0.11313687759726962  0.6214442545164598  1.0000
  C   C30       1.0  0.2024592662872866  0.2287146494392322  0.6227438167757319  1.0000
  H   H16       1.0  0.8521510431791326  0.48406020625426205  0.24631675823833454  1.0000
  H   H17       1.0  0.029919390013319  0.30721842069274463  0.16798777012045885  1.0000
  H   H18       1.0  0.1333627463922411  0.18269258220353568  0.0463625493803399  1.0000
  H   H19       1.0  0.042146970177674214  0.3362227553100192  0.6328332421074588  1.0000
  H   H20       1.0  0.7928248611457377  0.5252806195239477  0.7062960253841559  1.0000
  H   H21       1.0  0.20718646308393218  0.11339110611847447  0.8347767871319083  1.0000
  H   H22       1.0  0.08400489586067779  0.1360373607250671  0.5726936679642676  1.0000
  H   H23       1.0  0.17670312629771567  0.01926106327196075  0.6066636233348821  1.0000
  H   H24       1.0  0.1766289357846269  0.32176233468986837  0.5746653444914025  1.0000
  H   H25       1.0  0.26797323795221684  0.20238035581152136  0.6087187473847009  1.0000
  Zn  Zn1       1.0  0.8874138757840785  0.39889779524178676  0.39619159116959124  1.0000
  Zn  Zn2       1.0  0.06694478716699614  0.39671171509247505  0.3934398201638901  1.0000
  C   C31       1.0  0.9782152130338511  0.394526312741223  0.6581136579317185  1.0000
  C   C32       1.0  0.9761454105864736  0.4010848132717393  0.131517864841856  1.0000
  C   C33       1.0  0.9771047355108523  0.6349432468462664  0.38907073077419163  1.0000
  C   C34       1.0  0.977255827490126  0.16066632024610872  0.40056086980061295  1.0000
  O   O2        1.0  0.04448537095362393  0.40237263779881705  0.18418417843389537  1.0000
  O   O3        1.0  0.04613505893007597  0.3915783213066495  0.6033583988340963  1.0000
  O   O4        1.0  0.04523742172631695  0.585718058053667  0.3861043457050992  1.0000
  O   O5        1.0  0.04538294646968444  0.2082329103096776  0.4014381244114462  1.0000
  O   O6        1.0  0.9089756552162714  0.5873766007719453  0.3881932878534969  1.0000
  O   O7        1.0  0.9098732917742587  0.3932384236928766  0.605447264112726  1.0000
  O   O8        1.0  0.908223597064425  0.40403268245863494  0.18627131048436146  1.0000
  O   O9        1.0  0.909121173003065  0.20989294645897846  0.40352536454482  1.0000
