data_image0
_chemical_formula_structural       NC8NH4C7NH5C6BrH4Zn2C4O8
_chemical_formula_sum              "N3 C25 H13 Br1 Zn2 O8"
_cell_length_a       13.859017124695912
_cell_length_b       9.275154477615127
_cell_length_c       9.27656775626242
_cell_angle_alpha    86.34818767424132
_cell_angle_beta     90.18619718657982
_cell_angle_gamma    89.43373790894346

_space_group_name_H-M_alt    "P 1"
_space_group_IT_number       1

loop_
  _space_group_symop_operation_xyz
  'x, y, z'

loop_
  _atom_site_type_symbol
  _atom_site_label
  _atom_site_symmetry_multiplicity
  _atom_site_fract_x
  _atom_site_fract_y
  _atom_site_fract_z
  _atom_site_occupancy
  N   N1        1.0  0.8948117451539666  0.5623857168339812  0.4168313348847645  1.0000
  C   C1        1.0  0.8224897065451661  0.5389816626129464  0.3605941296388311  1.0000
  C   C2        1.0  0.7325253795695318  0.5098704342305751  0.2906422755717917  1.0000
  C   C3        1.0  0.6448708122272396  0.5382509202841714  0.3588365350665048  1.0000
  C   C4        1.0  0.5572950503917565  0.5098716541230202  0.29064170130155076  1.0000
  C   C5        1.0  0.5575562702630592  0.45310419906253374  0.15423167931136605  1.0000
  C   C6        1.0  0.6450281268512572  0.42483279578325983  0.08629991713482421  1.0000
  C   C7        1.0  0.7324216471405558  0.45310186163863153  0.15423284800249037  1.0000
  C   C8        1.0  0.4672498606569454  0.5389825840944762  0.3605936354411483  1.0000
  N   N2        1.0  0.3948628681558744  0.5623860372609402  0.4168311202177335  1.0000
  H   H1        1.0  0.6448098193028886  0.5821911281728887  0.4644211635115334  1.0000
  H   H2        1.0  0.4902918281209409  0.43076766326540117  0.10055533989882126  1.0000
  H   H3        1.0  0.6450890573248492  0.3809823249823024  0.980929118370938  1.0000
  H   H4        1.0  0.7997480787263034  0.4307632353411599  0.10055749919765608  1.0000
  C   C9        1.0  0.14763056117667106  0.13898027016300385  0.41516381135131014  1.0000
  C   C10       1.0  0.1208772316108555  0.22091525941960338  0.28811689026899046  1.0000
  C   C11       1.0  0.08628979359951572  0.15369863403759365  0.16779983755601058  1.0000
  C   C12       1.0  0.07788737867935858  0.003630128310879502  0.17311271180163978  1.0000
  C   C13       1.0  0.10552887790950449  0.9204591069138749  0.2972636989182478  1.0000
  C   C14       1.0  0.14205338762799213  0.9857805620473806  0.4185111247663367  1.0000
  C   C15       1.0  0.0582495324791954  0.239200440331548  0.039221670146958106  1.0000
  N   N3        1.0  0.03571293465286729  0.3079283090652494  0.9358777585512557  1.0000
  H   H5        1.0  0.1670864505510743  0.21911483179628366  0.7688605104498305  1.0000
  H   H6        1.0  0.12480873244512036  0.33783279640852637  0.28384146085488715  1.0000
  H   H7        1.0  0.05079062798188948  0.9505980311959845  0.08064150047768615  1.0000
  H   H8        1.0  0.10046190079121174  0.8039902655251691  0.2971368909090293  1.0000
  H   H9        1.0  0.15924567507884135  0.6893309658685469  0.655497972354937  1.0000
  C   C16       1.0  0.14394824966815145  0.5582368844579443  0.9936943157528043  1.0000
  C   C17       1.0  0.05797596985076092  0.5929472055120639  0.0644423896176225  1.0000
  C   C18       1.0  0.9762131744273115  0.6395341751627743  0.9859255807725211  1.0000
  C   C19       1.0  0.9788864535003139  0.6523544092577902  0.835480412393264  1.0000
  C   C20       1.0  0.06297736192533288  0.6160865557859658  0.7629991202005311  1.0000
  C   C21       1.0  0.14573572565162518  0.566523971202765  0.8399805954300277  1.0000
  Br  Br1       1.0  0.8669715769315858  0.7172755318575471  0.7284868500296287  1.0000
  H   H10       1.0  0.2775495155123706  0.42727641220851376  0.28401078864706397  1.0000
  H   H11       1.0  0.9109810803089224  0.6670242439635746  0.04235165629062387  1.0000
  H   H12       1.0  0.06277699514224831  0.6234516194064867  0.645977770041362  1.0000
  H   H13       1.0  0.3045955658188908  0.5516356445181951  0.5605269526921032  1.0000
  Zn  Zn1       1.0  0.039115743500569566  0.5623820413066665  0.416839583308402  1.0000
  Zn  Zn2       1.0  0.2505589645998154  0.5623780668617638  0.4168346437382734  1.0000
  C   C22       1.0  0.1454335053525979  0.5592135433642155  0.679991646799836  1.0000
  C   C23       1.0  0.14424350001807018  0.5655483853837444  0.15368272881287748  1.0000
  C   C24       1.0  0.14309049356982761  0.8256610344443986  0.4121363283989488  1.0000
  C   C25       1.0  0.14658645122146896  0.2990991627687316  0.4215381171908436  1.0000
  O   O1        1.0  0.22458423062294308  0.5679943933514096  0.20737440234252744  1.0000
  O   O2        1.0  0.22557329338673404  0.5567634271096764  0.6262958051549783  1.0000
  O   O3        1.0  0.22368020321012438  0.7719231605373889  0.4100007463768184  1.0000
  O   O4        1.0  0.22647724835217933  0.3528346691813371  0.42366935312229254  1.0000
  O   O5        1.0  0.06319738759298478  0.771925438989945  0.41000487391849516  1.0000
  O   O6        1.0  0.0650904661937457  0.5567674370999132  0.6262998627136881  1.0000
  O   O7        1.0  0.06410140016596899  0.5679983361328976  0.20737672726994005  1.0000
  O   O8        1.0  0.06599441818735863  0.3528386027080371  0.4236717860422125  1.0000
