data_image0
_chemical_formula_structural       NC9NC4H8C6NCOCH7C8H6Zn2C4O8
_chemical_formula_sum              "N3 C33 H21 O9 Zn2"
_cell_length_a       16.32274767691083
_cell_length_b       10.300268703208216
_cell_length_c       9.275144076552241
_cell_angle_alpha    85.95897192473107
_cell_angle_beta     89.93057160658579
_cell_angle_gamma    89.50441699892957

_space_group_name_H-M_alt    "P 1"
_space_group_IT_number       1

loop_
  _space_group_symop_operation_xyz
  'x, y, z'

loop_
  _atom_site_type_symbol
  _atom_site_label
  _atom_site_symmetry_multiplicity
  _atom_site_fract_x
  _atom_site_fract_y
  _atom_site_fract_z
  _atom_site_occupancy
  N   N1        1.0  0.7638718771352536  0.40195097262963775  0.39836552387762425  1.0000
  C   C1        1.0  0.7112807863010656  0.35413830088538734  0.3381094984357118  1.0000
  C   C2        1.0  0.6459097611236788  0.29475459025835415  0.2632710330114194  1.0000
  C   C3        1.0  0.6570283607875617  0.21352824144106466  0.1609005664040375  1.0000
  C   C4        1.0  0.5774508965673746  0.17388937700973184  0.11094718173637186  1.0000
  C   C5        1.0  0.5188279530058049  0.23189999314109122  0.18406112761391988  1.0000
  C   C6        1.0  0.42880853280195286  0.2165683331321382  0.16474168483034646  1.0000
  C   C7        1.0  0.3735739965872757  0.2841834015620348  0.24995250517973908  1.0000
  C   C8        1.0  0.2887954553090061  0.2710802262769587  0.23344088508251137  1.0000
  C   C9        1.0  0.233160099433263  0.34077390095266225  0.3212703908859324  1.0000
  N   N2        1.0  0.1884481515214658  0.3967961443931636  0.3918704379241204  1.0000
  C   C10       1.0  0.2581978306328476  0.19025263256004268  0.13158132865462346  1.0000
  C   C11       1.0  0.3121109288677363  0.12272712759042048  0.046483755033927654  1.0000
  C   C12       1.0  0.3967287871170369  0.1354773628137893  0.0625504545969706  1.0000
  C   C13       1.0  0.5570340825305781  0.31648583455559187  0.29066271659306353  1.0000
  H   H1        1.0  0.7157670684313986  0.1819431290413216  0.1210910135072638  1.0000
  H   H2        1.0  0.5688008453361367  0.1075031820779311  0.027279721946407154  1.0000
  H   H3        1.0  0.3960235889121605  0.347282965309478  0.3294711791082754  1.0000
  H   H4        1.0  0.19274840240896993  0.17945833220320306  0.11797942781216086  1.0000
  H   H5        1.0  0.28826834690611935  0.060199449472740724  0.9676860600494125  1.0000
  H   H6        1.0  0.4362214206558669  0.08146130816887777  0.9944783110795908  1.0000
  H   H7        1.0  0.540779506066462  0.28244586346402545  0.4033128161824131  1.0000
  H   H8        1.0  0.5401194360461647  0.420390634439932  0.26606409258280794  1.0000
  C   C14       1.0  0.9762472095318636  0.0180248886223513  0.3951251676936305  1.0000
  C   C15       1.0  0.9893758940748403  0.026311070668492594  0.2450895685283194  1.0000
  C   C16       1.0  0.9971104104865942  0.9131744473722015  0.16977732114209498  1.0000
  C   C17       1.0  0.9891907243070411  0.7911540257107692  0.2451283604139509  1.0000
  C   C18       1.0  0.9760807144657839  0.7807122016567274  0.3951231294297213  1.0000
  C   C19       1.0  0.9699869809648796  0.8947413645628871  0.4694125007811085  1.0000
  N   N3        1.0  0.009274636791573697  0.9200810187712225  0.015824615041262646  1.0000
  C   C20       1.0  0.057016742263364506  0.01812288410162478  0.9376432744124429  1.0000
  O   O1        1.0  0.10357885480315687  0.0909707931819339  0.0034924071322546277  1.0000
  C   C21       1.0  0.0563147218181681  0.028003853893044713  0.7761849591046999  1.0000
  H   H9        1.0  0.99196179259105  0.12076084373868401  0.1864112729325844  1.0000
  H   H10       1.0  0.9940074073430294  0.7043629560939539  0.18605226746131187  1.0000
  H   H11       1.0  0.9598835750093199  0.887540933256376  0.5851363992684928  1.0000
  H   H12       1.0  0.9864448944298998  0.8445706351944502  0.9582582317127052  1.0000
  H   H13       1.0  0.993426689322194  0.011475819852930553  0.7362814010497063  1.0000
  H   H14       1.0  0.07643404503171025  0.12615569778595703  0.7338472650904522  1.0000
  H   H15       1.0  0.09841978703287707  0.9535180762802993  0.7358623494405361  1.0000
  C   C22       1.0  0.9742348155306279  0.3967345746781285  0.9718681834156548  1.0000
  C   C23       1.0  0.9208003752824548  0.4820744991373802  0.03865883097318123  1.0000
  C   C24       1.0  0.873938320449243  0.5737688398523968  0.9564400064949203  1.0000
  C   C25       1.0  0.8796630372379863  0.581997856073798  0.8059219020917618  1.0000
  C   C26       1.0  0.9313966882222152  0.4965833488626523  0.7374014406976328  1.0000
  C   C27       1.0  0.9780931231985663  0.4020025276501023  0.8183801734244547  1.0000
  C   C28       1.0  0.8316103011914184  0.6772764534967246  0.7213513565494418  1.0000
  C   C29       1.0  0.7913806641781914  0.7570470102201842  0.6505298036908744  1.0000
  H   H16       1.0  0.14458532457569762  0.22419467285277284  0.08786725285241469  1.0000
  H   H17       1.0  0.9167028943169325  0.47994123430659563  0.15539165007770084  1.0000
  H   H18       1.0  0.8337855506678404  0.6391874347397013  0.01049225604456505  1.0000
  H   H19       1.0  0.933744253704416  0.5019509913263754  0.6202808847986847  1.0000
  H   H20       1.0  0.09101506721513042  0.2817299605154271  0.5468392703689119  1.0000
  H   H21       1.0  0.756067393980683  0.8270685441064024  0.588361706243465  1.0000
  Zn  Zn1       1.0  0.8863954634774375  0.40045996695811753  0.39649950612063645  1.0000
  Zn  Zn2       1.0  0.0659246274961176  0.3982765671407027  0.3937482634270637  1.0000
  C   C30       1.0  0.9773631202543457  0.39583336218588716  0.6583712865019711  1.0000
  C   C31       1.0  0.9749589314592246  0.40290478748308667  0.13187659446442668  1.0000
  C   C32       1.0  0.9760818014846461  0.6365123545573477  0.3893800128582232  1.0000
  C   C33       1.0  0.9762401896589799  0.16222423611525705  0.40086794589446706  1.0000
  O   O2        1.0  0.04333233473739373  0.40414131297404277  0.1845327966583199  1.0000
  O   O3        1.0  0.04524819676701286  0.3929387045015371  0.6036265398588483  1.0000
  O   O4        1.0  0.04421260405675076  0.5872900551390839  0.3864141973049833  1.0000
  O   O5        1.0  0.04436786569191642  0.2097899716987435  0.4017450320813112  1.0000
  O   O6        1.0  0.9079521640171112  0.5889465631465307  0.3885027383976716  1.0000
  O   O7        1.0  0.9089877560327898  0.3945967722518062  0.6057150040965271  1.0000
  O   O8        1.0  0.9070718861691957  0.4057993246861345  0.18661952800059686  1.0000
  O   O9        1.0  0.9081074176149303  0.2114479747950415  0.4038318714857452  1.0000
