data_image0
_chemical_formula_structural       NC9NC5H8C12NCOCH13C13F3H9Zn2C4O8
_chemical_formula_sum              "N3 C45 H30 O9 F3 Zn2"
_cell_length_a       17.807436237873137
_cell_length_b       10.299155265289647
_cell_length_c       10.2985328690268
_cell_angle_alpha    85.56203192291568
_cell_angle_beta     89.39824995993841
_cell_angle_gamma    88.36808077728017

_space_group_name_H-M_alt    "P 1"
_space_group_IT_number       1

loop_
  _space_group_symop_operation_xyz
  'x, y, z'

loop_
  _atom_site_type_symbol
  _atom_site_label
  _atom_site_symmetry_multiplicity
  _atom_site_fract_x
  _atom_site_fract_y
  _atom_site_fract_z
  _atom_site_occupancy
  N   N1        1.0  0.7070249190045207  0.3874231119434835  0.5566144516506506  1.0000
  C   C1        1.0  0.6464445225323366  0.3522270179209628  0.5456000090727182  1.0000
  C   C2        1.0  0.5710891676670401  0.30844695294827895  0.5318992384252805  1.0000
  C   C3        1.0  0.5530076086848752  0.2369932957457048  0.4269093968777107  1.0000
  C   C4        1.0  0.479841467111827  0.1943746950341232  0.41352422946473966  1.0000
  C   C5        1.0  0.42370824734803786  0.22283218022068227  0.5050965600686319  1.0000
  C   C6        1.0  0.345951479053163  0.1776545356551702  0.49095364039630796  1.0000
  C   C7        1.0  0.2837585718790038  0.2594255983126681  0.5168705641147833  1.0000
  C   C8        1.0  0.2104501709260477  0.21660394678471231  0.5034991383145797  1.0000
  C   C9        1.0  0.1472066016577372  0.30106669957249177  0.5297792041652749  1.0000
  N   N2        1.0  0.09637176150495727  0.36896890968312024  0.5509076522780256  1.0000
  C   C10       1.0  0.1987511876922494  0.09175322319866107  0.4641855126856628  1.0000
  C   C11       1.0  0.2600867276257386  0.009968304479250229  0.43826020269375093  1.0000
  C   C12       1.0  0.33327577214898707  0.052395319049316484  0.45142919038657275  1.0000
  C   C13       1.0  0.44248111419650366  0.2947803132560278  0.6103055029988826  1.0000
  C   C14       1.0  0.5157001603353031  0.33720845529310406  0.6235350636728209  1.0000
  H   H1        1.0  0.5954034714317334  0.21448390798047723  0.3551978191399128  1.0000
  H   H2        1.0  0.46693610104968186  0.1406621694050767  0.3306132435181272  1.0000
  H   H3        1.0  0.2922361859784645  0.35690758856852445  0.5457212217771856  1.0000
  H   H4        1.0  0.14229306656256246  0.05771104268546701  0.4535998039761675  1.0000
  H   H5        1.0  0.250910521109521  0.9133061090502992  0.40820880294810813  1.0000
  H   H6        1.0  0.3799300203628528  0.9866388826503204  0.43239861807781077  1.0000
  H   H7        1.0  0.4008023228832028  0.3167510090514647  0.6833118346677681  1.0000
  H   H8        1.0  0.5291335488585324  0.3921413446743926  0.7054039866783074  1.0000
  C   C15       1.0  0.9017858446697015  0.9967944278199544  0.5538785051410293  1.0000
  C   C16       1.0  0.8889449443389368  0.007072706332012849  0.4191321118121272  1.0000
  C   C17       1.0  0.8823615706690404  0.8951497492745202  0.35069618630502175  1.0000
  C   C18       1.0  0.8887652950622579  0.7718213822907257  0.41882693867665766  1.0000
  C   C19       1.0  0.9016180394036507  0.7595873269955481  0.5536547546665318  1.0000
  C   C20       1.0  0.9080525302562059  0.8725944915483081  0.6203504325079734  1.0000
  C   C21       1.0  0.8687783760476049  0.9069965522173105  0.20815075911007042  1.0000
  C   C22       1.0  0.9068739910542194  0.9992834402803773  0.12616910124567782  1.0000
  C   C23       1.0  0.8940974916546426  0.010300892066335884  0.9920242649841651  1.0000
  C   C24       1.0  0.8434370354918561  0.9283471789800063  0.9370123553302213  1.0000
  C   C25       1.0  0.804423744729041  0.8379200568915572  0.01893929959340479  1.0000
  C   C26       1.0  0.817227604447926  0.8266452804408675  0.15304639675569853  1.0000
  N   N3        1.0  0.8282426937873802  0.9392773068913519  0.7996644037851328  1.0000
  C   C27       1.0  0.883092574969872  0.9735918888383717  0.7006358704952675  1.0000
  O   O1        1.0  0.9520147573427288  0.9728657328627742  0.7274860209918916  1.0000
  C   C28       1.0  0.8591177576700996  0.001143713485682876  0.5624377156345449  1.0000
  H   H9        1.0  0.906748323200023  0.32031604258819324  0.6057016952366476  1.0000
  H   H10       1.0  0.8829981202215688  0.10238796983291865  0.36740602155589586  1.0000
  H   H11       1.0  0.8847210122263339  0.6852021061492308  0.366254094142227  1.0000
  H   H12       1.0  0.9179595140965202  0.8639516554645702  0.7242826590034823  1.0000
  H   H13       1.0  0.92632677174524  0.5291915190414791  0.8079977835643064  1.0000
  H   H14       1.0  0.9469928003803681  0.06243931672187552  0.16567618767170944  1.0000
  H   H15       1.0  0.9229151919712522  0.08437717770122144  0.9320172833953636  1.0000
  H   H16       1.0  0.7642327886482578  0.7754714545511447  0.9785661741859855  1.0000
  H   H17       1.0  0.785995915410272  0.7562999487590413  0.2139217663681418  1.0000
  H   H18       1.0  0.7753266824453298  0.9129098129254027  0.7693643951883956  1.0000
  H   H19       1.0  0.8048869435497835  0.0571587966514051  0.5587786399605887  1.0000
  H   H20       1.0  0.8521633170528617  0.9078534925209406  0.5173124234392938  1.0000
  H   H21       1.0  0.9018827951290179  0.059195507628302176  0.5064117416453886  1.0000
  C   C29       1.0  0.9016803635830221  0.3780699282924744  0.1723695077071374  1.0000
  C   C30       1.0  0.9770215455283481  0.333604520113594  0.17349045041145428  1.0000
  C   C31       1.0  0.015197460686532828  0.31119224124518086  0.056887550276602854  1.0000
  C   C32       1.0  0.9770658410926124  0.33385805637950394  0.9381890488333434  1.0000
  C   C33       1.0  0.9017234910662362  0.37831181421949833  0.9351637774970634  1.0000
  C   C34       1.0  0.8645119024279116  0.40012869449465693  0.052744403549740415  1.0000
  C   C35       1.0  0.09485102853789025  0.2641938902969918  0.059007088153308455  1.0000
  C   C36       1.0  0.14671345563469118  0.3163402413054106  0.9666890721464929  1.0000
  C   C37       1.0  0.22167811930094694  0.2722106215346143  0.9687052976770073  1.0000
  C   C38       1.0  0.24614484342566922  0.1736476357187664  0.06184707317050586  1.0000
  C   C39       1.0  0.19471688976759438  0.1232998719432041  0.1557355084586063  1.0000
  C   C40       1.0  0.1197571092014371  0.16746231769378525  0.15383012253320816  1.0000
  C   C41       1.0  0.327606746903467  0.12949698184184744  0.06694853959767388  1.0000
  F   F1        1.0  0.3661173484721405  0.20699212409093404  0.14584524060152138  1.0000
  F   F2        1.0  0.35959884338196935  0.13915462571730994  0.9436191005645779  1.0000
  F   F3        1.0  0.3345924097613715  0.0010352452091177966  0.1167702346004522  1.0000
  H   H22       1.0  0.7594565624284308  0.46290482138562705  0.3775109325214052  1.0000
  H   H23       1.0  0.006445124784584034  0.31804931290654936  0.26514238499762044  1.0000
  H   H24       1.0  0.005922040621208604  0.31510752339198356  0.8481405726701604  1.0000
  H   H25       1.0  0.8064447197760023  0.434393825802295  0.05114735183563712  1.0000
  H   H26       1.0  0.7592162742345722  0.4615764874255576  0.7221805803226137  1.0000
  H   H27       1.0  0.12957702295953233  0.39292235439631984  0.8941884898921084  1.0000
  H   H28       1.0  0.2606173098482325  0.31559463953429767  0.8976358602982354  1.0000
  H   H29       1.0  0.21245331149322477  0.04958107104945308  0.23066931709632255  1.0000
  H   H30       1.0  0.08108829839842134  0.12501958190117324  0.22591499098603918  1.0000
  Zn  Zn1       1.0  0.819382007389725  0.382094164604043  0.5549751049898841  1.0000
  Zn  Zn2       1.0  0.9840146578556941  0.37428727333166506  0.5525576794459384  1.0000
  C   C42       1.0  0.901714803420055  0.3730920356342887  0.7909808615236137  1.0000
  C   C43       1.0  0.9016836592554338  0.3832909558500974  0.3165520235092152  1.0000
  C   C44       1.0  0.9016455777527347  0.6154017473786402  0.5485215634466261  1.0000
  C   C45       1.0  0.9017528290923823  0.14097968635605948  0.5590113921125446  1.0000
  O   O2        1.0  0.9641619994214593  0.38207483961680205  0.3640235942024883  1.0000
  O   O3        1.0  0.9641888358119121  0.3683819221064504  0.7416741471915973  1.0000
  O   O4        1.0  0.964132093063451  0.5640501191310439  0.5458865605257397  1.0000
  O   O5        1.0  0.9642186859843983  0.1864066545163081  0.5598110843086528  1.0000
  O   O6        1.0  0.8391779230799764  0.5699747860849199  0.5477217009452866  1.0000
  O   O7        1.0  0.8392346654777652  0.37430814947553404  0.7435092179029198  1.0000
  O   O8        1.0  0.8392078290589424  0.3880010212285708  0.36585710341014627  1.0000
  O   O9        1.0  0.8392645156263595  0.19233282686949751  0.5616446908941212  1.0000
