data_image0
_chemical_formula_structural       NC9NC4H8C7F3H5C12H10Zn2C4O8
_chemical_formula_sum              "N2 C36 H23 F3 Zn2 O8"
_cell_length_a       16.32274767691083
_cell_length_b       9.272718291674593
_cell_length_c       10.299141136925906
_cell_angle_alpha    85.97515333800408
_cell_angle_beta     89.48989962439883
_cell_angle_gamma    89.10298441660798

_space_group_name_H-M_alt    "P 1"
_space_group_IT_number       1

loop_
  _space_group_symop_operation_xyz
  'x, y, z'

loop_
  _atom_site_type_symbol
  _atom_site_label
  _atom_site_symmetry_multiplicity
  _atom_site_fract_x
  _atom_site_fract_y
  _atom_site_fract_z
  _atom_site_occupancy
  N   N1        1.0  0.7645219277316003  0.5681020288789884  0.5675241879988308  1.0000
  C   C1        1.0  0.7124036663402271  0.5154503579261712  0.5128674412398028  1.0000
  C   C2        1.0  0.6476198990670967  0.45005657269128047  0.44498332478926206  1.0000
  C   C3        1.0  0.6595417835664819  0.36060954561321434  0.35212564143567693  1.0000
  C   C4        1.0  0.5803563094939943  0.3169589208795458  0.30681415514428334  1.0000
  C   C5        1.0  0.5211596613111574  0.38084060152415367  0.3731339669099216  1.0000
  C   C6        1.0  0.43129184909987217  0.36395724642134897  0.3556097653710196  1.0000
  C   C7        1.0  0.3753886586821866  0.4384154731737262  0.43290239524817886  1.0000
  C   C8        1.0  0.2907396901632543  0.4239861466189446  0.41792510385661125  1.0000
  C   C9        1.0  0.2344151281188781  0.5007333564398676  0.49759308371094324  1.0000
  N   N2        1.0  0.1891491736932005  0.562425484206518  0.5616326487308418  1.0000
  C   C10       1.0  0.2609413708499911  0.3349781712847093  0.32553080390122946  1.0000
  C   C11       1.0  0.3155222359639298  0.2606185697879603  0.24834089506595008  1.0000
  C   C12       1.0  0.40001401229887773  0.27465923702786044  0.2629146108384426  1.0000
  C   C13       1.0  0.5585292948522684  0.47398714626696736  0.4698296126718085  1.0000
  H   H1        1.0  0.7185928616702068  0.3258278154152714  0.31601540921627974  1.0000
  H   H2        1.0  0.5723627828467575  0.24385397718668367  0.23092150153041957  1.0000
  H   H3        1.0  0.3972142579090019  0.507901203070745  0.5050318291123235  1.0000
  H   H4        1.0  0.19559868263766733  0.32309139535977605  0.3131928469798817  1.0000
  H   H5        1.0  0.29229799048940075  0.1917626027501985  0.17686544176497312  1.0000
  H   H6        1.0  0.4400408144589171  0.2151763422189468  0.2011680468442523  1.0000
  H   H7        1.0  0.5419411043587699  0.4353816453486126  0.5710730540585562  1.0000
  H   H8        1.0  0.5412573366228716  0.5895282880166084  0.44845545656830166  1.0000
  C   C14       1.0  0.9786231222111218  0.14185794032432053  0.5616847085576753  1.0000
  C   C15       1.0  0.928656855064688  0.22386308421009019  0.47262496817457167  1.0000
  C   C16       1.0  0.8728956386139617  0.157098582301559  0.39389304555017346  1.0000
  C   C17       1.0  0.8692714985881697  0.005856281529941894  0.4015361792909718  1.0000
  C   C18       1.0  0.9192983245451088  0.9228920312969712  0.4877847586982085  1.0000
  C   C19       1.0  0.9750558659879  0.9886583193226527  0.5674832218843244  1.0000
  C   C20       1.0  0.8214370111177351  0.24672326516612708  0.2965916561381139  1.0000
  F   F1        1.0  0.8003950665056649  0.37841088533942363  0.34408364172798656  1.0000
  F   F2        1.0  0.7499085418379845  0.17628647682247642  0.27045020076608073  1.0000
  F   F3        1.0  0.8656088177147122  0.27094602963841496  0.18221544798415584  1.0000
  H   H9        1.0  0.07597767254580524  0.21917296345499884  0.8406169717743827  1.0000
  H   H10       1.0  0.9319258525628911  0.34078986628276886  0.4665349438286788  1.0000
  H   H11       1.0  0.8283021241238759  0.9513284516186613  0.3396514820643124  1.0000
  H   H12       1.0  0.915954666256761  0.8061671632801393  0.48957852237731836  1.0000
  H   H13       1.0  0.15098582972571273  0.8703499342847489  0.7213559125340082  1.0000
  C   C21       1.0  0.9767458520655312  0.5653824299745818  0.18319307989525324  1.0000
  C   C22       1.0  0.06226422343236182  0.5797665439580098  0.18029671768963199  1.0000
  C   C23       1.0  0.1057218667356088  0.5869321533012699  0.06169223307027694  1.0000
  C   C24       1.0  0.06250518986059195  0.5795195188171387  0.9450260144879922  1.0000
  C   C25       1.0  0.9769331749437373  0.5651338309518144  0.9459748383480179  1.0000
  C   C26       1.0  0.93458041992832  0.5581514886955192  0.06549757089154908  1.0000
  C   C27       1.0  0.1961916914961389  0.6021509149283384  0.0596729493349677  1.0000
  C   C28       1.0  0.24528590629379152  0.522655211775555  0.9762331273395923  1.0000
  C   C29       1.0  0.33043341652388225  0.537159321234637  0.9745717257028772  1.0000
  C   C30       1.0  0.3674718539434987  0.6309592153660564  0.05585613899731979  1.0000
  C   C31       1.0  0.3194376732248878  0.710450311095733  0.13903663754769013  1.0000
  C   C32       1.0  0.2342671695644798  0.6963079826853253  0.14117062881976897  1.0000
  H   H14       1.0  0.9438452863491628  0.5599228152191544  0.511778399623482  1.0000
  H   H15       1.0  0.09540144769628833  0.5834392745051542  0.27061728400561047  1.0000
  H   H16       1.0  0.09556302634598413  0.5869724443516261  0.8531951181793743  1.0000
  H   H17       1.0  0.8686179118132243  0.5470607017444398  0.06701571740961754  1.0000
  H   H18       1.0  0.8153633738486681  0.5388969696234405  0.7404173986477032  1.0000
  H   H19       1.0  0.2179433721267039  0.4479764045746906  0.9135916177915698  1.0000
  H   H20       1.0  0.36774298468197664  0.47531281628188654  0.9104089383210752  1.0000
  H   H21       1.0  0.43339052029205627  0.6420461617513995  0.054387363557910184  1.0000
  H   H22       1.0  0.3481945688292014  0.7834084704582381  0.20172718047963967  1.0000
  H   H23       1.0  0.19812999420582744  0.7603093525857344  0.2052277613689386  1.0000
  Zn  Zn1       1.0  0.8870602028135075  0.5664600284828961  0.5658314909524942  1.0000
  Zn  Zn2       1.0  0.0666109572384781  0.5640556494872675  0.5633359045522264  1.0000
  C   C33       1.0  0.9769201149027898  0.5594368971097984  0.8017534221098163  1.0000
  C   C34       1.0  0.9767529982054057  0.5710805738013558  0.3274140860742126  1.0000
  C   C35       1.0  0.9757246766518254  0.8285967708334355  0.5612117343932992  1.0000
  C   C36       1.0  0.9779483825027108  0.30191896858690387  0.567955832023055  1.0000
  O   O1        1.0  0.04489399858128795  0.5720741833703253  0.3748688681174304  1.0000
  O   O2        1.0  0.04505398710411934  0.5566173319250126  0.752404166417056  1.0000
  O   O3        1.0  0.0440877373890951  0.7739673458081787  0.5581650747464377  1.0000
  O   O4        1.0  0.04586018696044114  0.3547241806535951  0.5691078633299783  1.0000
  O   O5        1.0  0.9078109118196759  0.7757914981386373  0.5600595330195431  1.0000
  O   O6        1.0  0.9087771542164906  0.5584432165683539  0.7542985673026364  1.0000
  O   O7        1.0  0.9086171655763948  0.5739000182774778  0.37676170716765256  1.0000
  O   O8        1.0  0.9095833540195506  0.35655000521638014  0.5710007996830719  1.0000
