data_image0
_chemical_formula_structural       NC6NC3H6C7NH5C7OH5Zn2C4O8
_chemical_formula_sum              "N3 C27 H16 O9 Zn2"
_cell_length_a       14.934028789175542
_cell_length_b       9.275154477615127
_cell_length_c       9.274074313596557
_cell_angle_alpha    86.3499061385644
_cell_angle_beta     90.20908406498742
_cell_angle_gamma    89.3962875590186

_space_group_name_H-M_alt    "P 1"
_space_group_IT_number       1

loop_
  _space_group_symop_operation_xyz
  'x, y, z'

loop_
  _atom_site_type_symbol
  _atom_site_label
  _atom_site_symmetry_multiplicity
  _atom_site_fract_x
  _atom_site_fract_y
  _atom_site_fract_z
  _atom_site_occupancy
  N   N1        1.0  0.8295903523611012  0.5615113049508502  0.4158851057283093  1.0000
  C   C1        1.0  0.7521093309763084  0.560406712806268  0.4152019875622386  1.0000
  C   C2        1.0  0.6557190586516131  0.559027523333016  0.4143492403629123  1.0000
  C   C3        1.0  0.6074683277212803  0.666438671664599  0.4806547687577531  1.0000
  C   C4        1.0  0.513961635118717  0.6653312885085393  0.4799710457184598  1.0000
  C   C5        1.0  0.4677928757710087  0.5568675738671149  0.41301583233850236  1.0000
  C   C6        1.0  0.371136534727614  0.5591947850819283  0.4144537184425256  1.0000
  N   N2        1.0  0.29364802480334873  0.5610417238065417  0.4155951906587352  1.0000
  C   C7        1.0  0.5160447883028129  0.44797041035175567  0.3457924266119705  1.0000
  C   C8        1.0  0.46826448619058436  0.3300478186183793  0.2729994226006214  1.0000
  C   C9        1.0  0.6101774132527518  0.45020777074947027  0.3471736143060874  1.0000
  H   H1        1.0  0.6421279738662077  0.7510686988989128  0.5328979639775832  1.0000
  H   H2        1.0  0.4775442979299519  0.7493095404111911  0.5318117529043629  1.0000
  H   H3        1.0  0.42499514638598995  0.3782392976235047  0.1845971342003651  1.0000
  H   H4        1.0  0.4261028846019087  0.2680001914091015  0.35285485743504896  1.0000
  H   H5        1.0  0.5160704449335143  0.2536675858104287  0.22584304149748122  1.0000
  H   H6        1.0  0.648082733756185  0.3673466827285037  0.2960228283426509  1.0000
  C   C10       1.0  0.06421054821136771  0.13786822240835517  0.4140706440650329  1.0000
  C   C11       1.0  0.03931764126540413  0.21982566928855896  0.287004897236552  1.0000
  C   C12       1.0  0.007157978153848881  0.15263900631702776  0.16667537635271792  1.0000
  C   C13       1.0  0.99936309395861  0.002578509524834959  0.1719945545994681  1.0000
  C   C14       1.0  0.025078752863077813  0.9193841345874775  0.2961630703826812  1.0000
  C   C15       1.0  0.05903653625386515  0.9846738265037394  0.4174220934084601  1.0000
  C   C16       1.0  0.9810699856535339  0.23816444733547623  0.03807871513701632  1.0000
  N   N3        1.0  0.9601024692847283  0.30691131177951886  0.9347199389162513  1.0000
  H   H7        1.0  0.0824477175310725  0.21799197515607102  0.7678516361729335  1.0000
  H   H8        1.0  0.042963958351910796  0.33673942106244237  0.28272603465547597  1.0000
  H   H9        1.0  0.9741692477183926  0.9495699235887982  0.07951405860032823  1.0000
  H   H10       1.0  0.020376428909846693  0.802920052493721  0.29603916400477326  1.0000
  H   H11       1.0  0.07511307919694787  0.6882130819597768  0.6544630114856329  1.0000
  C   C17       1.0  0.06057676614132279  0.5571193890136839  0.9924894042938254  1.0000
  C   C18       1.0  0.9822425015840345  0.5997658168176894  0.06259550472833261  1.0000
  C   C19       1.0  0.9082468568719667  0.6539953084326162  0.9836736256141183  1.0000
  C   C20       1.0  0.9108535205782713  0.6670205639751756  0.8324435064817979  1.0000
  C   C21       1.0  0.9879894018873898  0.6226346223528267  0.7611913861527855  1.0000
  C   C22       1.0  0.0626702832351118  0.5654225917502657  0.8390033407726076  1.0000
  C   C23       1.0  0.8334739280344577  0.7252185072692662  0.747330943420619  1.0000
  O   O1        1.0  0.7630594612225962  0.7654628272713206  0.8082400540947086  1.0000
  H   H12       1.0  0.2795898325219517  0.5201633060057076  0.09899589674699147  1.0000
  H   H13       1.0  0.8492927826693165  0.6870617881894163  0.041242617210295755  1.0000
  H   H14       1.0  0.9889843023798077  0.6296209450461243  0.6440617288527304  1.0000
  H   H15       1.0  0.20992031090746843  0.5353061098790064  0.5613270298519588  1.0000
  H   H16       1.0  0.8366001200902974  0.733967112783302  0.630494076610101  1.0000
  Zn  Zn1       1.0  0.9635074301202735  0.5613720118424763  0.4158097441576585  1.0000
  Zn  Zn2       1.0  0.1597310784173741  0.5611693216971452  0.41568228940750124  1.0000
  C   C24       1.0  0.06230768520675742  0.558109157922756  0.6789713069392708  1.0000
  C   C25       1.0  0.06093295532120743  0.5644339940405467  0.15252087390099023  1.0000
  C   C26       1.0  0.05999571694127567  0.8245531894821825  0.4110449737038082  1.0000
  C   C27       1.0  0.0632448674037378  0.2979882310047033  0.42044727716753977  1.0000
  O   O2        1.0  0.13551838599836397  0.5668056321607275  0.2061805036981197  1.0000
  O   O3        1.0  0.13665146890083135  0.5555825908822767  0.6252145227232202  1.0000
  O   O4        1.0  0.1347835251588212  0.7707395317485056  0.40886211959778984  1.0000
  O   O5        1.0  0.13738626245224214  0.35164870061794296  0.422532798837953  1.0000
  O   O6        1.0  0.9858521791238765  0.7708926329923421  0.40895923476312535  1.0000
  O   O7        1.0  0.9877201120873089  0.5557374236731942  0.6253115678933878  1.0000
  O   O8        1.0  0.9865870252656919  0.5669603977093427  0.20627581577073806  1.0000
  O   O9        1.0  0.9884549020461727  0.3518034569137778  0.4226282189320872  1.0000
