data_image0
_chemical_formula_structural       NC5N2C2NH4C7NH5C6OCH6Zn2C4O8
_chemical_formula_sum              "N5 C25 H15 O9 Zn2"
_cell_length_a       13.87973921873968
_cell_length_b       9.275154477615127
_cell_length_c       9.273891588657152
_cell_angle_alpha    86.29931945807607
_cell_angle_beta     89.68012952506892
_cell_angle_gamma    89.4337086285363

_space_group_name_H-M_alt    "P 1"
_space_group_IT_number       1

loop_
  _space_group_symop_operation_xyz
  'x, y, z'

loop_
  _atom_site_type_symbol
  _atom_site_label
  _atom_site_symmetry_multiplicity
  _atom_site_fract_x
  _atom_site_fract_y
  _atom_site_fract_z
  _atom_site_occupancy
  N   N1        1.0  0.9028142043718287  0.5636007077598617  0.4162805697427361  1.0000
  C   C1        1.0  0.8297573152144464  0.5876204833584251  0.35974144921005236  1.0000
  C   C2        1.0  0.7390233392701481  0.6174553878101958  0.28951375070536334  1.0000
  C   C3        1.0  0.6525093913425715  0.5874257786986825  0.36258766441216994  1.0000
  C   C4        1.0  0.5661439383937927  0.6174553235553923  0.28951379035069247  1.0000
  C   C5        1.0  0.47528019482654066  0.5876203377573199  0.35974134541344804  1.0000
  N   N2        1.0  0.40211877342924385  0.5636006830426996  0.41628055865214075  1.0000
  N   N3        1.0  0.5679199527322082  0.6748323397760669  0.15099505339369235  1.0000
  C   C6        1.0  0.6527807819222966  0.7048242308409611  0.08196398556137607  1.0000
  C   C7        1.0  0.6529630421662133  0.7639411024191467  0.9284601156762173  1.0000
  N   N4        1.0  0.7375228516617814  0.674832293219285  0.15099506395926454  1.0000
  H   H1        1.0  0.652400327502661  0.5415138787286808  0.473127637260131  1.0000
  H   H2        1.0  0.7176006512988113  0.8315965662296232  0.9063340052123876  1.0000
  H   H3        1.0  0.6538328433929664  0.673365962470216  0.855885551369659  1.0000
  H   H4        1.0  0.5875958475357904  0.8315944960321298  0.9063332310430936  1.0000
  C   C8        1.0  0.15526540530088973  0.14019634206736975  0.4146125654656508  1.0000
  C   C9        1.0  0.1293014092648508  0.22222891030329572  0.28752140742010823  1.0000
  C   C10       1.0  0.09547530446558938  0.15510470229384654  0.1671624573933217  1.0000
  C   C11       1.0  0.08705409589188373  0.005032123502286104  0.17247717779316885  1.0000
  C   C12       1.0  0.11392201736912422  0.9217657461794917  0.2966713941174222  1.0000
  C   C13       1.0  0.14967681403950306  0.9869940679891125  0.41796104191647276  1.0000
  C   C14       1.0  0.06823533034670337  0.2407052644090517  0.03853951946991385  1.0000
  N   N5        1.0  0.046341957397503686  0.3095125075264973  0.9351596238487669  1.0000
  H   H5        1.0  0.17260595278083124  0.220059288722902  0.7684323978901889  1.0000
  H   H6        1.0  0.13325225928392315  0.33914972724301284  0.2832444912337486  1.0000
  H   H7        1.0  0.06054324516668296  0.9520710553480148  0.07997376554943236  1.0000
  H   H8        1.0  0.10886335308089912  0.8052970061634347  0.2965445399659936  1.0000
  H   H9        1.0  0.16544555704437558  0.6903624787707789  0.6550303939751313  1.0000
  C   C15       1.0  0.15407464688391204  0.5597766008441085  0.9929963503197016  1.0000
  C   C16       1.0  0.23257293949712718  0.6206762363799765  0.06181086373168388  1.0000
  C   C17       1.0  0.30553522514488507  0.6923423332619854  0.9822845041063792  1.0000
  C   C18       1.0  0.30025943002794675  0.7034700822218656  0.830887892838986  1.0000
  C   C19       1.0  0.22379101517299227  0.6416974184961005  0.7607277294355992  1.0000
  C   C20       1.0  0.15086754624861395  0.5674137323440764  0.8395771898918857  1.0000
  O   O1        1.0  0.3814140907415735  0.7514667451662118  0.05772490554801735  1.0000
  C   C21       1.0  0.4602510655031582  0.8273475070056608  0.990948586427761  1.0000
  H   H10       1.0  0.925494598986497  0.47122022170851324  0.10366341121932954  1.0000
  H   H11       1.0  0.35539589135976785  0.758527648738005  0.7661834686792952  1.0000
  H   H12       1.0  0.22296458231374247  0.6491284166119378  0.643675937129149  1.0000
  H   H13       1.0  0.4337452003882456  0.9249174671577044  0.9269388215029909  1.0000
  H   H14       1.0  0.5008952168555443  0.7557896258388512  0.9202529635449334  1.0000
  H   H15       1.0  0.5093417997205818  0.8618110042449735  0.07592840927350442  1.0000
  Zn  Zn1       1.0  0.0469027124424779  0.5635969120316331  0.41628887796700353  1.0000
  Zn  Zn2       1.0  0.2580302841722204  0.5635927745346734  0.4162840200936678  1.0000
  C   C22       1.0  0.15150953151429336  0.5602262587545424  0.6795325894842724  1.0000
  C   C23       1.0  0.15342575806460834  0.5669652482753988  0.1530404571950608  1.0000
  C   C24       1.0  0.15074997361661469  0.8268794347005541  0.41158402682259587  1.0000
  C   C25       1.0  0.15418525506059622  0.30031034074087115  0.42098908985815164  1.0000
  O   O2        1.0  0.23332983973357813  0.5693699636296805  0.20675085307275803  1.0000
  O   O3        1.0  0.2318464003791758  0.5578173116824625  0.6258180873514531  1.0000
  O   O4        1.0  0.23123196201257623  0.773143137090877  0.4094477331746289  1.0000
  O   O5        1.0  0.23394420639799995  0.35404414756189323  0.4231210992135641  1.0000
  O   O6        1.0  0.07098871816923857  0.7731455390073267  0.4094517988411893  1.0000
  O   O7        1.0  0.0716031453900694  0.5578214451903409  0.6258220830106807  1.0000
  O   O8        1.0  0.07308659170535801  0.5693740312592803  0.20675311549753905  1.0000
  O   O9        1.0  0.07370095802449737  0.3540482058537786  0.4231234696684454  1.0000
