data_image0
_chemical_formula_structural       NC12NC2H8C13OH12C16H10Zn2C4O8
_chemical_formula_sum              "N2 C47 H30 O9 Zn2"
_cell_length_a       19.240039667572717
_cell_length_b       10.299150109392551
_cell_length_c       10.299151387937775
_cell_angle_alpha    85.56522917257966
_cell_angle_beta     89.98856263563694
_cell_angle_gamma    89.97992514300192

_space_group_name_H-M_alt    "P 1"
_space_group_IT_number       1

loop_
  _space_group_symop_operation_xyz
  'x, y, z'

loop_
  _atom_site_type_symbol
  _atom_site_label
  _atom_site_symmetry_multiplicity
  _atom_site_fract_x
  _atom_site_fract_y
  _atom_site_fract_z
  _atom_site_occupancy
  N   N1        1.0  0.6543637765466364  0.42076656770461734  0.5669823314027622  1.0000
  C   C1        1.0  0.5942154077223681  0.4207666516570639  0.5669822494381682  1.0000
  C   C2        1.0  0.5193973705738923  0.4207667688926242  0.5669821120947609  1.0000
  C   C3        1.0  0.4829246880170049  0.3563411115564057  0.6704154988800684  1.0000
  C   C4        1.0  0.4102539514563548  0.35623025892500926  0.6705020774456374  1.0000
  C   C5        1.0  0.37306513564354865  0.42076686136658936  0.5669818843820005  1.0000
  C   C6        1.0  0.41025199816208757  0.4853036508936295  0.46346188579939707  1.0000
  C   C7        1.0  0.48292269819622463  0.48519256279703593  0.4635485869423339  1.0000
  C   C8        1.0  0.2958600452288759  0.4207667826578548  0.5669817889914317  1.0000
  C   C9        1.0  0.2586889990223898  0.3075150948797152  0.6088891928958953  1.0000
  C   C10       1.0  0.1860183003565807  0.3076219641032747  0.6087978326044303  1.0000
  C   C11       1.0  0.1495277583233898  0.4207666535010417  0.5669818499436019  1.0000
  C   C12       1.0  0.074709721163178  0.4207665398566862  0.5669820986421807  1.0000
  N   N2        1.0  0.014561404296447698  0.42076649912003605  0.5669823070756366  1.0000
  C   C13       1.0  0.1859847271382473  0.5339114187095855  0.5251658143673528  1.0000
  C   C14       1.0  0.2586554130580609  0.534018467998109  0.5250742914225566  1.0000
  H   H1        1.0  0.5106402800145871  0.3064616592420333  0.7511732129327912  1.0000
  H   H2        1.0  0.38316110177654966  0.30714943751296775  0.7523750464800503  1.0000
  H   H3        1.0  0.38315831705412845  0.5343844993382666  0.3815888659076096  1.0000
  H   H4        1.0  0.5106368776510355  0.535071914960171  0.38279114871859043  1.0000
  H   H5        1.0  0.28579566051556354  0.2183660838667174  0.6400856540624471  1.0000
  H   H6        1.0  0.15831656560763394  0.21937265132577322  0.641026975770866  1.0000
  H   H7        1.0  0.1582566384424496  0.6221607069545674  0.4929366857593185  1.0000
  H   H8        1.0  0.2857352303720364  0.6231675581746721  0.4938777854587737  1.0000
  C   C15       1.0  0.8345314189297398  0.039366962150322996  0.56712642856107  1.0000
  C   C16       1.0  0.8332367169458421  0.027621696370642164  0.7039373664280664  1.0000
  C   C17       1.0  0.832519828616321  0.9045318837891336  0.773039721054013  1.0000
  C   C18       1.0  0.8331027532185251  0.7923661951471006  0.7035739709102071  1.0000
  C   C19       1.0  0.8344004366470772  0.8021560919452572  0.5668494321455654  1.0000
  C   C20       1.0  0.8351090974966497  0.9261172346059953  0.49942466858750545  1.0000
  C   C21       1.0  0.831144130328234  0.8930884359129775  0.917680058576897  1.0000
  C   C22       1.0  0.788399674400398  0.8002374923191794  0.9857015803306283  1.0000
  C   C23       1.0  0.787082117258176  0.7895506286088629  0.12180799338893578  1.0000
  C   C24       1.0  0.8289410579296491  0.8705571299125986  0.19235338614408803  1.0000
  C   C25       1.0  0.8710205004473064  0.9643619848887108  0.12497443708426259  1.0000
  C   C26       1.0  0.8723541910532727  0.97522464550422  0.9888677353094892  1.0000
  C   C27       1.0  0.8260638785636664  0.8614275850515469  0.33843988038350814  1.0000
  O   O1        1.0  0.7741123275538969  0.9446203293554217  0.3786806072341361  1.0000
  H   H9        1.0  0.8365236864686185  0.26882953772587936  0.3088893722874515  1.0000
  H   H10       1.0  0.8318193481960672  0.11441657267638594  0.7569460249287008  1.0000
  H   H11       1.0  0.8334937109008689  0.6972650213468424  0.7564075661804321  1.0000
  H   H12       1.0  0.8361080728811487  0.9343846835114858  0.39396494071633964  1.0000
  H   H13       1.0  0.83485279116902  0.4784461616123321  0.5142603793506448  1.0000
  H   H14       1.0  0.7551667295997346  0.7372078960065545  0.9335928128245122  1.0000
  H   H15       1.0  0.7532672844071759  0.7182412758460245  0.1721836375338297  1.0000
  H   H16       1.0  0.9029731374345064  0.02894485172496309  0.17782941169816657  1.0000
  H   H17       1.0  0.9061922255750714  0.046979755766751286  0.9392987356536737  1.0000
  H   H18       1.0  0.8771835628398754  0.8892729200657473  0.3786099388786821  1.0000
  H   H19       1.0  0.8147650118455791  0.7594214984480793  0.37625252193568437  1.0000
  H   H20       1.0  0.7743595337470098  0.934981951007746  0.47530743529679104  1.0000
  C   C28       1.0  0.834506236959988  0.42059278889806345  0.18561700206874066  1.0000
  C   C29       1.0  0.7674372497129938  0.4745501196007594  0.18068895094773185  1.0000
  C   C30       1.0  0.7333904034901324  0.5020815561937604  0.06103430887777205  1.0000
  C   C31       1.0  0.7673162782801514  0.4749277437478385  0.945376479609692  1.0000
  C   C32       1.0  0.8344256081530181  0.4209302655071505  0.9483588561461181  1.0000
  C   C33       1.0  0.8676081280898758  0.39409715399931544  0.06890559057650902  1.0000
  C   C34       1.0  0.6624395376019403  0.5591621883794027  0.05686643508348621  1.0000
  C   C35       1.0  0.6447688137574537  0.6589824225677735  0.9615254073468344  1.0000
  C   C36       1.0  0.577978410667462  0.7126674982201611  0.9577308906403234  1.0000
  C   C37       1.0  0.5279825409875043  0.6673408555743653  0.04897536653429646  1.0000
  C   C38       1.0  0.5450232526538261  0.5680790045639856  0.1441540987474783  1.0000
  C   C39       1.0  0.6117937309519106  0.5143063291383385  0.14819821222213103  1.0000
  C   C40       1.0  0.4592313900026272  0.7226557852830691  0.04494089262442369  1.0000
  C   C41       1.0  0.40165327118542443  0.7689812027557652  0.04156199255818449  1.0000
  C   C42       1.0  0.33422989276599485  0.8232278517435945  0.03760533423671751  1.0000
  C   C43       1.0  0.2766610786450278  0.8695460206869667  0.034227086637805826  1.0000
  H   H21       1.0  0.8602890739196658  0.39977591845097904  0.5149930083771905  1.0000
  H   H22       1.0  0.7418960024690964  0.49694627474742903  0.26998467650752955  1.0000
  H   H23       1.0  0.7409403388446358  0.49430828799594156  0.8529965517587281  1.0000
  H   H24       1.0  0.9193393211709346  0.35247492402127534  0.07199125008930385  1.0000
  H   H25       1.0  0.9609164630836905  0.31825445876878833  0.746754089894694  1.0000
  H   H26       1.0  0.682864806781622  0.6966874086036478  0.8909652965828401  1.0000
  H   H27       1.0  0.5653958729014215  0.7897228119459445  0.8838504753554552  1.0000
  H   H28       1.0  0.5066573854570708  0.5320153454982648  0.21504502178627868  1.0000
  H   H29       1.0  0.6235550431363526  0.4364893185406405  0.2216858869992362  1.0000
  H   H30       1.0  0.2261109067397767  0.9102171348450995  0.031260713725204115  1.0000
  Zn  Zn1       1.0  0.7583090401936402  0.42076308374537974  0.5669898141069103  1.0000
  Zn  Zn2       1.0  0.9106161601194632  0.42075939343745117  0.5669854271744577  1.0000
  C   C44       1.0  0.8344401935760906  0.41569241921101185  0.8041861759471798  1.0000
  C   C45       1.0  0.8344866696311541  0.42583169673927174  0.3297891921582645  1.0000
  C   C46       1.0  0.834422164062759  0.6579704581660165  0.561726573187667  1.0000
  C   C47       1.0  0.834504647433343  0.18355209738812236  0.572248864724962  1.0000
  O   O2        1.0  0.8922798618864465  0.42758285541916924  0.3781730334212956  1.0000
  O   O3        1.0  0.8922445814053969  0.4139374797060698  0.7557986316117562  1.0000
  O   O4        1.0  0.8922292430342481  0.6095800608026756  0.5600107864735349  1.0000
  O   O5        1.0  0.8922951482941889  0.2319402835717015  0.5739607811824614  1.0000
  O   O6        1.0  0.7766300000439698  0.6095821936137994  0.5600144600935721  1.0000
  O   O7        1.0  0.7766453381513166  0.41394117291600857  0.7558022354192746  1.0000
  O   O8        1.0  0.7766806188513986  0.42758650267855647  0.3781750758363658  1.0000
  O   O9        1.0  0.7766959052476028  0.2319439215846204  0.5739629209692532  1.0000
