data_image0
_chemical_formula_structural       NC11NC3H8C10OC3H12C10SC3H11Zn2C4O8
_chemical_formula_sum              "N2 C44 H31 O9 S1 Zn2"
_cell_length_a       17.807433833752565
_cell_length_b       10.299147686265055
_cell_length_c       10.299154459856254
_cell_angle_alpha    85.54688238329197
_cell_angle_beta     88.4987960462223
_cell_angle_gamma    90.69676085442153

_space_group_name_H-M_alt    "P 1"
_space_group_IT_number       1

loop_
  _space_group_symop_operation_xyz
  'x, y, z'

loop_
  _atom_site_type_symbol
  _atom_site_label
  _atom_site_symmetry_multiplicity
  _atom_site_fract_x
  _atom_site_fract_y
  _atom_site_fract_z
  _atom_site_occupancy
  N   N1        1.0  0.7079752929224961  0.4383385269876909  0.5340035333823756  1.0000
  C   C1        1.0  0.6571342463238303  0.4036207160351333  0.600582534984523  1.0000
  C   C2        1.0  0.5938828612795807  0.3604346204088824  0.6833983172272409  1.0000
  C   C3        1.0  0.605570272532749  0.29690088321436914  0.8061472370836251  1.0000
  C   C4        1.0  0.5442270842011105  0.2553942989051186  0.8866783129122018  1.0000
  C   C5        1.0  0.4710419320542577  0.27710827087210177  0.8451014159656551  1.0000
  C   C6        1.0  0.4583778655264827  0.3407964904775196  0.7218922200180447  1.0000
  C   C7        1.0  0.3806253798381563  0.36384019892148306  0.6775340277609345  1.0000
  C   C8        1.0  0.3618728406673739  0.3469433048404528  0.5479569010083767  1.0000
  C   C9        1.0  0.2886577522725207  0.3686185375870552  0.5063359475582847  1.0000
  C   C10       1.0  0.23325238095959674  0.40750907246944035  0.593471687782068  1.0000
  C   C11       1.0  0.1579010057484075  0.4298425832162611  0.5504891214407258  1.0000
  N   N2        1.0  0.0973238725033843  0.4477970666483144  0.5159342663791993  1.0000
  C   C12       1.0  0.25131352019028425  0.42461646652811774  0.722517575714233  1.0000
  C   C13       1.0  0.3244757768258549  0.40290634653757884  0.7643939808700713  1.0000
  C   C14       1.0  0.5205783609408154  0.38229851240320145  0.6413775624353433  1.0000
  H   H1        1.0  0.662025244847903  0.27949088793127097  0.8395211239324177  1.0000
  H   H2        1.0  0.5533944631151412  0.205954748014707  0.9814381557049792  1.0000
  H   H3        1.0  0.42438191199471537  0.242560642439781  0.908556968082088  1.0000
  H   H4        1.0  0.4035647058296854  0.31528646784104836  0.4792516799646245  1.0000
  H   H5        1.0  0.2752401210819806  0.35471870875151157  0.40630428513396194  1.0000
  H   H6        1.0  0.2089048447649382  0.45505008073100317  0.7907085288516837  1.0000
  H   H7        1.0  0.3373652230989368  0.4183516830532237  0.8642422314548831  1.0000
  H   H8        1.0  0.5121095762837384  0.43310057350257325  0.5468514679167138  1.0000
  C   C15       1.0  0.9026037487287586  0.06166502198838762  0.5251404765749013  1.0000
  C   C16       1.0  0.8820775744417899  0.07062950069914019  0.39407015220803565  1.0000
  C   C17       1.0  0.8717224310538154  0.958046254827817  0.32744184193228953  1.0000
  C   C18       1.0  0.8821678112693858  0.83538014200511  0.3936541346043025  1.0000
  C   C19       1.0  0.9027025918046644  0.8244607993484382  0.5248081582212354  1.0000
  C   C20       1.0  0.9127957734252637  0.9381154065775105  0.5897434919196309  1.0000
  C   C21       1.0  0.8500096517714154  0.968574857451304  0.18877918149293202  1.0000
  C   C22       1.0  0.7957972797735688  0.05858188617038307  0.14469059390984929  1.0000
  C   C23       1.0  0.7754121580776223  0.06832535502911452  0.014208891156579197  1.0000
  C   C24       1.0  0.8085903369882512  0.9888683611771544  0.9253248830386211  1.0000
  O   O1        1.0  0.7861865693725582  0.002482592831803747  0.7954615578408254  1.0000
  C   C25       1.0  0.8151698433837995  0.9282051235148553  0.6949654405323238  1.0000
  C   C26       1.0  0.8629079495418873  0.8986453216084506  0.9688809468341403  1.0000
  C   C27       1.0  0.8833261853092911  0.8886997062740033  0.09938649246880527  1.0000
  H   H9        1.0  0.9104584789722882  0.3856901677488936  0.5755765164135578  1.0000
  H   H10       1.0  0.8750958675802267  0.16546816008581255  0.3429711458479645  1.0000
  H   H11       1.0  0.873263249118683  0.748211991517775  0.343287618249255  1.0000
  H   H12       1.0  0.9286259732998959  0.9304849967137454  0.690842479838468  1.0000
  H   H13       1.0  0.9409986552969092  0.5965304111272588  0.772591243305323  1.0000
  H   H14       1.0  0.7684279941758734  0.12029747231353882  0.21147646788514218  1.0000
  H   H15       1.0  0.7333979477117099  0.13788982514547385  0.981993108302121  1.0000
  H   H16       1.0  0.7876479859812012  0.958964858371619  0.6024220656550269  1.0000
  H   H17       1.0  0.8030678836626393  0.8229834471207866  0.7193847988004384  1.0000
  H   H18       1.0  0.8766665897748256  0.9454172273925715  0.681587136459373  1.0000
  H   H19       1.0  0.88981727932898  0.8359963781468306  0.90268391605496  1.0000
  H   H20       1.0  0.9259441148703587  0.8196224271275819  0.13005142466493447  1.0000
  C   C28       1.0  0.9027514826323664  0.442993720877781  0.14359140634820977  1.0000
  C   C29       1.0  0.8286080914477798  0.3944572298186573  0.14993749110280086  1.0000
  C   C30       1.0  0.7909154190425431  0.36992096647102124  0.03601110446848054  1.0000
  C   C31       1.0  0.8283639034233146  0.3945727998654651  0.9146563565578991  1.0000
  C   C32       1.0  0.902554830033147  0.4431320667091625  0.9063572958100483  1.0000
  C   C33       1.0  0.9392918888930445  0.4670461367191916  0.021320812086095712  1.0000
  C   C34       1.0  0.7124854349641458  0.31856647012305594  0.043760557312196406  1.0000
  C   C35       1.0  0.6902823008143365  0.2203594582763635  0.14026697634781082  1.0000
  C   C36       1.0  0.6164623325401427  0.1720694710752193  0.14732769932921275  1.0000
  C   C37       1.0  0.5639617438897504  0.22095312392192468  0.05814379513760959  1.0000
  S   S1        1.0  0.4692080170536999  0.15912293304275305  0.06765632429873114  1.0000
  C   C38       1.0  0.488555169554077  0.031578618508979917  0.9591778918887073  1.0000
  C   C39       1.0  0.5853667608483298  0.3188837916711147  0.9621643105533368  1.0000
  C   C40       1.0  0.6591485412082533  0.3673522057087999  0.9547423719198451  1.0000
  H   H21       1.0  0.9312832771922204  0.4615964352924651  0.4686306169265843  1.0000
  H   H22       1.0  0.7996430445212612  0.3773027013059837  0.24359925456742415  1.0000
  H   H23       1.0  0.799931083824886  0.37416151173729845  0.8266383990567658  1.0000
  H   H24       1.0  0.9964814684360863  0.504479463013974  0.015710439669675225  1.0000
  H   H25       1.0  0.7302387738134761  0.17974881455111677  0.20917273952360624  1.0000
  H   H26       1.0  0.6002405325193717  0.0962153618962995  0.22181259909697393  1.0000
  H   H27       1.0  0.4361707519030777  0.9748517082020675  0.9472967041290244  1.0000
  H   H28       1.0  0.5317794844977497  0.9650956789096038  0.001142077490228433  1.0000
  H   H29       1.0  0.5084510353074448  0.07526107306778362  0.8622471667429119  1.0000
  H   H30       1.0  0.5448831321842169  0.35758087898078106  0.8932557543645315  1.0000
  H   H31       1.0  0.6742471736596793  0.4441320465947307  0.8804990016181974  1.0000
  Zn  Zn1       1.0  0.8203328800163907  0.441064583627397  0.5287966195504308  1.0000
  Zn  Zn2       1.0  0.9849662665437504  0.44506039139147946  0.5211517712401327  1.0000
  C   C41       1.0  0.9025896760168086  0.43793172593891927  0.7621805022691917  1.0000
  C   C42       1.0  0.9027112685142843  0.4481949315025932  0.28776793179709736  1.0000
  C   C43       1.0  0.9026813748793461  0.6802750897234033  0.5196958065657136  1.0000
  C   C44       1.0  0.9026195132538295  0.20585000592572844  0.5302527000301813  1.0000
  O   O2        1.0  0.9651752837476967  0.4514512272783932  0.3332537131826787  1.0000
  O   O3        1.0  0.9650785917698155  0.43770717592185954  0.7108920844729163  1.0000
  O   O4        1.0  0.965151797186143  0.6334024868312416  0.5150840155944549  1.0000
  O   O5        1.0  0.9651020221794526  0.25575592427890115  0.5290616872875176  1.0000
  O   O6        1.0  0.8401970681993955  0.6303690493778145  0.520886706105026  1.0000
  O   O7        1.0  0.8401238629996923  0.43467529889865264  0.716694705055861  1.0000
  O   O8        1.0  0.8402205554241875  0.4484193047132252  0.33905477232499126  1.0000
  O   O9        1.0  0.8401472938265672  0.25272399244168287  0.5348628438054328  1.0000
