data_image0
_chemical_formula_structural       NC6NC3H6C6ClH5C10H5Zn2C4O8
_chemical_formula_sum              "N2 C29 H16 Cl1 Zn2 O8"
_cell_length_a       14.934028789175542
_cell_length_b       9.276545438789551
_cell_length_c       9.275153671780862
_cell_angle_alpha    85.73418776908572
_cell_angle_beta     89.38462069014352
_cell_angle_gamma    89.37211250715544

_space_group_name_H-M_alt    "P 1"
_space_group_IT_number       1

loop_
  _space_group_symop_operation_xyz
  'x, y, z'

loop_
  _atom_site_type_symbol
  _atom_site_label
  _atom_site_symmetry_multiplicity
  _atom_site_fract_x
  _atom_site_fract_y
  _atom_site_fract_z
  _atom_site_occupancy
  N   N1        1.0  0.8432969812743887  0.5731408682364765  0.4099006892251438  1.0000
  C   C1        1.0  0.7658222994396889  0.5720411135293584  0.40922099883157426  1.0000
  C   C2        1.0  0.6694399409502195  0.5706679626747904  0.4083725316212367  1.0000
  C   C3        1.0  0.620573826700266  0.6776095941861271  0.47434468737744484  1.0000
  C   C4        1.0  0.5270734796984833  0.6765070525698085  0.4736644012724404  1.0000
  C   C5        1.0  0.48152613344098555  0.5685174552288801  0.40704582741902734  1.0000
  C   C6        1.0  0.3848564478416626  0.5708344844043691  0.4084764911172516  1.0000
  N   N2        1.0  0.30735734441029045  0.5726733400194708  0.4096122315796271  1.0000
  C   C7        1.0  0.5304019479201247  0.4600963082144589  0.3401604062392585  1.0000
  C   C8        1.0  0.4832972400639083  0.34268917162733636  0.2677333998782212  1.0000
  C   C9        1.0  0.6245217540517873  0.4623238882600882  0.34153464984746695  1.0000
  H   H1        1.0  0.6547486026314295  0.7618696814504697  0.5263252161252525  1.0000
  H   H2        1.0  0.4901750077417818  0.7601182145882074  0.5252444648414023  1.0000
  H   H3        1.0  0.4408021996819571  0.39152575373599063  0.17912877355964119  1.0000
  H   H4        1.0  0.4404406652105707  0.2800569614627797  0.3478341810028076  1.0000
  H   H5        1.0  0.5315408558888098  0.26664285943652866  0.22081407770504957  1.0000
  H   H6        1.0  0.6629018062595837  0.3798250046676436  0.290641040281856  1.0000
  C   C10       1.0  0.07803548933795951  0.14946861459166333  0.4095170732186628  1.0000
  C   C11       1.0  0.0792200426810245  0.2327782895588766  0.27642757739190693  1.0000
  C   C12       1.0  0.07223956153050692  0.1673727441282038  0.1462398576887931  1.0000
  C   C13       1.0  0.06390236888983347  0.01779228862832795  0.1471387679497016  1.0000
  C   C14       1.0  0.06411484565073784  0.9329365390974553  0.2777845494911373  1.0000
  C   C15       1.0  0.07262745264700232  0.996334539466698  0.4100083006798343  1.0000
  Cl  Cl1       1.0  0.07259169019760997  0.27357251379815817  0.9816238341984449  1.0000
  H   H7        1.0  0.1223917332700679  0.41296310937584524  0.636187335665052  1.0000
  H   H8        1.0  0.08343397757096804  0.34948730357421964  0.2735701527788179  1.0000
  H   H9        1.0  0.058110244169080595  0.9668187519853079  0.04641801771258925  1.0000
  H   H10       1.0  0.059753969313425914  0.8166736816240605  0.27513580659142733  1.0000
  H   H11       1.0  0.04112862225029201  0.6982274138336374  0.6431896595154347  1.0000
  C   C16       1.0  0.07804856993722326  0.5718151304259737  0.9863307433623509  1.0000
  C   C17       1.0  0.10077831580929919  0.6992255626729007  0.05013372953044515  1.0000
  C   C18       1.0  0.11513303761533744  0.8280016661423937  0.9652066059180276  1.0000
  C   C19       1.0  0.10684095699566648  0.8309713714399527  0.815272946723578  1.0000
  C   C20       1.0  0.08583126427966481  0.7051675217746198  0.7498514149854318  1.0000
  C   C21       1.0  0.07261437540025126  0.5739879615109895  0.8331946469040075  1.0000
  C   C22       1.0  0.13737404543747056  0.9577846004869357  0.0323766236504317  1.0000
  C   C23       1.0  0.1559964035528475  0.06644101401377833  0.0886393403198178  1.0000
  C   C24       1.0  0.1778022557648661  0.19367288893001836  0.15452856128899173  1.0000
  C   C25       1.0  0.19642101384390243  0.302308527956233  0.21078861711771668  1.0000
  H   H12       1.0  0.10529467483947891  0.6992940178921131  0.16674635639689628  1.0000
  H   H13       1.0  0.1174953085355561  0.9303739227993236  0.7486169192563277  1.0000
  H   H14       1.0  0.0819947689890834  0.7096861207479086  0.633024723892992  1.0000
  H   H15       1.0  0.08610337436708271  0.21935638406352354  0.7564831548106196  1.0000
  H   H16       1.0  0.21276980463166417  0.39769952610243403  0.2601898680090524  1.0000
  Zn  Zn1       1.0  0.9772147626176376  0.5730021070526773  0.40982576472438415  1.0000
  Zn  Zn2       1.0  0.1734395929140261  0.5728003198060724  0.40969893802299184  1.0000
  C   C26       1.0  0.0736762189751789  0.567832871834719  0.6731158806247721  1.0000
  C   C27       1.0  0.07698026679888409  0.5779713725626341  0.1464089633183112  1.0000
  C   C28       1.0  0.07368193138615403  0.8362440817896258  0.40416947401703296  1.0000
  C   C29       1.0  0.07697449799998557  0.309558430451143  0.41535544583975037  1.0000
  O   O1        1.0  0.15108807514223632  0.5799545957124922  0.20008454254704655  1.0000
  O   O2        1.0  0.14849852610343056  0.5656954079710763  0.6193436271539645  1.0000
  O   O3        1.0  0.14850212548523367  0.7824408594119143  0.4021675024962539  1.0000
  O   O4        1.0  0.1510844094300765  0.3632091543781597  0.4172605591394265  1.0000
  O   O5        1.0  0.9995698791397216  0.7825932725510003  0.4022641436436456  1.0000
  O   O6        1.0  0.9995662691839752  0.5658495533371575  0.6194401924233526  1.0000
  O   O7        1.0  0.002155829727610965  0.5801086863822242  0.2001793741721305  1.0000
  O   O8        1.0  0.002152163383941858  0.3633632350117966  0.41735549886553763  1.0000
