data_image0
_chemical_formula_structural       NC6NC3H6C6ClH5C9H8Zn2C4O8
_chemical_formula_sum              "N2 C28 H19 Cl1 Zn2 O8"
_cell_length_a       14.934028789175542
_cell_length_b       10.30297070629231
_cell_length_c       9.275155815604963
_cell_angle_alpha    86.05280978821669
_cell_angle_beta     90.33293635745233
_cell_angle_gamma    89.96080423122717

_space_group_name_H-M_alt    "P 1"
_space_group_IT_number       1

loop_
  _space_group_symop_operation_xyz
  'x, y, z'

loop_
  _atom_site_type_symbol
  _atom_site_label
  _atom_site_symmetry_multiplicity
  _atom_site_fract_x
  _atom_site_fract_y
  _atom_site_fract_z
  _atom_site_occupancy
  N   N1        1.0  0.8369952079456296  0.40774512577111266  0.40974384705423117  1.0000
  C   C1        1.0  0.7595065257229262  0.40675125807092716  0.40906511700744136  1.0000
  C   C2        1.0  0.663106688362908  0.40551031850279823  0.40821784879219414  1.0000
  C   C3        1.0  0.6156007386542661  0.5021546921450615  0.47409667700166325  1.0000
  C   C4        1.0  0.5220863673628698  0.5011583119911478  0.4734173531419917  1.0000
  C   C5        1.0  0.4751655284684237  0.40356688004544866  0.40689302135746275  1.0000
  C   C6        1.0  0.37852532586726007  0.4056608127915513  0.408321662380041  1.0000
  N   N2        1.0  0.3010496242922217  0.40732261496443073  0.4094557974378118  1.0000
  C   C7        1.0  0.5226623551147492  0.3055854483345144  0.3401022191550638  1.0000
  C   C8        1.0  0.4740643879297205  0.19948328534237939  0.26777767292615007  1.0000
  C   C9        1.0  0.616810493831636  0.30759853814459537  0.341474518737962  1.0000
  H   H1        1.0  0.6508472041430444  0.5783014984340855  0.5260036720188113  1.0000
  H   H2        1.0  0.4862513299619044  0.5767186763418835  0.5249244493632355  1.0000
  H   H3        1.0  0.43097050290008004  0.24297198983185145  0.1791868137056896  1.0000
  H   H4        1.0  0.43163126292744314  0.14352735044330167  0.3478767231807389  1.0000
  H   H5        1.0  0.521340722979696  0.13075932952506664  0.22092471913733203  1.0000
  H   H6        1.0  0.6541412612705183  0.23304335409057478  0.29065290570087066  1.0000
  C   C10       1.0  0.06902672772398773  0.026286456531551476  0.4096060272896037  1.0000
  C   C11       1.0  0.1615957981899966  0.023274391856340056  0.43730857186394156  1.0000
  C   C12       1.0  0.20752609985723014  0.9048230410668778  0.4510537343449299  1.0000
  C   C13       1.0  0.16159579721238104  0.788166422661659  0.43730850408271804  1.0000
  C   C14       1.0  0.06902673759989209  0.7887713989750789  0.40960610978673606  1.0000
  C   C15       1.0  0.02319343466461897  0.9084244181518228  0.39588984325415444  1.0000
  Cl  Cl1       1.0  0.32316692362165544  0.9025637708163708  0.48566071343611106  1.0000
  H   H7        1.0  0.03415757704074248  0.3547241606099259  0.39917015704657344  1.0000
  H   H8        1.0  0.19841276672753502  0.11260168408300932  0.4483264233583135  1.0000
  H   H9        1.0  0.19841273091523273  0.6974004904844697  0.4483263198325902  1.0000
  H   H10       1.0  0.9518013582082159  0.9098190863499397  0.3745247637618043  1.0000
  H   H11       1.0  0.034157573728808455  0.46169619604703194  0.3991704291578093  1.0000
  C   C16       1.0  0.06738610200916213  0.4042487967475985  0.9863758261120732  1.0000
  C   C17       1.0  0.9973371807909329  0.46757258709736993  0.054234182564637745  1.0000
  C   C18       1.0  0.9332858969944462  0.5395192581282027  0.9729891759654206  1.0000
  C   C19       1.0  0.9380957032188766  0.5496485737569823  0.8224043931103417  1.0000
  C   C20       1.0  0.006342704416187444  0.4856288874611818  0.7528387904051934  1.0000
  C   C21       1.0  0.07066736372668658  0.41080898272506894  0.8328362150051271  1.0000
  C   C22       1.0  0.872234403140128  0.6246300194580414  0.7388478918099698  1.0000
  C   C23       1.0  0.8170874290855287  0.6874167379092602  0.6688540812567836  1.0000
  C   C24       1.0  0.7501764924996404  0.7635978041878356  0.5839169498123624  1.0000
  H   H12       1.0  0.2752246404491101  0.2993130578946821  0.09920465303858306  1.0000
  H   H13       1.0  0.9933142798239393  0.46397741991018654  0.1710282177976472  1.0000
  H   H14       1.0  0.8804448798276732  0.5883642092888088  0.02783500930920924  1.0000
  H   H15       1.0  0.00799715932102396  0.4917322557680881  0.6356914677080454  1.0000
  H   H16       1.0  0.20934536268515913  0.3354988768038103  0.5591677395873123  1.0000
  H   H17       1.0  0.768372395773275  0.7673114092973593  0.4679066667769898  1.0000
  H   H18       1.0  0.6834864005898844  0.7174272729730024  0.5989846276063364  1.0000
  H   H19       1.0  0.7479103477888633  0.8638474603490505  0.6204230870107148  1.0000
  Zn  Zn1       1.0  0.9709113341277613  0.4076197837495388  0.4096690385791897  1.0000
  Zn  Zn2       1.0  0.16713357385226513  0.4074374135653172  0.40954238909011986  1.0000
  C   C25       1.0  0.07004515076763917  0.4043969702612089  0.6728371128892243  1.0000
  C   C26       1.0  0.0680019005015633  0.41066186425615236  0.14637445485506184  1.0000
  C   C27       1.0  0.0689998785087706  0.6446009777876063  0.4038628257186567  1.0000
  C   C28       1.0  0.06904710610130049  0.17045629758189973  0.4153488189074546  1.0000
  O   O1        1.0  0.14267388545544113  0.412739275824847  0.20002339344544365  1.0000
  O   O2        1.0  0.14430130388277962  0.40218016131659395  0.6190916353854885  1.0000
  O   O3        1.0  0.1434562352956812  0.5961479477358911  0.4018929961055211  1.0000
  O   O4        1.0  0.14351888666627743  0.21877149791753525  0.4172219247055424  1.0000
  O   O5        1.0  0.9945259543526994  0.5962856994609093  0.40198950299940495  1.0000
  O   O6        1.0  0.9953710226378796  0.4023194722530552  0.6191880654331859  1.0000
  O   O7        1.0  0.9937435975529842  0.41287852809026404  0.20011809070386555  1.0000
  O   O8        1.0  0.9945885991790334  0.21891074173455574  0.41731673001947134  1.0000
