data_image0
_chemical_formula_structural       NC5N2C2NH4C6ClH5C8H10Zn2C4O8
_chemical_formula_sum              "N4 C25 H19 Cl1 Zn2 O8"
_cell_length_a       13.87973921873968
_cell_length_b       9.276545438789551
_cell_length_c       9.275657083861812
_cell_angle_alpha    85.88220868425292
_cell_angle_beta     89.50283704034044
_cell_angle_gamma    89.40960813042831

_space_group_name_H-M_alt    "P 1"
_space_group_IT_number       1

loop_
  _space_group_symop_operation_xyz
  'x, y, z'

loop_
  _atom_site_type_symbol
  _atom_site_label
  _atom_site_symmetry_multiplicity
  _atom_site_fract_x
  _atom_site_fract_y
  _atom_site_fract_z
  _atom_site_occupancy
  N   N1        1.0  0.905637335552306  0.5698985133555636  0.4108345445104049  1.0000
  C   C1        1.0  0.8326896009559046  0.5941402300747227  0.354208445177407  1.0000
  C   C2        1.0  0.7420912068404297  0.6242508093628851  0.283872710456516  1.0000
  C   C3        1.0  0.6554359152264397  0.5939344450100721  0.35705561140047837  1.0000
  C   C4        1.0  0.5692118059000112  0.6242507449481449  0.2838727503230245  1.0000
  C   C5        1.0  0.47821248081830614  0.5941400848638148  0.3542083418620494  1.0000
  N   N2        1.0  0.4049419046388767  0.5698984886792609  0.41083453350217836  1.0000
  N   N3        1.0  0.5712556318015274  0.6821713749125722  0.1451458870136555  1.0000
  C   C6        1.0  0.6562495575196955  0.7124343040129866  0.07600637581948733  1.0000
  C   C7        1.0  0.656729777042397  0.77215319192332  0.9222869576207762  1.0000
  N   N4        1.0  0.7408585307217718  0.68217132831049  0.14514589773761613  1.0000
  H   H1        1.0  0.6551131665354294  0.5475887220474744  0.4677620917582563  1.0000
  H   H2        1.0  0.7213947734728583  0.8399008080789783  0.8999299824820182  1.0000
  H   H3        1.0  0.657771638154897  0.6818518989736231  0.8500109412696225  1.0000
  H   H4        1.0  0.5913899718357503  0.8398987407022768  0.8999292152274947  1.0000
  C   C8        1.0  0.15820335829755305  0.14646212799729152  0.4105969124291142  1.0000
  C   C9        1.0  0.15933505349295451  0.22943039716593797  0.27754244954493634  1.0000
  C   C10       1.0  0.15168470993108252  0.16368267705235207  0.1473839406073163  1.0000
  C   C11       1.0  0.14271528861522054  0.014096123148908065  0.14827743783103697  1.0000
  C   C12       1.0  0.143084102773962  0.9295768984005374  0.27888968439276507  1.0000
  C   C13       1.0  0.15238511904654017  0.9933238605816762  0.4110846523208438  1.0000
  Cl  Cl1       1.0  0.15188692730449938  0.2694590449162011  0.9828105570175052  1.0000
  H   H5        1.0  0.2061716185831175  0.41058487720030207  0.6372363290996359  1.0000
  H   H6        1.0  0.16386596202554846  0.3461363074983344  0.27468838015399166  1.0000
  H   H7        1.0  0.13637517676487354  0.9628574652261613  0.047579043347618866  1.0000
  H   H8        1.0  0.13838918403493672  0.8133028222817842  0.27623891387287847  1.0000
  H   H9        1.0  0.11874424910119916  0.6957852110622652  0.6441863451497296  1.0000
  C   C14       1.0  0.15776329742558604  0.567719284241877  0.9875196445614285  1.0000
  C   C15       1.0  0.20691575216524843  0.677637556914179  0.05252332778115744  1.0000
  C   C16       1.0  0.24751860144666546  0.7937273423809008  0.9688515989186048  1.0000
  C   C17       1.0  0.24040566376440786  0.7989151140619783  0.8182157000829968  1.0000
  C   C18       1.0  0.1933296909054962  0.6896424341242953  0.7517597848289612  1.0000
  C   C19       1.0  0.1528251523400519  0.57206664790695  0.834161934749889  1.0000
  C   C20       1.0  0.3010861303468439  0.909357860061635  0.04011808992125633  1.0000
  C   C21       1.0  0.40719511394828584  0.868211927681586  0.05793900724929557  1.0000
  H   H10       1.0  0.11609716227268427  0.33768642386708025  0.2852142196412162  1.0000
  H   H11       1.0  0.21191556075537266  0.6749642491072922  0.16924681411276346  1.0000
  H   H12       1.0  0.2722808018282208  0.8870456704407694  0.7518802237009546  1.0000
  H   H13       1.0  0.19081177967000038  0.6952617486149817  0.6347887007269803  1.0000
  H   H14       1.0  0.040211597676444125  0.40588229936294046  0.5662318332533354  1.0000
  H   H15       1.0  0.2950905761005391  0.01403814238565771  0.9743380673970705  1.0000
  H   H16       1.0  0.26892927708444825  0.9256885364040508  0.14800398960285022  1.0000
  H   H17       1.0  0.4147585568652683  0.7656344478814618  0.12662811741060367  1.0000
  H   H18       1.0  0.441191282679763  0.8549410932151512  0.9507565514539814  1.0000
  H   H19       1.0  0.44534527064747476  0.9547697718522652  0.11055546480813416  1.0000
  Zn  Zn1       1.0  0.0497258276531014  0.5698946849896716  0.41084286641498835  1.0000
  Zn  Zn2       1.0  0.26085341039328025  0.5698905659980957  0.4108380220205013  1.0000
  C   C22       1.0  0.15379588634807193  0.5655005467728218  0.674125082010818  1.0000
  C   C23       1.0  0.156785643879936  0.574286524266474  0.14755594890789459  1.0000
  C   C24       1.0  0.15351341753111347  0.8332194364967032  0.4052479856427784  1.0000
  C   C25       1.0  0.1570680521078851  0.30656590252453  0.41643312113502695  1.0000
  O   O1        1.0  0.23657939498786426  0.5764826961658045  0.2012637525508394  1.0000
  O   O2        1.0  0.23424309527412546  0.5633001587311108  0.6204131859873618  1.0000
  O   O3        1.0  0.23401390930902788  0.7794865556684526  0.40329302920837296  1.0000
  O   O4        1.0  0.23680850946897758  0.36029630898985593  0.4183838012511236  1.0000
  O   O5        1.0  0.07377065652995518  0.7794889420008478  0.40329708717843715  1.0000
  O   O6        1.0  0.07399983103661345  0.5633042770845057  0.6204171680924051  1.0000
  O   O7        1.0  0.07633614126852062  0.5764867553716837  0.201266001465483  1.0000
  O   O8        1.0  0.07656525518616973  0.3603003584372788  0.4183861582385442  1.0000
