data_image0
_chemical_formula_structural       NC12NC2H8C7OC3OC4H12C7OC4NC3H9Zn2C4O8
_chemical_formula_sum              "N3 C46 H29 O11 Zn2"
_cell_length_a       17.80743265337812
_cell_length_b       10.299371110280156
_cell_length_c       10.299375074045736
_cell_angle_alpha    85.55741756906849
_cell_angle_beta     91.52722468557046
_cell_angle_gamma    89.44795274300792

_space_group_name_H-M_alt    "P 1"
_space_group_IT_number       1

loop_
  _space_group_symop_operation_xyz
  'x, y, z'

loop_
  _atom_site_type_symbol
  _atom_site_label
  _atom_site_symmetry_multiplicity
  _atom_site_fract_x
  _atom_site_fract_y
  _atom_site_fract_z
  _atom_site_occupancy
  N   N1        1.0  0.7076921439353366  0.4071710305102627  0.6017788200278684  1.0000
  C   C1        1.0  0.6568803546545112  0.436753597976462  0.5330883850724641  1.0000
  C   C2        1.0  0.5936654732039813  0.47355216331486094  0.4476461314883605  1.0000
  C   C3        1.0  0.6054068810274237  0.527616651755819  0.32104152364801175  1.0000
  C   C4        1.0  0.544099011009614  0.5629107961164223  0.2379947993183276  1.0000
  C   C5        1.0  0.47089550444808986  0.5444041447383368  0.2808928533643931  1.0000
  C   C6        1.0  0.45817727963385557  0.49022069176781047  0.407965575758118  1.0000
  C   C7        1.0  0.5203424671630449  0.4549298070022014  0.4909957890618255  1.0000
  C   C8        1.0  0.3804052481546772  0.4705989245876682  0.4537236178374751  1.0000
  C   C9        1.0  0.361615592974506  0.49774180528899387  0.5807810069343975  1.0000
  C   C10       1.0  0.28838214352888897  0.47927671348480233  0.6237196394744531  1.0000
  C   C11       1.0  0.23299529889880863  0.43341418078870925  0.540438786807185  1.0000
  C   C12       1.0  0.1576250925115109  0.41439578070698263  0.5847781944424489  1.0000
  N   N2        1.0  0.0970327839721034  0.399106266142442  0.6204240279159962  1.0000
  C   C13       1.0  0.251093408136044  0.4061022007679129  0.4139243239624426  1.0000
  C   C14       1.0  0.3242740188855145  0.42458216577934876  0.3707298022920287  1.0000
  H   H1        1.0  0.6618764247954128  0.5424522778019563  0.28660869952223944  1.0000
  H   H2        1.0  0.5533080692042729  0.6050415312602473  0.14022757501186134  1.0000
  H   H3        1.0  0.4242637013357807  0.5740622567099123  0.21531047891662605  1.0000
  H   H4        1.0  0.5118316229666786  0.41141379990143845  0.5886380841083638  1.0000
  H   H5        1.0  0.4032930370928364  0.5348987827081424  0.6463688610836466  1.0000
  H   H6        1.0  0.2749360376051699  0.5010888017251054  0.7217388747933408  1.0000
  H   H7        1.0  0.20869922283280903  0.3702123694772212  0.34874987524971557  1.0000
  H   H8        1.0  0.3371915182232866  0.4012344197634718  0.27301337885264415  1.0000
  C   C15       1.0  0.9023154184601136  0.021768278573901952  0.6109843438202616  1.0000
  C   C16       1.0  0.8936687184841782  0.031288257018108334  0.4745807689357264  1.0000
  C   C17       1.0  0.888458948795212  0.918920463773343  0.40591013539277077  1.0000
  C   C18       1.0  0.8937059871467952  0.7960194819431101  0.4748936497068328  1.0000
  C   C19       1.0  0.9024167058440901  0.7844989068243936  0.6112300544048346  1.0000
  C   C20       1.0  0.9064743238687559  0.8979758500582955  0.6785147665337719  1.0000
  C   C21       1.0  0.880112114057279  0.9288286981009855  0.2617587550122913  1.0000
  O   O1        1.0  0.9109121595294772  0.843177157075938  0.19920873376080975  1.0000
  C   C22       1.0  0.8368158208419819  0.035822643929148246  0.18857220470335467  1.0000
  C   C23       1.0  0.8578233042125871  0.08059760952400574  0.06243157787303179  1.0000
  C   C24       1.0  0.8171930809085283  0.18047982584066255  0.991102797769465  1.0000
  O   O2        1.0  0.8411870140426126  0.22183987619788614  0.8661499335340768  1.0000
  C   C25       1.0  0.8053822897166493  0.3220987085856468  0.7829976639691423  1.0000
  C   C26       1.0  0.7541691702434478  0.23562105371800432  0.046574615972274414  1.0000
  C   C27       1.0  0.7323905021812903  0.19057282170164827  0.17116120360300013  1.0000
  C   C28       1.0  0.7731540955459528  0.09096943981866157  0.24174416881597363  1.0000
  H   H9        1.0  0.919779082485004  0.21111887668976578  0.8682218939973305  1.0000
  H   H10       1.0  0.8918121158842756  0.12628205435457107  0.42146043124551213  1.0000
  H   H11       1.0  0.8902554617034603  0.7092513913927454  0.42200425872914027  1.0000
  H   H12       1.0  0.9131407795214688  0.8898328329849308  0.7836719513236865  1.0000
  H   H13       1.0  0.9063878703346265  0.45261302773030077  0.6635087750941256  1.0000
  H   H14       1.0  0.9063999677881788  0.038713255046702415  0.019383564467793764  1.0000
  H   H15       1.0  0.8360346505415794  0.3345919562079023  0.690591664808085  1.0000
  H   H16       1.0  0.8064859012390094  0.41551400620546963  0.8300710905251864  1.0000
  H   H17       1.0  0.7465087422586526  0.29509266965694064  0.7604134073964383  1.0000
  H   H18       1.0  0.7215406670186273  0.3128162104580941  0.9941219572242704  1.0000
  H   H19       1.0  0.6835299896365361  0.23262494218380847  0.212973852155681  1.0000
  H   H20       1.0  0.7544067501611252  0.05617151556549737  0.3372281604437831  1.0000
  C   C29       1.0  0.9023916144731478  0.40327541385378235  0.22972169781298102  1.0000
  C   C30       1.0  0.9602312117354285  0.4951886516731445  0.22407748033840139  1.0000
  C   C31       1.0  0.9888204076661689  0.5426394623376865  0.10394566003151429  1.0000
  C   C32       1.0  0.9601095455598289  0.49495343520284796  0.9888462625796262  1.0000
  C   C33       1.0  0.9023404776031306  0.40299178756752035  0.9924927150900827  1.0000
  C   C34       1.0  0.8736811188000182  0.3579389982527745  0.11341820615653764  1.0000
  C   C35       1.0  0.05043433438126743  0.6386824647676721  0.09794947568569334  1.0000
  O   O3        1.0  0.09844240547363836  0.6330029948597942  0.010612122940387941  1.0000
  C   C36       1.0  0.057574945320960406  0.741180478922034  0.1909503439547227  1.0000
  C   C37       1.0  0.1290216129603592  0.7862617562159621  0.22614311915068466  1.0000
  C   C38       1.0  0.1363145071949725  0.8841229126235558  0.3127400510017931  1.0000
  C   C39       1.0  0.20968476659677937  0.9289550158178569  0.349055988128944  1.0000
  N   N3        1.0  0.26866618859471125  0.9649893589368006  0.37824614707972826  1.0000
  C   C40       1.0  0.0721678511972299  0.9383029300870335  0.36387824519365  1.0000
  C   C41       1.0  0.0009717193246028256  0.8952281218355116  0.32819714987068394  1.0000
  C   C42       1.0  0.9935294497029702  0.7976400452278309  0.24186870860042325  1.0000
  H   H21       1.0  0.7940313720260966  0.22834436281851375  0.4478452481454978  1.0000
  H   H22       1.0  0.9836899344155844  0.5289041845057489  0.313394946657849  1.0000
  H   H23       1.0  0.9824760024944794  0.5307261489985846  0.8961836530528139  1.0000
  H   H24       1.0  0.829091265104315  0.2870799333506617  0.1169656783493234  1.0000
  H   H25       1.0  0.8805813212413651  0.36685560334661504  0.6665190226864524  1.0000
  H   H26       1.0  0.17895993499401852  0.7445070517707755  0.18714109880204216  1.0000
  H   H27       1.0  0.07718946543852945  0.014077223232390234  0.43082187805526756  1.0000
  H   H28       1.0  0.9514078105907297  0.9379537727374573  0.3670685908909788  1.0000
  H   H29       1.0  0.9377244327005848  0.7674023096498787  0.21388302926954283  1.0000
  Zn  Zn1       1.0  0.8200474448057864  0.4048402436452205  0.6071669104066576  1.0000
  Zn  Zn2       1.0  0.9846774784912112  0.40142645557039697  0.6150465276363093  1.0000
  C   C43       1.0  0.9023477993068094  0.3978717145490768  0.848310885949315  1.0000
  C   C44       1.0  0.9023789219540806  0.40839658596621303  0.3739027661386556  1.0000
  C   C45       1.0  0.902394033937088  0.6403285781788177  0.6060080131112675  1.0000
  C   C46       1.0  0.9023326309352524  0.16593816316736354  0.6162057050269711  1.0000
  O   O4        1.0  0.9648509012833901  0.40881411756434227  0.4252815216276933  1.0000
  O   O5        1.0  0.9648262061600182  0.39486221720480374  0.8029122034377747  1.0000
  O   O6        1.0  0.9648626989085972  0.5906492178333294  0.6072508794121035  1.0000
  O   O7        1.0  0.9648143523654914  0.21302712742717997  0.620942745588677  1.0000
  O   O8        1.0  0.8399105147513558  0.5932395729548128  0.601270689758532  1.0000
  O   O9        1.0  0.8398740222111768  0.39745413266177043  0.7969319450381782  1.0000
  O   O10       1.0  0.839898717483137  0.4114059883448095  0.4192997017473534  1.0000
  O   O11       1.0  0.8398621685544081  0.21561898888265874  0.6149610230772673  1.0000
