data_image0
_chemical_formula_structural       NC8NH4C7NH5C8H8Zn2C4O8
_chemical_formula_sum              "N3 C27 H17 Zn2 O8"
_cell_length_a       11.048855714531884
_cell_length_b       9.275154477615127
_cell_length_c       9.275657083861812
_cell_angle_alpha    86.07548322511155
_cell_angle_beta     89.50283887802443
_cell_angle_gamma    89.43371274831733

_space_group_name_H-M_alt    "P 1"
_space_group_IT_number       1

loop_
  _space_group_symop_operation_xyz
  'x, y, z'

loop_
  _atom_site_type_symbol
  _atom_site_label
  _atom_site_symmetry_multiplicity
  _atom_site_fract_x
  _atom_site_fract_y
  _atom_site_fract_z
  _atom_site_occupancy
  N   N1        1.0  0.13819418259168414  0.5697558603334931  0.4161382696347786  1.0000
  C   C1        1.0  0.0847880083872983  0.5113824571295187  0.33091085262335795  1.0000
  C   C2        1.0  0.018153588502075838  0.438549090396158  0.22457109273057974  1.0000
  C   C3        1.0  0.8904368339563199  0.4385489003800976  0.2245711937094692  1.0000
  C   C4        1.0  0.8290295644933365  0.3665498683505677  0.11944988858194706  1.0000
  C   C5        1.0  0.8938075424621567  0.29512034871254733  0.01516001258494493  1.0000
  C   C6        1.0  0.02021375563234718  0.2951202387253249  0.01516003481484285  1.0000
  C   C7        1.0  0.0822871026936367  0.36654996662550143  0.11944986125296465  1.0000
  C   C8        1.0  0.8210445867815582  0.5113825319810925  0.33091083978652375  1.0000
  N   N2        1.0  0.7654280681645792  0.5697559031446524  0.41613829859871276  1.0000
  H   H1        1.0  0.7309843978104442  0.36564827001182043  0.1181328752022406  1.0000
  H   H2        1.0  0.8459585938718155  0.23971794848206485  0.9342709726051491  1.0000
  H   H3        1.0  0.07016063419247365  0.23971805788097986  0.9342709724303053  1.0000
  H   H4        1.0  0.18036640796500758  0.3656482223873052  0.11813315015891802  1.0000
  C   C9        1.0  0.4553314708064267  0.14635800372873442  0.41447012575338027  1.0000
  C   C10       1.0  0.42304134662761  0.22888450360267412  0.2873675443148942  1.0000
  C   C11       1.0  0.3808574414505459  0.16222806196815887  0.1669977756321379  1.0000
  C   C12       1.0  0.37026494948622407  0.012134826860027209  0.17231297334926365  1.0000
  C   C13       1.0  0.40369803480319155  0.9283857768342733  0.29651835274038985  1.0000
  C   C14       1.0  0.44830240272662225  0.9931427153539587  0.41781890292073176  1.0000
  C   C15       1.0  0.3469683463916334  0.2483285087847309  0.03836327659479122  1.0000
  N   N3        1.0  0.3197309342194583  0.31753753115782346  0.9349740887994137  1.0000
  H   H5        1.0  0.47620668298085  0.22484584652994893  0.768321758485102  1.0000
  H   H6        1.0  0.42801544273323866  0.3458219430086431  0.28309024390150417  1.0000
  H   H7        1.0  0.33719907246962477  0.9595332664891691  0.07980124626798801  1.0000
  H   H8        1.0  0.39734359005200504  0.8119175293012426  0.29639148698138024  1.0000
  H   H9        1.0  0.4675027854685788  0.6955897678736641  0.6549095622592074  1.0000
  C   C16       1.0  0.454917898576253  0.5675768557992866  0.9928160177517641  1.0000
  C   C17       1.0  0.5167002851010296  0.6774851389598116  0.05819104688052934  1.0000
  C   C18       1.0  0.5677445681708332  0.7935643728544883  0.9749115131927115  1.0000
  C   C19       1.0  0.5588109032885785  0.7987516720756249  0.8242931402461959  1.0000
  C   C20       1.0  0.4996372380122715  0.689488923164818  0.7574680602149657  1.0000
  C   C21       1.0  0.4487159631762957  0.5719238236491009  0.8394729947141824  1.0000
  C   C22       1.0  0.6350751255300271  0.9091843820824155  0.04656864832583896  1.0000
  C   C23       1.0  0.7683572312046363  0.868042202146962  0.06425056406212648  1.0000
  H   H10       1.0  0.5229802364542169  0.6748120747558684  0.17490550201023392  1.0000
  H   H11       1.0  0.598882062467372  0.8868742182481668  0.758255402237964  1.0000
  H   H12       1.0  0.3071941879751772  0.40575457413466753  0.5709814574492946  1.0000
  H   H13       1.0  0.6275780200102401  0.013855145395095912  0.9811422736225146  1.0000
  H   H14       1.0  0.5946845992259814  0.9255135701363988  0.15450971765855814  1.0000
  H   H15       1.0  0.7778246371650848  0.7654740503186028  0.13259313049830102  1.0000
  H   H16       1.0  0.8110593447195236  0.8547725779360276  0.9570232759495014  1.0000
  H   H17       1.0  0.8163106436121197  0.9545921797728891  0.11715944705715799  1.0000
  Zn  Zn1       1.0  0.31920031848600705  0.5697520474181463  0.41614658448898867  1.0000
  Zn  Zn2       1.0  0.5844219711407199  0.5697479509301524  0.41614173479954397  1.0000
  C   C24       1.0  0.4499332435743458  0.5653583196600542  0.6794139593370407  1.0000
  C   C25       1.0  0.45369192612709996  0.5741434985745191  0.1528745085836043  1.0000
  C   C26       1.0  0.4496668915852178  0.8330528661747685  0.41144131473568957  1.0000
  C   C27       1.0  0.45395820143091337  0.3064472201992254  0.42084722319265905  1.0000
  O   O1        1.0  0.5539307657557686  0.5763394791435061  0.20658973495200605  1.0000
  O   O2        1.0  0.5509915135679289  0.563158140127491  0.6256946328872228  1.0000
  O   O3        1.0  0.5507750631747791  0.7793248796147525  0.4093048323742179  1.0000
  O   O4        1.0  0.5541471263528857  0.3601727494167426  0.4229794274192802  1.0000
  O   O5        1.0  0.3494750727667504  0.7793272489344849  0.40930889186333075  1.0000
  O   O6        1.0  0.3496915093381237  0.563162241310732  0.6256986223627106  1.0000
  O   O7        1.0  0.35263077471949544  0.5763435211846117  0.20659199103727333  1.0000
  O   O8        1.0  0.35284713460555445  0.3601767817002792  0.4229817915443572  1.0000
