data_image0
_chemical_formula_structural       NC8NH4C6NH7C6NCH7Zn2C4O8
_chemical_formula_sum              "N4 C25 H18 Zn2 O8"
_cell_length_a       13.859017124695912
_cell_length_b       9.274771166103582
_cell_length_c       9.273390368590327
_cell_angle_alpha    86.06293122453995
_cell_angle_beta     89.99082906418701
_cell_angle_gamma    90.59707951677755

_space_group_name_H-M_alt    "P 1"
_space_group_IT_number       1

loop_
  _space_group_symop_operation_xyz
  'x, y, z'

loop_
  _atom_site_type_symbol
  _atom_site_label
  _atom_site_symmetry_multiplicity
  _atom_site_fract_x
  _atom_site_fract_y
  _atom_site_fract_z
  _atom_site_occupancy
  N   N1        1.0  0.9196512818463753  0.5617341160289668  0.4073349894567624  1.0000
  C   C1        1.0  0.8471391701956676  0.5382731498788131  0.3512176695362139  1.0000
  C   C2        1.0  0.7569384223145625  0.5090911305465673  0.28141493504729853  1.0000
  C   C3        1.0  0.6695143451313735  0.5375406291720302  0.34946381765350165  1.0000
  C   C4        1.0  0.5817081110244773  0.5090923504821678  0.2814143535475764  1.0000
  C   C5        1.0  0.5815083114161209  0.4521868495722081  0.14529511688520214  1.0000
  C   C6        1.0  0.6687505628724812  0.42384669929936325  0.07750817293718469  1.0000
  C   C7        1.0  0.7563736538636168  0.4521845121226025  0.1452962994477813  1.0000
  C   C8        1.0  0.49189933795695495  0.5382740713425697  0.35121716986063206  1.0000
  N   N2        1.0  0.41970240969211  0.561734436414038  0.4073347728729211  1.0000
  H   H1        1.0  0.669810203706704  0.5815876882167644  0.4548233664352978  1.0000
  H   H2        1.0  0.5140624756360335  0.42979599419458614  0.09173319333285578  1.0000
  H   H3        1.0  0.6684553747280372  0.37988959405778255  0.9723619936627368  1.0000
  H   H4        1.0  0.8235186611429053  0.4297915661761016  0.09173537889394945  1.0000
  C   C9        1.0  0.16671911958965224  0.13814608636811873  0.4081204778258738  1.0000
  C   C10       1.0  0.14451987319349358  0.22008501774502154  0.2792338598178077  1.0000
  C   C11       1.0  0.13132946853075006  0.15365712750088156  0.149529508473784  1.0000
  C   C12       1.0  0.14038892464529296  0.003902848342279385  0.14777231434579474  1.0000
  C   C13       1.0  0.16080398057716483  0.920625670513871  0.2748884076397917  1.0000
  C   C14       1.0  0.1726437396202627  0.9853115639408695  0.4065618191495062  1.0000
  N   N3        1.0  0.10972308955509424  0.23868050232881077  0.019226351520557513  1.0000
  H   H5        1.0  0.27529944586131894  0.22115881126559558  0.7235456628293957  1.0000
  H   H6        1.0  0.1396547938457544  0.3366718384237324  0.27868023063034375  1.0000
  H   H7        1.0  0.13069691736983602  0.9513550058080432  0.047977901711167205  1.0000
  H   H8        1.0  0.16505638672610834  0.804417788870602  0.27076068754526506  1.0000
  H   H9        1.0  0.24186610452785806  0.6905260735219829  0.6211626286415723  1.0000
  H   H10       1.0  0.10307511503959765  0.35075390136229445  0.019179542090859366  1.0000
  H   H11       1.0  0.10012184396540592  0.19017505840993018  0.9218021749783949  1.0000
  C   C15       1.0  0.16969468673242402  0.557230652917309  0.9841036373542478  1.0000
  C   C16       1.0  0.25829498110446103  0.5543646457019957  0.057711364112337016  1.0000
  C   C17       1.0  0.3454433128797305  0.5649077262200011  0.9822771460036991  1.0000
  C   C18       1.0  0.3462064431233618  0.5787075917808291  0.8306237668125832  1.0000
  C   C19       1.0  0.25817725454988105  0.5791409794874007  0.7562109136203605  1.0000
  C   C20       1.0  0.16966818113362783  0.5662269862816838  0.8305786195781839  1.0000
  N   N4        1.0  0.4349972067936645  0.5909115216232448  0.7498130092216035  1.0000
  C   C21       1.0  0.5302658783788496  0.5910815962798226  0.8168008594447369  1.0000
  H   H12       1.0  0.01691391864317193  0.48794161054050994  0.27007117280150816  1.0000
  H   H13       1.0  0.41191445532269655  0.5635804642217043  0.04340056826976003  1.0000
  H   H14       1.0  0.944019613621624  0.45416326775190297  0.7352938027173503  1.0000
  H   H15       1.0  0.4319333510817147  0.6004712900826771  0.6369195879672231  1.0000
  H   H16       1.0  0.5371750845779395  0.6836133434986655  0.8860991428795191  1.0000
  H   H17       1.0  0.5413144190971548  0.4879725800390025  0.8825445040115287  1.0000
  H   H18       1.0  0.5868877852185719  0.6019863863504764  0.7318902084090583  1.0000
  Zn  Zn1       1.0  0.06395521145863903  0.5617304458071299  0.4073432614862477  1.0000
  Zn  Zn2       1.0  0.2753983897838057  0.5617264655422778  0.4073383435647011  1.0000
  C   C22       1.0  0.16963083112080968  0.5587800352626373  0.6705873028794991  1.0000
  C   C23       1.0  0.16972509179836281  0.5646786975692901  0.14409444022946238  1.0000
  C   C24       1.0  0.17151906202613887  0.8251181846909595  0.40111308616704944  1.0000
  C   C25       1.0  0.16783677661995755  0.29833881592349853  0.41356873697217233  1.0000
  O   O1        1.0  0.24997683623574574  0.5671705259375737  0.19778696046117106  1.0000
  O   O2        1.0  0.24985955897297418  0.5562840933735729  0.616890637172546  1.0000
  O   O3        1.0  0.251383247567063  0.7713555332903375  0.3992882978680625  1.0000
  O   O4        1.0  0.24845307556597374  0.35209909519235016  0.4153891916834034  1.0000
  O   O5        1.0  0.0909004535213025  0.771357816159906  0.39929241336163934  1.0000
  O   O6        1.0  0.08937677704512127  0.5562881084634587  0.6168946726299566  1.0000
  O   O7        1.0  0.08949405407484057  0.5671744723451029  0.19778926319202547  1.0000
  O   O8        1.0  0.08797029332558415  0.35210303243118624  0.4153916024906034  1.0000
