data_image0
_chemical_formula_structural       NC9NC5H8C13OH12C12ClH9Zn2C4O8
_chemical_formula_sum              "N2 C43 H29 O9 Cl1 Zn2"
_cell_length_a       17.807436237873137
_cell_length_b       10.299150109392551
_cell_length_c       10.299771906710086
_cell_angle_alpha    85.52403423523229
_cell_angle_beta     89.40099058273775
_cell_angle_gamma    88.37145022261349

_space_group_name_H-M_alt    "P 1"
_space_group_IT_number       1

loop_
  _space_group_symop_operation_xyz
  'x, y, z'

loop_
  _atom_site_type_symbol
  _atom_site_label
  _atom_site_symmetry_multiplicity
  _atom_site_fract_x
  _atom_site_fract_y
  _atom_site_fract_z
  _atom_site_occupancy
  N   N1        1.0  0.7070188048322821  0.38829520111009375  0.5566285320462911  1.0000
  C   C1        1.0  0.6464367892112891  0.3531055765567426  0.5456172714644294  1.0000
  C   C2        1.0  0.5710794203025487  0.3093335589014883  0.5319204588709523  1.0000
  C   C3        1.0  0.5529914962202999  0.23794263813056424  0.42694321705625765  1.0000
  C   C4        1.0  0.4798233922521721  0.1953318999824769  0.4135619062490923  1.0000
  C   C5        1.0  0.4236945610204086  0.2237345291876627  0.5051255214846799  1.0000
  C   C6        1.0  0.34593571421014047  0.17856519170318766  0.4909866865736363  1.0000
  C   C7        1.0  0.2837465809871587  0.2603210275018839  0.5168961932590963  1.0000
  C   C8        1.0  0.2104362111769695  0.21750722946591905  0.5035286366793155  1.0000
  C   C9        1.0  0.1471965218365916  0.30195454830060253  0.5298010777554998  1.0000
  N   N2        1.0  0.09636480091817937  0.36984434992439535  0.5509233959957924  1.0000
  C   C10       1.0  0.1987314753315523  0.09267960035907062  0.46422631650837975  1.0000
  C   C11       1.0  0.2600632405255666  0.010909913476658368  0.4383084251031206  1.0000
  C   C12       1.0  0.3332542328108039  0.05332919448085071  0.45147358511928215  1.0000
  C   C13       1.0  0.44247381811401154  0.29561979626655854  0.6103218151955301  1.0000
  C   C14       1.0  0.5156948143099034  0.33804016838012596  0.6235475436161859  1.0000
  H   H1        1.0  0.5953839145549028  0.2154762079475827  0.35523847948366316  1.0000
  H   H2        1.0  0.46691309288200183  0.14166892861196434  0.330660688064355  1.0000
  H   H3        1.0  0.2922286179327687  0.3577860933961947  0.5457381608426202  1.0000
  H   H4        1.0  0.1422717906562639  0.05864363661776095  0.4536436804476322  1.0000
  H   H5        1.0  0.2508825945917307  0.9142653665396813  0.40826574960556367  1.0000
  H   H6        1.0  0.3799055136367295  0.9875839158959019  0.43244884270168266  1.0000
  H   H7        1.0  0.4007985009412645  0.31754675505210406  0.6833212466671945  1.0000
  H   H8        1.0  0.5291331392386269  0.39292413399989723  0.7054066943384198  1.0000
  C   C15       1.0  0.9017662119466401  0.9976665773359554  0.5539190211497198  1.0000
  C   C16       1.0  0.9003952036549727  0.9858875989646154  0.6907494704595929  1.0000
  C   C17       1.0  0.8996346799855186  0.8627839825260868  0.7598626771149546  1.0000
  C   C18       1.0  0.9002503235511086  0.7506392256081093  0.6903881993849519  1.0000
  C   C19       1.0  0.9016245725316626  0.7604626191036327  0.5536441013271911  1.0000
  C   C20       1.0  0.9023765519693405  0.8844367604570029  0.486208603852676  1.0000
  C   C21       1.0  0.8981777499082255  0.8513052463708427  0.9045237520172595  1.0000
  C   C22       1.0  0.8519884302306852  0.7605941106121761  0.9732217923753346  1.0000
  C   C23       1.0  0.8505925706847117  0.7498752201729593  0.10934808399381903  1.0000
  C   C24       1.0  0.8958535468315316  0.828685956933898  0.17922997586502665  1.0000
  C   C25       1.0  0.941324171807575  0.9203845989105548  0.1111850364236211  1.0000
  C   C26       1.0  0.9427374703280721  0.9312784600450217  0.9750582005589529  1.0000
  C   C27       1.0  0.8927739319738148  0.8195969783161607  0.3253609783575727  1.0000
  O   O1        1.0  0.836626669886855  0.9054214675405949  0.3664242535164368  1.0000
  H   H9        1.0  0.9038659709210451  0.22721591686706444  0.29565228793380216  1.0000
  H   H10       1.0  0.8988741660009968  0.07271632011791775  0.7437801926624399  1.0000
  H   H11       1.0  0.9006839113925409  0.6554793948880662  0.7432152182333693  1.0000
  H   H12       1.0  0.9034344255056728  0.8927301471084264  0.38073382046286697  1.0000
  H   H13       1.0  0.9021025912618467  0.4367679690373554  0.5010482662734308  1.0000
  H   H14       1.0  0.8160553287379454  0.6993049402041329  0.921639767807658  1.0000
  H   H15       1.0  0.8140518159661435  0.6802611661448209  0.16025894214325287  1.0000
  H   H16       1.0  0.975873514191091  0.9832920767626838  0.16353354098311634  1.0000
  H   H17       1.0  0.9793034721014616  0.001336493293188517  0.9249536135504315  1.0000
  H   H18       1.0  0.9480387404188322  0.844794385792357  0.3647210794415223  1.0000
  H   H19       1.0  0.8805685926178357  0.7181420176316919  0.36335230341457003  1.0000
  H   H20       1.0  0.8369139850929983  0.8956997753801839  0.46304646353040657  1.0000
  C   C28       1.0  0.9016596148111881  0.3791726433475771  0.17241276773574543  1.0000
  C   C29       1.0  0.9697892024708679  0.44483266396811505  0.16506175447904248  1.0000
  C   C30       1.0  0.004347673994604445  0.4779932245298762  0.044206101559905564  1.0000
  C   C31       1.0  0.9698617129306975  0.44461404780369507  0.9297909938534067  1.0000
  C   C32       1.0  0.901731158862528  0.37895663308188504  0.9351503643805201  1.0000
  C   C33       1.0  0.8680119837943298  0.3466027656642059  0.056923539345997476  1.0000
  C   C34       1.0  0.07642359600158395  0.5474546316877222  0.0374830831472488  1.0000
  C   C35       1.0  0.08827803867298177  0.6499064908777026  0.11707407101320477  1.0000
  C   C36       1.0  0.15615145529898997  0.7151829998951473  0.11055837903668687  1.0000
  C   C37       1.0  0.21294054685564578  0.6790182329619647  0.024750337085164498  1.0000
  C   C38       1.0  0.2018031550879833  0.5773919310308888  0.9452773252808035  1.0000
  C   C39       1.0  0.13399711407312326  0.5119118907612561  0.9514164715257105  1.0000
  Cl  Cl1       1.0  0.298052940897227  0.7610421617548275  0.016812325940812615  1.0000
  H   H21       1.0  0.8756789991525923  0.35421113757907713  0.5026630799525185  1.0000
  H   H22       1.0  0.9966635185224223  0.4687607028698016  0.2536396174683091  1.0000
  H   H23       1.0  0.9957458728520311  0.4715308306239326  0.8362919260019807  1.0000
  H   H24       1.0  0.8154526862291946  0.2959502238350842  0.06182631149007433  1.0000
  H   H25       1.0  0.87578460974154  0.35389153515239186  0.6097424619181955  1.0000
  H   H26       1.0  0.04472020790207453  0.6806261622860148  0.1830758554578138  1.0000
  H   H27       1.0  0.164443688293626  0.7940705383919149  0.17204169876074982  1.0000
  H   H28       1.0  0.2457034302829586  0.5488033557158922  0.8789261680692988  1.0000
  H   H29       1.0  0.12695193249773082  0.4324249328696388  0.8901346100007728  1.0000
  Zn  Zn1       1.0  0.8193756491214259  0.38296721629468594  0.554989665058718  1.0000
  Zn  Zn2       1.0  0.9840079413993218  0.37516174459449225  0.552572943407629  1.0000
  C   C40       1.0  0.9017169273170741  0.37382337567136625  0.7909784895869346  1.0000
  C   C41       1.0  0.9016684606908492  0.3843071387123942  0.31658421936461667  1.0000
  C   C42       1.0  0.9016469923295741  0.6162796180540633  0.5485209354889986  1.0000
  C   C43       1.0  0.9017383397971015  0.14184933853136417  0.5590418440882627  1.0000
  O   O2        1.0  0.9641485274320707  0.383062520181011  0.3640523443243471  1.0000
  O   O3        1.0  0.964188961229702  0.3691428420843533  0.7416757553204183  1.0000
  O   O4        1.0  0.964131645748379  0.564929363634584  0.5458895768357224  1.0000
  O   O5        1.0  0.9642057867246846  0.18727601061289323  0.5598384262557232  1.0000
  O   O6        1.0  0.8391777476151407  0.5708529529413253  0.5477241830285007  1.0000
  O   O7        1.0  0.839235062796789  0.3750679918544673  0.7435102917053633  1.0000
  O   O8        1.0  0.83919462891105  0.3889876251310025  0.3658853193247289  1.0000
  O   O9        1.0  0.8392518882114506  0.19320110624581147  0.5616714986273017  1.0000
