data_image0
_chemical_formula_structural       NC12NC2H8C6BrH5C7F3H5Zn2C4O8
_chemical_formula_sum              "N2 C31 H18 Br1 F3 Zn2 O8"
_cell_length_a       19.240039667572717
_cell_length_b       9.276564384272257
_cell_length_c       10.299327507215196
_cell_angle_alpha    85.50433020317719
_cell_angle_beta     89.98118748846025
_cell_angle_gamma    90.58593109150864

_space_group_name_H-M_alt    "P 1"
_space_group_IT_number       1

loop_
  _space_group_symop_operation_xyz
  'x, y, z'

loop_
  _atom_site_type_symbol
  _atom_site_label
  _atom_site_symmetry_multiplicity
  _atom_site_fract_x
  _atom_site_fract_y
  _atom_site_fract_z
  _atom_site_occupancy
  N   N1        1.0  0.6625117849574256  0.5784496059616457  0.5662415277410318  1.0000
  C   C1        1.0  0.6023634166144238  0.5784496992297616  0.5662414457327412  1.0000
  C   C2        1.0  0.5275453801396633  0.5784498294889664  0.566241308327665  1.0000
  C   C3        1.0  0.4907004483376469  0.5068491251896807  0.6697093755757015  1.0000
  C   C4        1.0  0.41802907786287946  0.5067259859081656  0.6697960112270693  1.0000
  C   C5        1.0  0.38121314574934423  0.5784499323128114  0.5662410805628835  1.0000
  C   C6        1.0  0.4187728930124539  0.6501740863193757  0.46268634429302596  1.0000
  C   C7        1.0  0.49144295779037983  0.6500506855137944  0.46277310264128374  1.0000
  C   C8        1.0  0.304008054895882  0.5784498449813478  0.5662409852084078  1.0000
  C   C9        1.0  0.2661927309954663  0.4526756193139143  0.6082053931296763  1.0000
  C   C10       1.0  0.19352264403354646  0.4527943387661813  0.6081139775803799  1.0000
  C   C11       1.0  0.15767576725468668  0.5784497015348382  0.5662410462259599  1.0000
  C   C12       1.0  0.08285772943306588  0.5784495751912553  0.5662412949875884  1.0000
  N   N2        1.0  0.0227094123206493  0.5784495298255428  0.5662415034470207  1.0000
  C   C13       1.0  0.1947764017569477  0.7041051485129046  0.5243680619172575  1.0000
  C   C14       1.0  0.267447700411945  0.7042240680023211  0.5242764836212783  1.0000
  H   H1        1.0  0.5181277897011022  0.4514141909375938  0.750493959021312  1.0000
  H   H2        1.0  0.3906524191760378  0.4521770794332238  0.7516954875972748  1.0000
  H   H3        1.0  0.3919630210682621  0.7047230228423269  0.38078681705068274  1.0000
  H   H4        1.0  0.5194453872923539  0.7054855083866696  0.3819887950818197  1.0000
  H   H5        1.0  0.2927923617394978  0.35367032270552173  0.6394466757754369  1.0000
  H   H6        1.0  0.16531889838133768  0.3547873416839047  0.6403875280193407  1.0000
  H   H7        1.0  0.167550323824454  0.8021121183465016  0.4920945260492009  1.0000
  H   H8        1.0  0.2950345489265342  0.8032294525376016  0.493035156138002  1.0000
  C   C15       1.0  0.8405198466379983  0.15496856709302764  0.5665736083031401  1.0000
  C   C16       1.0  0.8316337835807396  0.2384860905167625  0.4478725825184231  1.0000
  C   C17       1.0  0.8292158668856643  0.1735152852109245  0.330280282489132  1.0000
  C   C18       1.0  0.8356689622821596  0.024108296534436368  0.3291561730349395  1.0000
  C   C19       1.0  0.8433309151129668  0.938897719927509  0.44606223906355386  1.0000
  C   C20       1.0  0.8447079705781803  0.0019194694123711993  0.5659205843489783  1.0000
  Br  Br1       1.0  0.8328722794029126  0.9357753088057399  0.16779899150747624  1.0000
  H   H9        1.0  0.8201017771357572  0.41748853616396575  0.7777176360729094  1.0000
  H   H10       1.0  0.8282042396314137  0.3551428250845321  0.4456491796440816  1.0000
  H   H11       1.0  0.8229860278800442  0.23974941513626669  0.23981556032796678  1.0000
  H   H12       1.0  0.8465472258756804  0.8226581672406762  0.44326218070070733  1.0000
  H   H13       1.0  0.8830136928716705  0.7039557313918934  0.7681953177421066  1.0000
  C   C21       1.0  0.8426807546717046  0.578502606712773  0.18486549138271835  1.0000
  C   C22       1.0  0.9105082466929003  0.6363252449189958  0.17955042826521805  1.0000
  C   C23       1.0  0.944229128932362  0.6679421881794505  0.05957105318486477  1.0000
  C   C24       1.0  0.910332720877879  0.6361723224359754  0.9443130885362838  1.0000
  C   C25       1.0  0.8425470817945143  0.5783854818121148  0.9476287580022711  1.0000
  C   C26       1.0  0.8090136312785313  0.5504203663556937  0.06837788427465807  1.0000
  C   C27       1.0  0.01797191419024435  0.7251278426474046  0.05526461741542743  1.0000
  F   F1        1.0  0.030528869224465183  0.8093407360387175  0.15809085213252416  1.0000
  F   F2        1.0  0.06331270827288504  0.6101499385683036  0.06322221296704789  1.0000
  F   F3        1.0  0.030337834869784027  0.8093211702622215  0.940447463582025  1.0000
  H   H14       1.0  0.7151418945328942  0.4669734818645282  0.40230359114696984  1.0000
  H   H15       1.0  0.9372625382179235  0.6566080909340628  0.26893131663045655  1.0000
  H   H16       1.0  0.9369665976449433  0.6563463953802164  0.8519174978724692  1.0000
  H   H17       1.0  0.7567352036064845  0.5058568023103971  0.07166951814024691  1.0000
  H   H18       1.0  0.8169287030272298  0.5538022191043488  0.6216161861103044  1.0000
  Zn  Zn1       1.0  0.766457028338028  0.5784457327774761  0.5662490123740702  1.0000
  Zn  Zn2       1.0  0.9187641276847592  0.5784416381324049  0.5662446271362982  1.0000
  C   C28       1.0  0.8425423705884929  0.572662626961718  0.8034545860571899  1.0000
  C   C29       1.0  0.8426804575983623  0.5842265634455752  0.32903917947314976  1.0000
  C   C30       1.0  0.8439136531269522  0.8418285377606376  0.5608687107887258  1.0000
  C   C31       1.0  0.8413091145084141  0.31505892004075675  0.5716251253198417  1.0000
  O   O1        1.0  0.9004800772343456  0.5861397303451774  0.37742352691483294  1.0000
  O   O2        1.0  0.9003403098961873  0.5707452644717734  0.7550665373017611  1.0000
  O   O3        1.0  0.9014468584832459  0.7881001413229882  0.5591767255535407  1.0000
  O   O4        1.0  0.899373476743272  0.3687848638263971  0.573313241278683  1.0000
  O   O5        1.0  0.785847627304586  0.7881025070864527  0.5591803982263495  1.0000
  O   O6        1.0  0.7847410872940874  0.5707493628441045  0.755070139391006  1.0000
  O   O7        1.0  0.7848808547036594  0.5861437787040358  0.3774255675900893  1.0000
  O   O8        1.0  0.7837742541416718  0.3687889018557893  0.5733153793329744  1.0000
