data_image0
_chemical_formula_structural       NC9NC5H8C12ClH9C12IH9Zn2C4O8
_chemical_formula_sum              "N2 C42 H26 Cl1 I1 Zn2 O8"
_cell_length_a       17.807436237873137
_cell_length_b       10.299768534541528
_cell_length_c       10.299773350644651
_cell_angle_alpha    85.54596918474078
_cell_angle_beta     89.4010069247268
_cell_angle_gamma    88.408414792471

_space_group_name_H-M_alt    "P 1"
_space_group_IT_number       1

loop_
  _space_group_symop_operation_xyz
  'x, y, z'

loop_
  _atom_site_type_symbol
  _atom_site_label
  _atom_site_symmetry_multiplicity
  _atom_site_fract_x
  _atom_site_fract_y
  _atom_site_fract_z
  _atom_site_occupancy
  N   N1        1.0  0.7075342797558168  0.388145042211832  0.5571535834691651  1.0000
  C   C1        1.0  0.6469391908127182  0.35295919421777805  0.5461290233203642  1.0000
  C   C2        1.0  0.5715655601309879  0.30919187418638167  0.532415667530244  1.0000
  C   C3        1.0  0.5534511007248343  0.23780856376196713  0.4274114600349645  1.0000
  C   C4        1.0  0.48026716640404593  0.19520239857918395  0.41401404493429766  1.0000
  C   C5        1.0  0.42414889989171983  0.22360203097561704  0.505588378848013  1.0000
  C   C6        1.0  0.34637327218844843  0.1784375410727408  0.49143247263817574  1.0000
  C   C7        1.0  0.2842145121841776  0.26018460301795976  0.5173728780622057  1.0000
  C   C8        1.0  0.21088823659440958  0.2173753997877619  0.5039891404296853  1.0000
  C   C9        1.0  0.14767992031306887  0.30181365562055973  0.5302934975552147  1.0000
  N   N2        1.0  0.0968734211636612  0.36969617121856446  0.5514414740907727  1.0000
  C   C10       1.0  0.19913712591131255  0.09256116706274063  0.464639642950096  1.0000
  C   C11       1.0  0.2604385127401612  0.010800255517790182  0.43869084757216303  1.0000
  C   C12       1.0  0.3336452642254183  0.05321498400683054  0.45187203955239313  1.0000
  C   C13       1.0  0.4429548759741666  0.2954796346946254  0.610811825060385  1.0000
  C   C14       1.0  0.5161916317847898  0.3378954542133629  0.6240535858459643  1.0000
  H   H1        1.0  0.5958351624968882  0.21534450449803086  0.35569824386859206  1.0000
  H   H2        1.0  0.4673369203996296  0.1415451452568954  0.33109255800918325  1.0000
  H   H3        1.0  0.29273275818762995  0.35763920790812165  0.5462516819101026  1.0000
  H   H4        1.0  0.14266479652175879  0.05852885611158154  0.45404414332405  1.0000
  H   H5        1.0  0.2512219623537283  0.9141660806211109  0.4086116461959116  1.0000
  H   H6        1.0  0.3802721202171232  0.9874767621832554  0.4328224490677579  1.0000
  H   H7        1.0  0.4012877151718376  0.3174042813666368  0.6838195309581102  1.0000
  H   H8        1.0  0.5296503567390367  0.3927735698626572  0.7059334670435153  1.0000
  C   C15       1.0  0.9021365827167759  0.9975584150614474  0.554296415529228  1.0000
  C   C16       1.0  0.9070717369020525  0.006929417812908242  0.4177553065400198  1.0000
  C   C17       1.0  0.9096446426132031  0.8945349877723057  0.34857516994394233  1.0000
  C   C18       1.0  0.9072152215943355  0.771634896891635  0.4177686913783513  1.0000
  C   C19       1.0  0.9022783000868615  0.7602724488650523  0.5543097642466877  1.0000
  C   C20       1.0  0.899767180935094  0.8737902051849458  0.6218089872676926  1.0000
  C   C21       1.0  0.9148666232047591  0.9055023479550633  0.20412604460178804  1.0000
  C   C22       1.0  0.8721207284192506  0.0010893072823927616  0.1302894958968508  1.0000
  C   C23       1.0  0.8771027422221478  0.011213130229158484  0.9943368767609413  1.0000
  C   C24       1.0  0.92475794426553  0.9262760592757112  0.930530017949992  1.0000
  C   C25       1.0  0.967491386528618  0.8310023680544686  0.0028555312878379936  1.0000
  C   C26       1.0  0.962642785691817  0.8204799678889834  0.1388208363353662  1.0000
  Cl  Cl1       1.0  0.9309249137501696  0.9392279108932428  0.7599548207324365  1.0000
  H   H9        1.0  0.9002174991024002  0.3214431794954246  0.6063226118822914  1.0000
  H   H10       1.0  0.9099632026300462  0.10181990464367784  0.3649803814885343  1.0000
  H   H11       1.0  0.908146123931941  0.6847721908436409  0.3648089752068482  1.0000
  H   H12       1.0  0.8959591758222454  0.8657927552718138  0.7271441786422821  1.0000
  H   H13       1.0  0.9004270142978352  0.42848765961355817  0.6063427668937278  1.0000
  H   H14       1.0  0.8341407355549711  0.0668514981631243  0.17759009849167717  1.0000
  H   H15       1.0  0.8437422535111676  0.08492393634186633  0.9387146469602289  1.0000
  H   H16       1.0  0.004633398698411727  0.7652337545789872  0.953877747652267  1.0000
  H   H17       1.0  0.9969564401592884  0.7470177338204185  0.192934779328209  1.0000
  C   C27       1.0  0.9021716413854648  0.37902322653622084  0.17293444431414606  1.0000
  C   C28       1.0  0.9702850775552301  0.4447985535367418  0.16559932482390427  1.0000
  C   C29       1.0  0.004834791635791816  0.478017889320149  0.04475199433820264  1.0000
  C   C30       1.0  0.9703573019501149  0.44458097661067597  0.9303286474933383  1.0000
  C   C31       1.0  0.9022432369905261  0.3788076843334351  0.9356718180475123  1.0000
  C   C32       1.0  0.8685321081336245  0.34639604184882455  0.05743730152976401  1.0000
  C   C33       1.0  0.07689282932955743  0.5476003910793736  0.03804607196239628  1.0000
  C   C34       1.0  0.08872972624569453  0.6500576713223744  0.11768512224367123  1.0000
  C   C35       1.0  0.15659004758587303  0.7154337262996279  0.11117109550339485  1.0000
  C   C36       1.0  0.21336779083253687  0.6793840044171877  0.025348073349327205  1.0000
  C   C37       1.0  0.20225572916712542  0.5777785672931648  0.9458411474463081  1.0000
  C   C38       1.0  0.13447157765218143  0.5121729331312381  0.9519481104552008  1.0000
  I   I1        1.0  0.31567668565575535  0.778173965208252  0.01583094045970078  1.0000
  H   H18       1.0  0.8761955059226159  0.354025878656989  0.5031782684344286  1.0000
  H   H19       1.0  0.9971538658667976  0.46877213331630724  0.2541825066341205  1.0000
  H   H20       1.0  0.9962350496703024  0.4715422153472727  0.8368367609487573  1.0000
  H   H21       1.0  0.8159852715663758  0.29565452752150606  0.06232765903317982  1.0000
  H   H22       1.0  0.8763003540047154  0.3537087717141738  0.6102568842026156  1.0000
  H   H23       1.0  0.04517291095123198  0.6806992665331116  0.1837154326233312  1.0000
  H   H24       1.0  0.16491906334361595  0.7943152870106092  0.17263637221518624  1.0000
  H   H25       1.0  0.2461819236016632  0.5493556772811439  0.8795143225037888  1.0000
  H   H26       1.0  0.1274479826064887  0.43268863326237533  0.8906245806672826  1.0000
  Zn  Zn1       1.0  0.8198891446459824  0.3828176292146839  0.5555127028175588  1.0000
  Zn  Zn2       1.0  0.9845185371116024  0.37501299521563397  0.5530930311615264  1.0000
  C   C39       1.0  0.9022270628979095  0.3736749183135138  0.7914980258426821  1.0000
  C   C40       1.0  0.9021824169239309  0.38415725944442447  0.31710780920880843  1.0000
  C   C41       1.0  0.9022471535665472  0.6161049424492169  0.5491321665380662  1.0000
  C   C42       1.0  0.9021622697953934  0.14172567767791833  0.5594737385502743  1.0000
  O   O1        1.0  0.9646620287078325  0.38291280422080226  0.364575454624673  1.0000
  O   O2        1.0  0.9646973505134563  0.3689948573196257  0.7421935317642816  1.0000
  O   O3        1.0  0.9647127319028965  0.5647602073004296  0.546481397999519  1.0000
  O   O4        1.0  0.9646465911341187  0.18714746622076373  0.5602874918406644  1.0000
  O   O5        1.0  0.8397610344435339  0.5706831608743081  0.5483182429573052  1.0000
  O   O6        1.0  0.839745653334061  0.3749193711890619  0.7440303075041029  1.0000
  O   O7        1.0  0.8397103314234377  0.3888372732739635  0.3664106689632882  1.0000
  O   O8        1.0  0.8396948938540651  0.19307192595791434  0.562122803546935  1.0000
