data_image0
_chemical_formula_structural       NC6NCNCH5C6BrH5C6NH7Zn2C4O8
_chemical_formula_sum              "N4 C24 H17 Br1 Zn2 O8"
_cell_length_a       14.933214217465613
_cell_length_b       9.276564384272257
_cell_length_c       9.274774538082513
_cell_angle_alpha    85.01137938942293
_cell_angle_beta     90.31607823643775
_cell_angle_gamma    90.62004099175812

_space_group_name_H-M_alt    "P 1"
_space_group_IT_number       1

loop_
  _space_group_symop_operation_xyz
  'x, y, z'

loop_
  _atom_site_type_symbol
  _atom_site_label
  _atom_site_symmetry_multiplicity
  _atom_site_fract_x
  _atom_site_fract_y
  _atom_site_fract_z
  _atom_site_occupancy
  N   N1        1.0  0.8473095681843542  0.592983767360358  0.4058246279415133  1.0000
  C   C1        1.0  0.7698219302329065  0.5939891161456587  0.404832052533064  1.0000
  C   C2        1.0  0.6734267580533447  0.5952425304069686  0.4035944337825663  1.0000
  C   C3        1.0  0.6253505059134297  0.4986466584040947  0.49898215617819885  1.0000
  C   C4        1.0  0.5318199292125897  0.499738949290589  0.4979035561650646  1.0000
  C   C5        1.0  0.48546310641409635  0.5973717675147807  0.4014918932754743  1.0000
  C   C6        1.0  0.388882033011626  0.595244705202949  0.40359235855606385  1.0000
  N   N2        1.0  0.3113917633945455  0.5934702685565965  0.40534423699842775  1.0000
  C   C7        1.0  0.5336413052544288  0.6951873808640743  0.30489981223538287  1.0000
  N   N3        1.0  0.4885942171704219  0.7966653832904231  0.2046912909182892  1.0000
  C   C8        1.0  0.6276496995791399  0.6931205533751961  0.3069409048055445  1.0000
  H   H1        1.0  0.6601495184811347  0.4224873100031497  0.574188917261008  1.0000
  H   H2        1.0  0.495539605902711  0.42422026631161214  0.5724775379902778  1.0000
  H   H3        1.0  0.5251366716500352  0.86833890229451  0.13391417075624007  1.0000
  H   H4        1.0  0.4188668199408498  0.8020648779845496  0.19935939997594976  1.0000
  H   H5        1.0  0.6650524775142493  0.767879395566226  0.23311709720124948  1.0000
  C   C9        1.0  0.07665835483157785  0.16974000005037926  0.40595630148490613  1.0000
  C   C10       1.0  0.06468978103014988  0.2543747225502129  0.27405932788815135  1.0000
  C   C11       1.0  0.061059684542408746  0.19051930537645823  0.1433858226593765  1.0000
  C   C12       1.0  0.06936899450543478  0.04113172635791917  0.14212802956538573  1.0000
  C   C13       1.0  0.07975255420009986  0.9548193727302557  0.2720319514795251  1.0000
  C   C14       1.0  0.08205151580454542  0.016702771362531846  0.4052250314421777  1.0000
  Br  Br1       1.0  0.0650592856481691  0.9543299498928971  0.9628204540707118  1.0000
  H   H6        1.0  0.051275919970891204  0.4302237807352005  0.640621432423897  1.0000
  H   H7        1.0  0.060261388721765785  0.3710479761276755  0.2715931012055848  1.0000
  H   H8        1.0  0.05263703675732148  0.25760561049608266  0.042863448522018066  1.0000
  H   H9        1.0  0.08388422164682302  0.8386108011437089  0.26891604353748244  1.0000
  H   H10       1.0  0.13229055981117144  0.7168665350571634  0.6299556837992082  1.0000
  C   C15       1.0  0.07777133995724532  0.5969081424595701  0.9817728551120495  1.0000
  C   C16       1.0  0.14176561292847611  0.6820766933238838  0.04837021216624858  1.0000
  C   C17       1.0  0.20970166096831544  0.7553701433781368  0.9674722405323316  1.0000
  C   C18       1.0  0.21419199582601733  0.7438277068515149  0.8185000705893861  1.0000
  C   C19       1.0  0.15050525044118213  0.6618362955746498  0.7501971108742304  1.0000
  C   C20       1.0  0.08093851861853142  0.5895346179849397  0.8294085233717454  1.0000
  N   N4        1.0  0.2747226799624798  0.8403391419828916  0.03707395184408479  1.0000
  H   H11       1.0  0.9421230806648292  0.31485935667536147  0.10807510566636934  1.0000
  H   H12       1.0  0.14019724742163397  0.6889145690761307  0.16438610507414397  1.0000
  H   H13       1.0  0.266638533579616  0.7995999218403063  0.7548672760643633  1.0000
  H   H14       1.0  0.15447285114142328  0.6578290643143628  0.6340233913036268  1.0000
  H   H15       1.0  0.9868523987614827  0.40395218034516267  0.5635830458933611  1.0000
  H   H16       1.0  0.2721798726315574  0.8493798786395432  0.148438758719303  1.0000
  H   H17       1.0  0.32586948577694574  0.8949759478988729  0.9777321589204998  1.0000
  Zn  Zn1       1.0  0.9812336721351278  0.5931202189817131  0.40569434392954185  1.0000
  Zn  Zn2       1.0  0.17746761373238895  0.593321883100618  0.4054863831901103  1.0000
  C   C21       1.0  0.08030127921200997  0.5851833461766541  0.669192195922955  1.0000
  C   C22       1.0  0.07840216163982033  0.6012605764628094  0.14198866900916163  1.0000
  C   C23       1.0  0.0810059918849102  0.8566588252521418  0.3996120978938652  1.0000
  C   C24       1.0  0.07769737126078513  0.32978336402822794  0.41156884555042006  1.0000
  O   O1        1.0  0.1530835892517206  0.6027915320958002  0.19567964515745606  1.0000
  O   O2        1.0  0.1545568642482461  0.583804364635599  0.6153429678669611  1.0000
  O   O3        1.0  0.15512493036327235  0.8030242331791035  0.39765513115387074  1.0000
  O   O4        1.0  0.15251545583669524  0.3835716747410407  0.41336737371948085  1.0000
  O   O5        1.0  0.006185763065789326  0.8028704272741084  0.3978133534635451  1.0000
  O   O6        1.0  0.005617707691866428  0.5836522920225152  0.615501111727842  1.0000
  O   O7        1.0  0.004144425951350338  0.60263942432305  0.19583605386659506  1.0000
  O   O8        1.0  0.0035762928712923547  0.3834195557123632  0.41352389064305967  1.0000
