data_image0
_chemical_formula_structural       NC10NC3NH7C12ClH9C11NCOCH12Zn2C4O8
_chemical_formula_sum              "N4 C42 H28 Cl1 O9 Zn2"
_cell_length_a       19.210446455230148
_cell_length_b       10.299768534541528
_cell_length_c       10.299158637457996
_cell_angle_alpha    85.58253282463849
_cell_angle_beta     89.9723271520695
_cell_angle_gamma    89.96529235611058

_space_group_name_H-M_alt    "P 1"
_space_group_IT_number       1

loop_
  _space_group_symop_operation_xyz
  'x, y, z'

loop_
  _atom_site_type_symbol
  _atom_site_label
  _atom_site_symmetry_multiplicity
  _atom_site_fract_x
  _atom_site_fract_y
  _atom_site_fract_z
  _atom_site_occupancy
  N   N1        1.0  0.6559544489330283  0.4196657491947102  0.5674054977305829  1.0000
  C   C1        1.0  0.5957260608609052  0.4218732859156018  0.5676367969283729  1.0000
  C   C2        1.0  0.5209218212726329  0.4246102271331895  0.5679233479141625  1.0000
  C   C3        1.0  0.48531891857190324  0.5408428427673238  0.5830431000952934  1.0000
  C   C4        1.0  0.4126534601335335  0.5409943583325403  0.582990512657096  1.0000
  C   C5        1.0  0.3757551160251716  0.42531920491693337  0.5680098796327219  1.0000
  C   C6        1.0  0.2984328917894811  0.42396271318806295  0.567859194817742  1.0000
  C   C7        1.0  0.2606972104278876  0.5275092805592263  0.5045040415851743  1.0000
  C   C8        1.0  0.1879187498619087  0.5261070488440385  0.504394871675262  1.0000
  C   C9        1.0  0.1518745896277424  0.4214157357509826  0.5675898753118085  1.0000
  C   C10       1.0  0.0769449772943985  0.4201136412972674  0.5674529575538318  1.0000
  N   N2        1.0  0.0167070507753481  0.4190667131605898  0.5673429105495296  1.0000
  C   C11       1.0  0.18888662815285662  0.3179948492501701  0.6309200284411818  1.0000
  C   C12       1.0  0.2616669063267217  0.3191228368953305  0.6310794259357677  1.0000
  C   C13       1.0  0.41396799517583904  0.31090689543879013  0.5531784170391829  1.0000
  N   N3        1.0  0.4847381290172207  0.313351863056875  0.553344146350395  1.0000
  H   H1        1.0  0.5134258021113715  0.6302781972894957  0.5950976536262369  1.0000
  H   H2        1.0  0.3853903686667959  0.6310120306645493  0.5964398372071458  1.0000
  H   H3        1.0  0.2874389209581319  0.6087434477178806  0.45351861157941653  1.0000
  H   H4        1.0  0.15978650100387953  0.6065139782907629  0.45473978694080475  1.0000
  H   H5        1.0  0.1615054772810319  0.23662451438380683  0.6804755627265726  1.0000
  H   H6        1.0  0.2891540811711125  0.2388355721220925  0.6821722534865877  1.0000
  H   H7        1.0  0.3876968255465406  0.22002630900085493  0.5396827867834453  1.0000
  C   C14       1.0  0.8362684221326429  0.03800095641114943  0.567372094497772  1.0000
  C   C15       1.0  0.8408764347904915  0.04751083212436491  0.43090119456915943  1.0000
  C   C16       1.0  0.843278270473789  0.9351900860598958  0.36175768153790283  1.0000
  C   C17       1.0  0.84100938037581  0.8122228993938017  0.43091666159243514  1.0000
  C   C18       1.0  0.8363997301742848  0.8007214973401835  0.5673874997549183  1.0000
  C   C19       1.0  0.8340555779789287  0.9141673266030625  0.6348509784994096  1.0000
  C   C20       1.0  0.8481540892603173  0.9463044080542449  0.21738284602310465  1.0000
  C   C21       1.0  0.8085659503827463  0.03988393523525025  0.1429252705449029  1.0000
  C   C22       1.0  0.8132172300462873  0.0501491567684087  0.007043546476869889  1.0000
  C   C23       1.0  0.8573897169467001  0.9673564998410717  0.9439275371197272  1.0000
  C   C24       1.0  0.8969667075506719  0.874088702165408  0.016873881011798098  1.0000
  C   C25       1.0  0.8924390414634392  0.8634310293086099  0.15277022702253218  1.0000
  Cl  Cl1       1.0  0.8631478783015748  0.9804819169713379  0.7734400736346383  1.0000
  H   H8        1.0  0.8344768266238632  0.3618310340852997  0.6193709783763315  1.0000
  H   H9        1.0  0.8435692064897419  0.14250011573057342  0.37816768413646895  1.0000
  H   H10       1.0  0.8418855946923097  0.725368968391115  0.37796990921119233  1.0000
  H   H11       1.0  0.8305000033584278  0.9060627077108874  0.7401319957755785  1.0000
  H   H12       1.0  0.834670952542392  0.46888513461758136  0.6193941737837767  1.0000
  H   H13       1.0  0.7733625100541355  0.10393480787789233  0.18967524707249717  1.0000
  H   H14       1.0  0.7823206549545374  0.12229457037599233  0.9509366648230437  1.0000
  H   H15       1.0  0.9313941303775218  0.8099919065991549  0.9684345466171753  1.0000
  H   H16       1.0  0.9242191833795284  0.7915769302006037  0.20738263736780138  1.0000
  C   C26       1.0  0.8363993105798044  0.4192231735208898  0.18600671358233423  1.0000
  C   C27       1.0  0.8380401839453767  0.5559224451837428  0.17469565805911635  1.0000
  C   C28       1.0  0.8388175200452024  0.6253708139207761  0.05180317641849941  1.0000
  C   C29       1.0  0.8379069911643282  0.5562825327683449  0.9393842098827063  1.0000
  C   C30       1.0  0.8362688358839652  0.4194993484794049  0.9487529570805142  1.0000
  C   C31       1.0  0.8355281255344426  0.3518107115697642  0.07245211402611162  1.0000
  C   C32       1.0  0.8405541969092303  0.7699818676684425  0.04081100605386955  1.0000
  C   C33       1.0  0.8849303394907929  0.9738308019560404  0.11289728006034028  1.0000
  C   C34       1.0  0.844308118472227  0.044882963957796125  0.018756211368800454  1.0000
  C   C35       1.0  0.8007430446161178  0.9774824096650734  0.9379780975652112  1.0000
  C   C36       1.0  0.7991316503275443  0.841423652441437  0.9481921766036856  1.0000
  N   N4        1.0  0.84406639798866  0.18492804436000876  0.007523715928139611  1.0000
  C   C37       1.0  0.9037193469157254  0.26381615384488555  0.03074653529304316  1.0000
  O   O1        1.0  0.9637273299445434  0.2143043035849952  0.039251255782972276  1.0000
  C   C38       1.0  0.8955788063080429  0.4076434903576751  0.03535342464629587  1.0000
  H   H17       1.0  0.8357899685581607  0.3666408883931471  0.5178331988858023  1.0000
  H   H18       1.0  0.837744983582985  0.6087396942601417  0.26164763567998417  1.0000
  H   H19       1.0  0.8394252294279921  0.6092931241433381  0.8444134133937168  1.0000
  H   H20       1.0  0.8342648644707991  0.24637136561677675  0.08046169786292978  1.0000
  H   H21       1.0  0.8335994902365521  0.16131216468282703  0.7591436873803192  1.0000
  H   H22       1.0  0.9170599256203071  0.02311657598357674  0.1799242234488574  1.0000
  H   H23       1.0  0.7681926400049126  0.030638016392326318  0.8663615723384712  1.0000
  H   H24       1.0  0.7647215673535147  0.7920948854694849  0.8848498697871237  1.0000
  H   H25       1.0  0.798951540705508  0.23245751331202902  0.9725857717845843  1.0000
  H   H26       1.0  0.846636009749767  0.42943923657264355  0.08678015816564909  1.0000
  H   H27       1.0  0.893715320199342  0.4543134941544804  0.9346358992945198  1.0000
  H   H28       1.0  0.939995387940055  0.4483370032353458  0.08800130658442296  1.0000
  Zn  Zn1       1.0  0.7600598544208975  0.4194894190297076  0.5673949355015524  1.0000
  Zn  Zn2       1.0  0.912601625706354  0.4192324647295253  0.5673641084583068  1.0000
  C   C39       1.0  0.836291052744301  0.4142734988200323  0.8045774549337465  1.0000
  C   C40       1.0  0.8363720933946275  0.4244500207833987  0.33018171619052783  1.0000
  C   C41       1.0  0.8363722066419746  0.6565492472403498  0.5622093968930977  1.0000
  C   C42       1.0  0.8362908871646646  0.1821727121881065  0.5725498434494789  1.0000
  O   O2        1.0  0.8942517653080208  0.4261010199672737  0.3785564653037228  1.0000
  O   O3        1.0  0.8941870555555386  0.41242649741931126  0.7561789349380272  1.0000
  O   O4        1.0  0.8942518077544305  0.6080672300671719  0.5604650134610429  1.0000
  O   O5        1.0  0.8941869610752118  0.2304602966619735  0.5742702894156761  1.0000
  O   O6        1.0  0.7784744669970208  0.608261587186357  0.5604887545478712  1.0000
  O   O7        1.0  0.7784097150753998  0.4126224148025687  0.7562026068102414  1.0000
  O   O8        1.0  0.7784744251334853  0.42629689152961103  0.3785785757571636  1.0000
  O   O9        1.0  0.7784096208795749  0.2306561589708476  0.5742924972378369  1.0000
