data_image0
_chemical_formula_structural       NC8NH4C7NH5C6NCH8Zn2C4O8
_chemical_formula_sum              "N4 C26 H17 Zn2 O8"
_cell_length_a       11.048855714531884
_cell_length_b       9.275154477615127
_cell_length_c       9.274690524155615
_cell_angle_alpha    86.28222006600178
_cell_angle_beta     89.68736319339459
_cell_angle_gamma    89.43371274831733

_space_group_name_H-M_alt    "P 1"
_space_group_IT_number       1

loop_
  _space_group_symop_operation_xyz
  'x, y, z'

loop_
  _atom_site_type_symbol
  _atom_site_label
  _atom_site_symmetry_multiplicity
  _atom_site_fract_x
  _atom_site_fract_y
  _atom_site_fract_z
  _atom_site_occupancy
  N   N1        1.0  0.1339572306711314  0.564076336362163  0.4163873935307232  1.0000
  C   C1        1.0  0.08032306657263621  0.5053973186284282  0.3311733818474072  1.0000
  C   C2        1.0  0.013404179652652516  0.4321826312255685  0.2248503480202757  1.0000
  C   C3        1.0  0.8856874253770229  0.4321824415716049  0.22485044898328232  1.0000
  C   C4        1.0  0.8239989483394693  0.3598064580942797  0.11974567827197768  1.0000
  C   C5        1.0  0.888497942870576  0.2880029684061369  0.015472205916605255  1.0000
  C   C6        1.0  0.014904156100233216  0.28800285849862806  0.01547222814300641  1.0000
  C   C7        1.0  0.07725648646666229  0.35980655627121516  0.11974565094729385  1.0000
  C   C8        1.0  0.8165796449325565  0.505397393433971  0.33117336901259176  1.0000
  N   N2        1.0  0.7611911163215074  0.5640763792771828  0.41638742249010163  1.0000
  H   H1        1.0  0.7259502585445138  0.3589001371153442  0.11842887204387885  1.0000
  H   H2        1.0  0.8404326098782866  0.23231051050661947  0.9345958888862889  1.0000
  H   H3        1.0  0.0646346501984767  0.23231061990490787  0.9345958887114736  1.0000
  H   H4        1.0  0.17533226943460714  0.3589000904767885  0.11842914695730888  1.0000
  C   C9        1.0  0.45109005647271877  0.14067249800850523  0.414719512029869  1.0000
  C   C10       1.0  0.4184599231149387  0.22274322441165584  0.28763692241874117  1.0000
  C   C11       1.0  0.3759540195507556  0.15565515230489013  0.16728608656651778  1.0000
  C   C12       1.0  0.3653757461490418  0.00558097681052905  0.17260044826195164  1.0000
  C   C13       1.0  0.39914109040671414  0.9222773112625333  0.29678629152349156  1.0000
  C   C14       1.0  0.44406994662934274  0.987469217916922  0.4180677624716871  1.0000
  C   C15       1.0  0.3417208173155055  0.24129433239166143  0.03867182031018813  1.0000
  N   N3        1.0  0.31420683111581527  0.31013261446640383  0.9352988944881688  1.0000
  H   H5        1.0  0.47291184897429406  0.22042920714562797  0.7685154878215674  1.0000
  H   H6        1.0  0.4234225771130563  0.3396653259697784  0.28336029477729996  1.0000
  H   H7        1.0  0.3320623931487656  0.952647681313104  0.08010327225002078  1.0000
  H   H8        1.0  0.392786306279867  0.8058086088052467  0.2966594457190599  1.0000
  H   H9        1.0  0.4639045651162321  0.6907664469749423  0.6551211300771698  1.0000
  C   C16       1.0  0.449548527080341  0.5603793528080245  0.9931317255461686  1.0000
  C   C17       1.0  0.5473629029215608  0.6227496489408735  0.06211571183341413  1.0000
  C   C18       1.0  0.638862792710243  0.6960395973711215  0.981907704361809  1.0000
  C   C19       1.0  0.6316039176287642  0.7066898811851983  0.8310533540385538  1.0000
  C   C20       1.0  0.5363793664796453  0.643460575706013  0.7608552861869895  1.0000
  C   C21       1.0  0.4456114246271442  0.5677623301218866  0.8396554639718636  1.0000
  N   N4        1.0  0.7390406909448086  0.7614711325196595  0.05088821336336058  1.0000
  C   C22       1.0  0.7555081996454518  0.7563956044428719  0.2071496933979624  1.0000
  H   H10       1.0  0.31284261921181433  0.38658067647132954  0.2854433019371023  1.0000
  H   H11       1.0  0.700849579762917  0.7631307632930813  0.7672179633524348  1.0000
  H   H12       1.0  0.5354002283437138  0.6508997047635514  0.6438119852698936  1.0000
  H   H13       1.0  0.25490957191716523  0.5001206496016621  0.5639498204854494  1.0000
  H   H14       1.0  0.804443261216122  0.8154045756161368  0.9864673203422346  1.0000
  H   H15       1.0  0.839735526439504  0.8135254448683864  0.23305390203905518  1.0000
  H   H16       1.0  0.7632267741722119  0.6424105398267537  0.250923652015937  1.0000
  H   H17       1.0  0.6778680608862915  0.8104486315658359  0.2585654294549502  1.0000
  Zn  Zn1       1.0  0.3149633888083285  0.5640725532628115  0.4163957070770987  1.0000
  Zn  Zn2       1.0  0.5801850284897496  0.5640684393844564  0.41639085815045673  1.0000
  C   C23       1.0  0.44640057436846037  0.5606228683701115  0.67962167288493  1.0000
  C   C24       1.0  0.44875072340193944  0.5675199446964068  0.15316504095135985  1.0000
  C   C25       1.0  0.4454173749491355  0.8273564995287084  0.4116911774105827  1.0000
  C   C26       1.0  0.4497338463232257  0.3007845819282684  0.4210956064223994  1.0000
  O   O1        1.0  0.549133255391602  0.5699085411421054  0.2068718185099898  1.0000
  O   O2        1.0  0.547315141033016  0.5582300582584725  0.6259107958897812  1.0000
  O   O3        1.0  0.546519831284094  0.773620851818382  0.4095550310941072  1.0000
  O   O4        1.0  0.5499284750554608  0.3545177569552558  0.42322747527692717  1.0000
  O   O5        1.0  0.34521985173551095  0.7736232356949193  0.40955908994470747  1.0000
  O   O6        1.0  0.3460151474753646  0.5582341737474581  0.6259147847377686  1.0000
  O   O7        1.0  0.3478332703905307  0.5699125912732417  0.20687407424039983  1.0000
  O   O8        1.0  0.3486284896323457  0.3545217977162398  0.42322983903015365  1.0000
