data_image0
_chemical_formula_structural       NC12NC2H8C7OC3FC3H9C7OC3NC3H11Zn2C4O8
_chemical_formula_sum              "N3 C44 H28 O10 F1 Zn2"
_cell_length_a       19.240039667572717
_cell_length_b       10.299378350833068
_cell_length_c       10.298749378158432
_cell_angle_alpha    85.54775683836141
_cell_angle_beta     90.00886307587598
_cell_angle_gamma    90.01886762376958

_space_group_name_H-M_alt    "P 1"
_space_group_IT_number       1

loop_
  _space_group_symop_operation_xyz
  'x, y, z'

loop_
  _atom_site_type_symbol
  _atom_site_label
  _atom_site_symmetry_multiplicity
  _atom_site_fract_x
  _atom_site_fract_y
  _atom_site_fract_z
  _atom_site_occupancy
  N   N1        1.0  0.6546090500228188  0.4214512132641637  0.567167644067893  1.0000
  C   C1        1.0  0.5944606812135576  0.4214512972556663  0.5671675621144634  1.0000
  C   C2        1.0  0.5196426440817007  0.4214514145575739  0.5671674247848392  1.0000
  C   C3        1.0  0.4831661289429375  0.35697487280272383  0.6705954441512153  1.0000
  C   C4        1.0  0.4104953684623608  0.3568639797700587  0.6706820062662662  1.0000
  C   C5        1.0  0.37331040914183433  0.42145150714546326  0.5671671970735266  1.0000
  C   C6        1.0  0.41050112825759144  0.48603922149878726  0.46365258241647317  1.0000
  C   C7        1.0  0.483171804309367  0.4859280929467479  0.46373926706910795  1.0000
  C   C8        1.0  0.2961053186804407  0.4214514284889735  0.5671671016588933  1.0000
  C   C9        1.0  0.2589010112007709  0.3081824790383596  0.6090540244127792  1.0000
  C   C10       1.0  0.18623033409906598  0.308289391283572  0.6089626793575711  1.0000
  C   C11       1.0  0.14977303173951653  0.42145129930568526  0.5671671625887447  1.0000
  C   C12       1.0  0.07495499458510278  0.42145118553739325  0.5671674112830856  1.0000
  N   N2        1.0  0.014806677743064298  0.4214511446947735  0.56716761972444  1.0000
  C   C13       1.0  0.18626324024556756  0.5346132831629573  0.5253715929162454  1.0000
  C   C14       1.0  0.2589339477641661  0.5347203755501201  0.5252800852326888  1.0000
  H   H1        1.0  0.5108788821838255  0.30705567519452504  0.7513490561671498  1.0000
  H   H2        1.0  0.3834001820246828  0.30774280692583017  0.7525511290711325  1.0000
  H   H3        1.0  0.38340978390769953  0.5351604214008097  0.38178340875589556  1.0000
  H   H4        1.0  0.510888822536723  0.535847190265256  0.3829859308828907  1.0000
  H   H5        1.0  0.2859811504942939  0.21902080462107779  0.6402342218314293  1.0000
  H   H6        1.0  0.1585026002682596  0.22002684767477798  0.6411758292945968  1.0000
  H   H7        1.0  0.1585611506254635  0.6228758022326655  0.49315845753361676  1.0000
  H   H8        1.0  0.286040287298103  0.6238821291510321  0.49409984302989995  1.0000
  C   C15       1.0  0.8346379502424415  0.0400662154748921  0.5672316358148061  1.0000
  C   C16       1.0  0.7621208551342283  0.04007527412982072  0.5512055136077637  1.0000
  C   C17       1.0  0.7254571150161069  0.9227919024684028  0.5445998558298955  1.0000
  C   C18       1.0  0.7622908020374527  0.8048312705933812  0.5512123894073084  1.0000
  C   C19       1.0  0.8347844368125362  0.8028261987563841  0.5671148322745884  1.0000
  C   C20       1.0  0.8705171412704352  0.920963685698194  0.5753744018258683  1.0000
  C   C21       1.0  0.6489698349465097  0.9227639630509242  0.5263040623511954  1.0000
  O   O1        1.0  0.6221186187304352  0.8380793733813742  0.4596374544107997  1.0000
  C   C22       1.0  0.6029436595641817  0.018706520505286997  0.5836478128573729  1.0000
  C   C23       1.0  0.5410263925498728  0.058710239509622834  0.5198616060328933  1.0000
  C   C24       1.0  0.49688068448142036  0.14796239601209416  0.5739270613167954  1.0000
  F   F1        1.0  0.43757304640128575  0.186658096064809  0.511202303609231  1.0000
  C   C25       1.0  0.5138070236970955  0.19724879080678018  0.6925421171697919  1.0000
  C   C26       1.0  0.5747265982699191  0.1569926177280696  0.757542989341714  1.0000
  C   C27       1.0  0.6190160526437469  0.06781203375912814  0.7038822802585707  1.0000
  H   H9        1.0  0.9716074167895357  0.24752399780150378  0.5954785646180472  1.0000
  H   H10       1.0  0.7341550630509789  0.1315874826909787  0.5423916416530783  1.0000
  H   H11       1.0  0.7341535491556042  0.714363215801062  0.5451595750721139  1.0000
  H   H12       1.0  0.9264224324968446  0.9201526988829323  0.5877286089252426  1.0000
  H   H13       1.0  0.862698501210743  0.4746842086448294  0.5721276668967317  1.0000
  H   H14       1.0  0.5271710132805028  0.021716447176268302  0.42769547858504375  1.0000
  H   H15       1.0  0.47961434185912155  0.26623314941377574  0.7344246262961454  1.0000
  H   H16       1.0  0.5875074991422289  0.19447355468105187  0.8499227052213751  1.0000
  H   H17       1.0  0.6653397178453432  0.0362454731846027  0.7570389112325435  1.0000
  C   C28       1.0  0.8346791504582002  0.42147419940138864  0.18577217029821314  1.0000
  C   C29       1.0  0.8726659145026316  0.538343724336845  0.17573458427602337  1.0000
  C   C30       1.0  0.8911771109743118  0.5982419654742742  0.05342008184347957  1.0000
  C   C31       1.0  0.872668686118047  0.5383925877581007  0.940490547372148  1.0000
  C   C32       1.0  0.8347432300991449  0.4214181647654845  0.9485742886181627  1.0000
  C   C33       1.0  0.8158295064912016  0.36388184935762813  0.07163714527677523  1.0000
  C   C34       1.0  0.9318543446680067  0.7210149304936571  0.042721140090819405  1.0000
  O   O2        1.0  0.9752860510573897  0.739358473659466  0.9513714104837749  1.0000
  C   C35       1.0  0.9232621418546633  0.8229699088018827  0.135595215207015  1.0000
  C   C36       1.0  0.8582446288572985  0.8455448480321637  0.1922960364655335  1.0000
  C   C37       1.0  0.8504889290370605  0.9430508597106427  0.27898138066386147  1.0000
  N   N3        1.0  0.7843216467110059  0.9649033930853572  0.3366501982225616  1.0000
  C   C38       1.0  0.9078545973304792  0.0193050756201667  0.3083673688527442  1.0000
  C   C39       1.0  0.9723247934311594  0.99868086732812  0.25120691483554847  1.0000
  C   C40       1.0  0.9800404999417024  0.9014865388966299  0.16489832754918196  1.0000
  H   H18       1.0  0.7638237886358272  0.19963460802069344  0.412178838309325  1.0000
  H   H19       1.0  0.8885469669727071  0.5821913205577107  0.263274017807142  1.0000
  H   H20       1.0  0.8873352481638499  0.5839164069494271  0.8460772610611205  1.0000
  H   H21       1.0  0.78655187459907  0.2737941415931442  0.07862252302290583  1.0000
  H   H22       1.0  0.763334753008083  0.20015758564882802  0.7565642540721154  1.0000
  H   H23       1.0  0.8133889918295721  0.78853530195662  0.16826177650226493  1.0000
  H   H24       1.0  0.7412130759111569  0.9086290535088848  0.3154308187464434  1.0000
  H   H25       1.0  0.7779675017322332  0.03742473714050343  0.4011268169208253  1.0000
  H   H26       1.0  0.9025285478529378  0.09492250461771826  0.37508885529530417  1.0000
  H   H27       1.0  0.01643840787336126  0.05815032999248616  0.27383415421813323  1.0000
  H   H28       1.0  0.030529569527692584  0.8868412398387269  0.12190009975885216  1.0000
  Zn  Zn1       1.0  0.7585543138207315  0.4214477255784826  0.567175126630943  1.0000
  Zn  Zn2       1.0  0.9108614315722167  0.42144403767596855  0.567170738576966  1.0000
  C   C41       1.0  0.8347285884166673  0.416254879248625  0.8043891494448167  1.0000
  C   C42       1.0  0.8346888204907184  0.42663852264476115  0.3299568429414205  1.0000
  C   C43       1.0  0.83475274610189  0.6586486840894614  0.5619612979633237  1.0000
  C   C44       1.0  0.8346646105398476  0.18424315743183153  0.5723847639078332  1.0000
  O   O3        1.0  0.8924918221852027  0.428364651182189  0.37834487184780663  1.0000
  O   O4        1.0  0.8925231647291518  0.4145249719422271  0.7559974163794898  1.0000
  O   O5        1.0  0.8925418933105919  0.6102610347589598  0.56023521090656  1.0000
  O   O6        1.0  0.8924730416252614  0.23262859766447863  0.5741069799379351  1.0000
  O   O7        1.0  0.7769426517927421  0.6102631655926449  0.5602388852646395  1.0000
  O   O8        1.0  0.7769239235020052  0.4145286631506777  0.756001021247316  1.0000
  O   O9        1.0  0.7768925808643714  0.42836829724742814  0.37834691519026376  1.0000
  O   O10       1.0  0.7768738003079866  0.23263223443336825  0.5741091206578595  1.0000
