data_image0
_chemical_formula_structural       NC6NCNCH5C9H8C6OCH7Zn2C4O8
_chemical_formula_sum              "N3 C28 H20 O9 Zn2"
_cell_length_a       14.933214217465613
_cell_length_b       9.275152443626249
_cell_length_c       9.273891588657152
_cell_angle_alpha    85.88202133130156
_cell_angle_beta     89.64588733206324
_cell_angle_gamma    90.60755784757023

_space_group_name_H-M_alt    "P 1"
_space_group_IT_number       1

loop_
  _space_group_symop_operation_xyz
  'x, y, z'

loop_
  _atom_site_type_symbol
  _atom_site_label
  _atom_site_symmetry_multiplicity
  _atom_site_fract_x
  _atom_site_fract_y
  _atom_site_fract_z
  _atom_site_occupancy
  N   N1        1.0  0.8584984739210817  0.5652779960799628  0.4037967284421069  1.0000
  C   C1        1.0  0.7810178007980351  0.5662660990353887  0.40280285521149645  1.0000
  C   C2        1.0  0.6846313129142267  0.5674980098363733  0.40156361857928763  1.0000
  C   C3        1.0  0.6358857297577959  0.47255948984966484  0.4970760127945992  1.0000
  C   C4        1.0  0.5423627215371924  0.47363304018007074  0.49599600297319957  1.0000
  C   C5        1.0  0.49668241469137114  0.5695907155380062  0.39945832987706437  1.0000
  C   C6        1.0  0.4000866024251741  0.5675001485999596  0.4015615404496009  1.0000
  N   N2        1.0  0.3225840400079948  0.5657561505408197  0.40331570956058604  1.0000
  C   C7        1.0  0.545538395458374  0.6657280513046047  0.3027400025845499  1.0000
  N   N3        1.0  0.50119446566897  0.7654649409128074  0.20240050794964048  1.0000
  C   C8        1.0  0.6395324675211136  0.6636966876314272  0.3047837625596985  1.0000
  H   H1        1.0  0.6701570201399908  0.39770685129151695  0.5723810692789537  1.0000
  H   H2        1.0  0.5055591162390708  0.39941007252552446  0.5706674534914549  1.0000
  H   H3        1.0  0.5382335597692733  0.835908714608417  0.13153088214883657  1.0000
  H   H4        1.0  0.4315044820503415  0.7707717945657526  0.19706164803520698  1.0000
  H   H5        1.0  0.6774532635288799  0.7371728486440439  0.2308634671705887  1.0000
  C   C9        1.0  0.08789886316858887  0.1418953213504384  0.40503050665310997  1.0000
  C   C10       1.0  0.05601222407392272  0.2234965703086722  0.2826117656681273  1.0000
  C   C11       1.0  0.032457392195708756  0.15690496319867386  0.15789178652586733  1.0000
  C   C12       1.0  0.04042108727756433  0.0075282401684884075  0.15312102774600464  1.0000
  C   C13       1.0  0.07056013558098312  0.9242277027339676  0.2745067037002592  1.0000
  C   C14       1.0  0.09319210530130233  0.9891278405225763  0.4020944240083033  1.0000
  C   C15       1.0  0.01660007975190881  0.9391881521052647  0.023965053196045142  1.0000
  C   C16       1.0  0.9966555862276417  0.8819358764077981  0.9158171727979818  1.0000
  C   C17       1.0  0.9724568938787423  0.8124583657748329  0.7845986864656304  1.0000
  H   H6        1.0  0.2155917696484383  0.2262766582706286  0.692757345262583  1.0000
  H   H7        1.0  0.05129659958120491  0.34000510562199215  0.28216326520414164  1.0000
  H   H8        1.0  0.008833426274432737  0.22227776778514396  0.06456558890891649  1.0000
  H   H9        1.0  0.07434416286101202  0.8078852769389383  0.27048188198711043  1.0000
  H   H10       1.0  0.17628275357175993  0.6956912180426275  0.5988943230906412  1.0000
  H   H11       1.0  0.988781513532357  0.6958749002970281  0.7980473016053802  1.0000
  H   H12       1.0  0.8996391074963376  0.8247877997390928  0.7649418553873071  1.0000
  H   H13       1.0  0.010592248713905406  0.8640040409843024  0.6912611123700434  1.0000
  C   C18       1.0  0.09198861938091346  0.5616925224868283  0.9802988711033387  1.0000
  C   C19       1.0  0.16570419258328295  0.6226989857833656  0.04858541435849317  1.0000
  C   C20       1.0  0.23440759041962422  0.6944722048568495  0.9684564461308804  1.0000
  C   C21       1.0  0.22964174713516838  0.7056006852251355  0.8169822621722043  1.0000
  C   C22       1.0  0.15780205950231382  0.643722683893801  0.747354598213986  1.0000
  C   C23       1.0  0.08910232143032482  0.5693305521947921  0.8268260728670618  1.0000
  O   O1        1.0  0.3056665145726023  0.7537000133156813  0.043384586791551195  1.0000
  C   C24       1.0  0.3798824226229889  0.8296957139061404  0.9759686941176295  1.0000
  H   H14       1.0  0.8784349445418954  0.47287121398715715  0.0918439073840247  1.0000
  H   H15       1.0  0.2815709875312489  0.7607396704178002  0.7518157664835674  1.0000
  H   H16       1.0  0.15712595330082477  0.6511567529366231  0.6302484058905695  1.0000
  H   H17       1.0  0.9466510945521407  0.5038136542027241  0.5517571753314781  1.0000
  H   H18       1.0  0.35645458723090817  0.9272910039182108  0.911259730366905  1.0000
  H   H19       1.0  0.416773445419159  0.7581395626286231  0.9057654373591005  1.0000
  H   H20       1.0  0.42593731939265234  0.8642241360429338  0.06064523844887936  1.0000
  Zn  Zn1       1.0  0.9924234915076247  0.5654121855373209  0.40366626238370285  1.0000
  Zn  Zn2       1.0  0.1886588934639737  0.5656102333792346  0.40345805309790816  1.0000
  C   C25       1.0  0.08961000631861075  0.5621399576162851  0.6668342413005286  1.0000
  C   C26       1.0  0.0914745324269417  0.5688842849059863  0.1402902070688199  1.0000
  C   C27       1.0  0.0922065380284185  0.82893100287764  0.39690575800420513  1.0000
  C   C28       1.0  0.0888779226653984  0.3020915070977752  0.4102187732871567  1.0000
  O   O2        1.0  0.16577227318245913  0.5713667707313752  0.19390576842858986  1.0000
  O   O3        1.0  0.16425038968536407  0.5598066935081338  0.6130602427675034  1.0000
  O   O4        1.0  0.16634611287324974  0.7752438490995401  0.39509107858402387  1.0000
  O   O5        1.0  0.1636764834656721  0.35592962441678533  0.41187482457574287  1.0000
  O   O6        1.0  0.017405834540449753  0.7750927944336876  0.39524949096933304  1.0000
  O   O7        1.0  0.015310122438823242  0.5596573713230553  0.6132185722942638  1.0000
  O   O8        1.0  0.016832011589904994  0.5712173826404436  0.19406236520353093  1.0000
  O   O9        1.0  0.0147362214365432  0.3557802269829553  0.4120315294504753  1.0000
