data_image0
_chemical_formula_structural       NC10NC3NCH9C12OCH12C12NCOCH12Zn2C4O8
_chemical_formula_sum              "N4 C45 H33 O10 Zn2"
_cell_length_a       19.437513618241372
_cell_length_b       10.299790755002418
_cell_length_c       10.299158637457994
_cell_angle_alpha    85.57636928067032
_cell_angle_beta     90.32911859646087
_cell_angle_gamma    89.50469088654314

_space_group_name_H-M_alt    "P 1"
_space_group_IT_number       1

loop_
  _space_group_symop_operation_xyz
  'x, y, z'

loop_
  _atom_site_type_symbol
  _atom_site_label
  _atom_site_symmetry_multiplicity
  _atom_site_fract_x
  _atom_site_fract_y
  _atom_site_fract_z
  _atom_site_occupancy
  N   N1        1.0  0.6478570455301167  0.40996832345664375  0.5756153043939226  1.0000
  C   C1        1.0  0.5889213528268467  0.42697732994395965  0.5726392663529601  1.0000
  C   C2        1.0  0.5154779328441532  0.44822853343139446  0.5689452229180556  1.0000
  C   C3        1.0  0.47373331901806437  0.3470359789371485  0.5572858153475753  1.0000
  C   C4        1.0  0.3978426636888132  0.35709851756560596  0.5500644012869553  1.0000
  C   C5        1.0  0.3582469674642406  0.43796577493995287  0.6158075358389674  1.0000
  C   C6        1.0  0.2820672027438564  0.42935509945922656  0.6073633534104369  1.0000
  C   C7        1.0  0.2489503189483376  0.3080128601872745  0.6120067602177057  1.0000
  C   C8        1.0  0.1772175672722174  0.3016390508272695  0.6048386342515282  1.0000
  C   C9        1.0  0.1376311037675873  0.4161349058738275  0.5933893365310385  1.0000
  C   C10       1.0  0.0637839542799262  0.40942287033711516  0.586053117573653  1.0000
  N   N2        1.0  0.004415943968844903  0.40402698395979497  0.5801552559418812  1.0000
  C   C11       1.0  0.1700313486270476  0.537166793235362  0.5894912127502469  1.0000
  C   C12       1.0  0.24174845666690373  0.5437946095388875  0.5967213607556927  1.0000
  C   C13       1.0  0.3869049887389753  0.5302757400722626  0.7057283288273156  1.0000
  N   N3        1.0  0.44388261254277844  0.5934818427723607  0.6853239527083947  1.0000
  C   C14       1.0  0.4877383820914836  0.5841885707776318  0.5722153494942537  1.0000
  H   H1        1.0  0.49613368981524864  0.25197720888529407  0.5451644844205867  1.0000
  H   H2        1.0  0.3731463817408446  0.2875703910898191  0.4917457195598707  1.0000
  H   H3        1.0  0.2784134318133189  0.21810502676211915  0.6230276940253902  1.0000
  H   H4        1.0  0.15263831329046829  0.20741482115117305  0.6087258261070896  1.0000
  H   H5        1.0  0.1398827788134781  0.6264203808242119  0.5807824478722476  1.0000
  H   H6        1.0  0.26584612601246915  0.6384316303779625  0.5928187090355888  1.0000
  H   H7        1.0  0.3568884676376628  0.5506850358353637  0.790095759166611  1.0000
  H   H8        1.0  0.5304792723718356  0.6545019517073738  0.5779788141628739  1.0000
  H   H9        1.0  0.4580777406084929  0.612271365279663  0.4815689483664913  1.0000
  C   C15       1.0  0.826201613879749  0.02562879886427583  0.5779250790290089  1.0000
  C   C16       1.0  0.8062638063686216  0.014840317267865498  0.7091109003753249  1.0000
  C   C17       1.0  0.7961065761753823  0.8922383245288874  0.7755499069398724  1.0000
  C   C18       1.0  0.8061402130004266  0.7795600607916034  0.7090435407910731  1.0000
  C   C19       1.0  0.8260779901281773  0.788356327803886  0.5778567865316685  1.0000
  C   C20       1.0  0.8359986516449631  0.9118339309313658  0.513032804397134  1.0000
  C   C21       1.0  0.7750176965790829  0.8818787562103386  0.9143384497321738  1.0000
  C   C22       1.0  0.7248101869154941  0.7918647029270316  0.958765278588682  1.0000
  C   C23       1.0  0.7050238721393531  0.7823871458755796  0.0892539981802003  1.0000
  C   C24       1.0  0.7349997009157059  0.8622630961356595  0.17698491797074767  1.0000
  C   C25       1.0  0.7853900544246877  0.9528838336050883  0.13443214597528885  1.0000
  C   C26       1.0  0.8049631707566376  0.9620035738298317  0.0034140056082930833  1.0000
  O   O1        1.0  0.8171777861437215  0.035083012809889125  0.21870635211440634  1.0000
  C   C27       1.0  0.8024047719122371  0.03635288732813091  0.35385601582913817  1.0000
  H   H10       1.0  0.8338288783715225  0.35719065642268  0.5279593253833113  1.0000
  H   H11       1.0  0.7976755183818324  0.10202692998729757  0.7594309283763185  1.0000
  H   H12       1.0  0.7992728391337319  0.6847918525943029  0.7603246055065798  1.0000
  H   H13       1.0  0.8513803572648104  0.9193883833756691  0.4118284925475472  1.0000
  H   H14       1.0  0.833640962406469  0.4642572081618692  0.5278525787081285  1.0000
  H   H15       1.0  0.7002132503001122  0.7300230322118003  0.8922417501434581  1.0000
  H   H16       1.0  0.6661616148387167  0.7130761216718553  0.1224383854951938  1.0000
  H   H17       1.0  0.7186781059745714  0.8528197975459006  0.27744492336351834  1.0000
  H   H18       1.0  0.8443802912814506  0.030879656562675214  0.9717495594197384  1.0000
  H   H19       1.0  0.8142809075600665  0.9396431572193468  0.404630433562135  1.0000
  H   H20       1.0  0.8348637985236457  0.11046538262732208  0.3964841416730034  1.0000
  H   H21       1.0  0.7474793506284663  0.06218368630619242  0.36759232567164013  1.0000
  C   C28       1.0  0.8262043169499773  0.40685353545065034  0.1965186974784523  1.0000
  C   C29       1.0  0.827780695274487  0.5435301059132474  0.1852132754653366  1.0000
  C   C30       1.0  0.8285259198520639  0.6129677751744733  0.062322937717546475  1.0000
  C   C31       1.0  0.8276489312664359  0.5438921701598207  0.9499000877015558  1.0000
  C   C32       1.0  0.8260752673089622  0.4071316458377974  0.9592632454591854  1.0000
  C   C33       1.0  0.825365658010772  0.33945318659072643  0.0829605288175026  1.0000
  C   C34       1.0  0.8301943591794484  0.7575548014843296  0.05133673755817725  1.0000
  C   C35       1.0  0.8724111862398014  0.8246850295146189  0.13443572803225456  1.0000
  C   C36       1.0  0.8739868826957855  0.9607489533703721  0.12396634839953767  1.0000
  C   C37       1.0  0.8338133022220822  0.03240352050820405  0.029299065749611494  1.0000
  C   C38       1.0  0.7907770825319946  0.9656473330562306  0.9479726900002756  1.0000
  C   C39       1.0  0.7892296277640635  0.8296108479671551  0.9581814399313844  1.0000
  N   N4        1.0  0.833527860868637  0.17245381815818206  0.018047811060818434  1.0000
  C   C40       1.0  0.8924611113984595  0.2504594498607937  0.04202285675330697  1.0000
  O   O2        1.0  0.9517879304149269  0.20005836268164232  0.05129870503371791  1.0000
  C   C41       1.0  0.8843674199023146  0.3944090214412066  0.0465097898283655  1.0000
  H   H22       1.0  0.8274713778230439  0.5963523442263852  0.2721555750216369  1.0000
  H   H23       1.0  0.8291319063168208  0.5968808978278097  0.8549427274791324  1.0000
  H   H24       1.0  0.824152115778363  0.23403131531547847  0.09096579779799785  1.0000
  H   H25       1.0  0.8235227382771835  0.14898097327007376  0.7696488191729673  1.0000
  H   H26       1.0  0.9046202895104226  0.7719214429768254  0.20704294496965933  1.0000
  H   H27       1.0  0.9057265751340969  0.009559496819969924  0.19139768661376189  1.0000
  H   H28       1.0  0.7585874269141277  0.019285600153654776  0.875934934768645  1.0000
  H   H29       1.0  0.7552359643728377  0.7807910829380749  0.8944056483690539  1.0000
  H   H30       1.0  0.7889216882436422  0.22065194861538015  0.9825289685174377  1.0000
  H   H31       1.0  0.8359863594008498  0.41692981618111385  0.09730966823778764  1.0000
  H   H32       1.0  0.8825100910631788  0.4411071673289144  0.9457632661831313  1.0000
  H   H33       1.0  0.9282541218816156  0.43444524520578254  0.09971978664706271  1.0000
  Zn  Zn1       1.0  0.7507522463272092  0.40825029474094693  0.5769329456746934  1.0000
  Zn  Zn2       1.0  0.9015207493058636  0.4057343470207244  0.5788482855818227  1.0000
  C   C42       1.0  0.8260989622153422  0.40190540606082464  0.8150886116903018  1.0000
  C   C43       1.0  0.8261756795178942  0.4120808468922137  0.34069276780261815  1.0000
  C   C44       1.0  0.8260986748555004  0.6441827857128672  0.5726944708912107  1.0000
  C   C45       1.0  0.8261759156722075  0.16980190782194124  0.5830869773269853  1.0000
  O   O3        1.0  0.8833819305962889  0.4128747255769498  0.389805764869632  1.0000
  O   O4        1.0  0.8833225165741301  0.3992010014130747  0.7674289395331999  1.0000
  O   O5        1.0  0.8833215130017712  0.5948430628611032  0.5716939459397652  1.0000
  O   O6        1.0  0.8833828827365399  0.21723267424216086  0.5855406604331379  1.0000
  O   O7        1.0  0.7688900614466435  0.5967519683794912  0.5702405701629361  1.0000
  O   O8        1.0  0.7688910647746408  0.4011114672096742  0.7659754943706529  1.0000
  O   O9        1.0  0.7689504791140749  0.41478514554756724  0.38835075829733884  1.0000
  O   O10       1.0  0.768951431236544  0.21914308495951995  0.5840857512303312  1.0000
