data_image0
_chemical_formula_structural       NC10NC5H10C12OCH12C12BrH8Zn2C4O8
_chemical_formula_sum              "N2 C44 H30 O9 Br1 Zn2"
_cell_length_a       19.4436361288709
_cell_length_b       10.29979075500242
_cell_length_c       10.299148005577397
_cell_angle_alpha    85.54790519994738
_cell_angle_beta     89.67790826124899
_cell_angle_gamma    89.40046160214462

_space_group_name_H-M_alt    "P 1"
_space_group_IT_number       1

loop_
  _space_group_symop_operation_xyz
  'x, y, z'

loop_
  _atom_site_type_symbol
  _atom_site_label
  _atom_site_symmetry_multiplicity
  _atom_site_fract_x
  _atom_site_fract_y
  _atom_site_fract_z
  _atom_site_occupancy
  N   N1        1.0  0.6477682318487943  0.4095093176044753  0.5619340839982918  1.0000
  C   C1        1.0  0.5889279824694429  0.41940658145107057  0.5763182746493325  1.0000
  C   C2        1.0  0.5155933084224701  0.43174977912334184  0.5943108639192085  1.0000
  C   C3        1.0  0.4734324746697259  0.39978322867913874  0.4996337937900741  1.0000
  C   C4        1.0  0.397525072014187  0.4102197672899072  0.5049615628671136  1.0000
  C   C5        1.0  0.35776975498289765  0.3854378172016234  0.6120412710102816  1.0000
  C   C6        1.0  0.2816509969948197  0.3893585531987247  0.5990809583297148  1.0000
  C   C7        1.0  0.24106081388756795  0.4469896688986643  0.6928534528348271  1.0000
  C   C8        1.0  0.1693987973924063  0.4506307698405294  0.6823087666043035  1.0000
  C   C9        1.0  0.1373322202135634  0.3962446541247051  0.5782781509022916  1.0000
  C   C10       1.0  0.0635409781240159  0.3999470475939724  0.5675781706645096  1.0000
  N   N2        1.0  0.00421782445104  0.402923577618032  0.5589760959465089  1.0000
  C   C11       1.0  0.17719755774567472  0.3379063290164037  0.48488895285122635  1.0000
  C   C12       1.0  0.24887605983404573  0.3342110847405204  0.49518185099271417  1.0000
  C   C13       1.0  0.38588453394772165  0.3449353896621974  0.7431453912053456  1.0000
  C   C14       1.0  0.4445320124982194  0.3880419596619604  0.7903880014891989  1.0000
  C   C15       1.0  0.4887371847856415  0.4859234058405135  0.7160108984081592  1.0000
  H   H1        1.0  0.4955534189994982  0.3706951247898705  0.4093237049491616  1.0000
  H   H2        1.0  0.37284051638691057  0.4327440700622538  0.4117968288861542  1.0000
  H   H3        1.0  0.2649087621621302  0.49025450905996154  0.7737037212678486  1.0000
  H   H4        1.0  0.1390326415468882  0.49592185822910917  0.7552310201300743  1.0000
  H   H5        1.0  0.15287763108289962  0.29483703848698856  0.40437317447306426  1.0000
  H   H6        1.0  0.27857684128310267  0.2866763962934007  0.4229560969898249  1.0000
  H   H7        1.0  0.354917606637301  0.28069813231492735  0.8073994902658383  1.0000
  H   H8        1.0  0.4596690931189404  0.3539436244401035  0.888329745015134  1.0000
  H   H9        1.0  0.4586178534237617  0.5766452602194748  0.6907524154395482  1.0000
  H   H10       1.0  0.5320060828706002  0.5114891106782511  0.7790978636020861  1.0000
  C   C16       1.0  0.8260581169747558  0.024847486667778373  0.5604935267567736  1.0000
  C   C17       1.0  0.8061163468632492  0.01402973494802606  0.6921039061985641  1.0000
  C   C18       1.0  0.7959571280691944  0.8914130259373062  0.758759186225396  1.0000
  C   C19       1.0  0.8059927964314555  0.7787497345004148  0.6920391429578412  1.0000
  C   C20       1.0  0.8259345362403837  0.7875752721542291  0.5604278312043194  1.0000
  C   C21       1.0  0.8358571348590708  0.9110672152099413  0.4953926154844059  1.0000
  C   C22       1.0  0.774864054879788  0.8810224832555169  0.8979967993482036  1.0000
  C   C23       1.0  0.7246684842377634  0.791076771075324  0.9434812361781035  1.0000
  C   C24       1.0  0.7048782139979423  0.781570017418974  0.07439130003133665  1.0000
  C   C25       1.0  0.7348381564636715  0.8613484027954721  0.16149538898350557  1.0000
  C   C26       1.0  0.7852163714140111  0.9518995388613448  0.11788123945928042  1.0000
  C   C27       1.0  0.8047935489506977  0.9610491226323812  0.9864462168763809  1.0000
  O   O1        1.0  0.8169879280379392  0.03399960765901767  0.20149037284728077  1.0000
  C   C28       1.0  0.8022090688791106  0.03522894215803829  0.3369561433876247  1.0000
  H   H11       1.0  0.833686880525369  0.356420432420549  0.5103653660657348  1.0000
  H   H12       1.0  0.7975268263714191  0.10120681405731859  0.7426065649693381  1.0000
  H   H13       1.0  0.799123590440844  0.6839684162628847  0.7434666878858709  1.0000
  H   H14       1.0  0.8512418972953496  0.9186442473608957  0.39386076386715946  1.0000
  H   H15       1.0  0.8334990301743868  0.46348737558673114  0.5102625667936198  1.0000
  H   H16       1.0  0.7000841643682956  0.7293124431350372  0.877472279549707  1.0000
  H   H17       1.0  0.6660252901403315  0.712312489338901  0.1083942620922712  1.0000
  H   H18       1.0  0.7185138490125307  0.8518845868049632  0.26230266918601153  1.0000
  H   H19       1.0  0.8442010499425415  0.0298699549433039  0.9539515888921144  1.0000
  H   H20       1.0  0.8140776827960247  0.9384726008281792  0.3874828618792886  1.0000
  H   H21       1.0  0.8346549076126599  0.10926180814710709  0.3789034022908637  1.0000
  H   H22       1.0  0.7472993811000334  0.06115182532724295  0.3518480384307885  1.0000
  C   C29       1.0  0.8260900559249702  0.40626170269674683  0.17907172566963145  1.0000
  C   C30       1.0  0.7613854065706963  0.46823686268704107  0.17416631802867855  1.0000
  C   C31       1.0  0.7284819303166047  0.4996081175404817  0.054541713859485697  1.0000
  C   C32       1.0  0.7611558671659838  0.46816829879252136  0.9388911942755382  1.0000
  C   C33       1.0  0.8259025643563762  0.40616109519044796  0.9418496440564987  1.0000
  C   C34       1.0  0.8579708404928198  0.3755876438387915  0.0623669373281861  1.0000
  C   C35       1.0  0.6600327116807193  0.5651722801200032  0.05039729658134484  1.0000
  C   C36       1.0  0.645568980759569  0.6667570491328453  0.1305864746617278  1.0000
  C   C37       1.0  0.581113521972594  0.7283567488213647  0.1264911934167174  1.0000
  C   C38       1.0  0.5303891196911037  0.6893503091252056  0.04255096636161482  1.0000
  C   C39       1.0  0.5441619197469809  0.5885651695001248  0.9625149877106751  1.0000
  C   C40       1.0  0.6085589397313161  0.5267445845807681  0.9662182348452033  1.0000
  Br  Br1       1.0  0.4423834219825067  0.7736467698370482  0.037223800143099554  1.0000
  H   H23       1.0  0.7360019895077002  0.49065203398797275  0.26371455000487803  1.0000
  H   H24       1.0  0.7364509602068665  0.49371964790478706  0.8462775347601305  1.0000
  H   H25       1.0  0.9078801464522069  0.32778857618896234  0.06543455024100475  1.0000
  H   H26       1.0  0.9483004880300461  0.28985744086598403  0.7400830089698154  1.0000
  H   H27       1.0  0.6843720542782616  0.6996571618197607  0.19516911446756116  1.0000
  H   H28       1.0  0.5707144470321499  0.8066150403040336  0.18837516588892675  1.0000
  H   H29       1.0  0.5049516280802807  0.5578245619518785  0.8976285379593305  1.0000
  H   H30       1.0  0.6178072350066991  0.44781826508649286  0.9045449662281126  1.0000
  Zn  Zn1       1.0  0.7506318845218248  0.4076053429439173  0.5610879853758092  1.0000
  Zn  Zn2       1.0  0.9013541623867541  0.4048169431869355  0.5598328772237182  1.0000
  C   C41       1.0  0.8259373169124876  0.4010064548668266  0.797668770815681  1.0000
  C   C42       1.0  0.826050375581806  0.41141743941748904  0.32325220541022337  1.0000
  C   C43       1.0  0.8259556103632868  0.6434042574749583  0.5552648726494998  1.0000
  C   C44       1.0  0.8260320309358599  0.16901807744919362  0.565656173381254  1.0000
  O   O2        1.0  0.8832353783682896  0.41208390284211394  0.3711641850011007  1.0000
  O   O3        1.0  0.8831470358000285  0.3982226808726852  0.7488038193972165  1.0000
  O   O4        1.0  0.883161036600281  0.5939619861040448  0.5530609628849423  1.0000
  O   O5        1.0  0.8832213261591623  0.21634460786531284  0.5669069445610686  1.0000
  O   O6        1.0  0.7687646693153019  0.5960776792184987  0.554013918459934  1.0000
  O   O7        1.0  0.7687506682760812  0.40033993430026094  0.7497567055888343  1.0000
  O   O8        1.0  0.7688390112812105  0.4142011112188517  0.37211550971340857  1.0000
  O   O9        1.0  0.7688249590468428  0.21846180694045048  0.5678583666471586  1.0000
