data_image0
_chemical_formula_structural       NC8NH4C6ClH5C9H9Zn2C4O8
_chemical_formula_sum              "N2 C27 H18 Cl1 Zn2 O8"
_cell_length_a       11.048855714531884
_cell_length_b       9.276545438789551
_cell_length_c       9.273585224739813
_cell_angle_alpha    86.17382153224601
_cell_angle_beta     90.102074716351
_cell_angle_gamma    89.40961225544244

_space_group_name_H-M_alt    "P 1"
_space_group_IT_number       1

loop_
  _space_group_symop_operation_xyz
  'x, y, z'

loop_
  _atom_site_type_symbol
  _atom_site_label
  _atom_site_symmetry_multiplicity
  _atom_site_fract_x
  _atom_site_fract_y
  _atom_site_fract_z
  _atom_site_occupancy
  N   N1        1.0  0.12379187994781994  0.5619604822161226  0.41108662469813506  1.0000
  C   C1        1.0  0.06966215380675722  0.5031570318347083  0.32606991809619923  1.0000
  C   C2        1.0  0.002124945277437904  0.42978708762239737  0.21999306476532274  1.0000
  C   C3        1.0  0.8744081916822831  0.4297868980966692  0.2199931663700969  1.0000
  C   C4        1.0  0.8121084779164361  0.35725743674778565  0.11513175606078939  1.0000
  C   C5        1.0  0.8760010701144739  0.2853016830847557  0.011099719126577812  1.0000
  C   C6        1.0  0.002407283518475194  0.2853015732004298  0.011099741724501566  1.0000
  C   C7        1.0  0.0653660158425955  0.3572575348934852  0.1151317284041553  1.0000
  C   C8        1.0  0.8059187320619182  0.5031571066277043  0.32606990500854205  1.0000
  N   N2        1.0  0.7510257657583368  0.5619605251751314  0.41108665351285345  1.0000
  H   H1        1.0  0.7140521300764248  0.35634919295247425  0.11381799728192708  1.0000
  H   H2        1.0  0.8274654010882583  0.22949112656918055  0.9304106650352084  1.0000
  H   H3        1.0  0.0516674413679965  0.22949123597532428  0.9304106644908287  1.0000
  H   H4        1.0  0.16343414265023615  0.35634914669788315  0.11381827235587871  1.0000
  C   C9        1.0  0.44106705140103203  0.13852293637483437  0.4108490405269695  1.0000
  C   C10       1.0  0.44132630232950576  0.22082657812375928  0.2778156802850806  1.0000
  C   C11       1.0  0.43057872358062943  0.15442869540418758  0.14767781433259008  1.0000
  C   C12       1.0  0.41931900707500486  0.004846603714998787  0.14857116948359095  1.0000
  C   C13       1.0  0.42092338273417634  0.9209798072971974  0.27916270080217664  1.0000
  C   C14       1.0  0.43376235252615003  0.98538710468405  0.41133670282710505  1.0000
  Cl  Cl1       1.0  0.42939499218936295  0.2593829938864163  0.9831305322858643  1.0000
  H   H5        1.0  0.503305489955254  0.4037777894148325  0.6374525138570099  1.0000
  H   H6        1.0  0.44699316401002337  0.3375182324157511  0.2749620637363117  1.0000
  H   H7        1.0  0.4104747331079804  0.9531049411337766  0.04788874562904176  1.0000
  H   H8        1.0  0.41500239711062925  0.8046924896782718  0.2765123505076516  1.0000
  H   H9        1.0  0.3935386269766743  0.6890128304954952  0.6444014240880678  1.0000
  C   C15       1.0  0.43681811690323635  0.5576667564469568  0.9878388732007051  1.0000
  C   C16       1.0  0.5451056176491424  0.5255515607910477  0.06377716037229408  1.0000
  C   C17       1.0  0.6549191394393895  0.5064144388364845  0.9915057737812204  1.0000
  C   C18       1.0  0.6554539365266486  0.5202032201874194  0.8394544880210872  1.0000
  C   C19       1.0  0.5484832640587233  0.549607320452874  0.762510920397488  1.0000
  C   C20       1.0  0.43801126334581003  0.5662432374577788  0.8343468525104096  1.0000
  C   C21       1.0  0.7673839217033056  0.4733469510665737  0.08300194550146212  1.0000
  C   C22       1.0  0.8628764508777792  0.3744108118293583  0.022707038858059022  1.0000
  C   C23       1.0  0.8865786228127976  0.5356368053120133  0.02670376137319885  1.0000
  H   H10       1.0  0.23720886009964362  0.538835913253908  0.2691122379325426  1.0000
  H   H11       1.0  0.5445891464891217  0.518592716194284  0.18094266193418115  1.0000
  H   H12       1.0  0.737654374788789  0.5071745399046278  0.77851266387156  1.0000
  H   H13       1.0  0.2570905371393277  0.6686981803616374  0.5457357196059984  1.0000
  H   H14       1.0  0.7595093824631399  0.46404734342120885  0.2027584390461259  1.0000
  H   H15       1.0  0.8469177024786265  0.3373056046575506  0.9131078356053486  1.0000
  H   H16       1.0  0.9136890165646109  0.3068986683910415  0.10618946125006734  1.0000
  H   H17       1.0  0.8849636626606607  0.5962900651482528  0.9195195378296819  1.0000
  H   H18       1.0  0.9512325602968467  0.5623802865385719  0.11252665575401655  1.0000
  Zn  Zn1       1.0  0.3047980898560257  0.5619567105523711  0.4110949511141422  1.0000
  Zn  Zn2       1.0  0.5700197016175303  0.5619525895360478  0.4110901160323539  1.0000
  C   C24       1.0  0.43783257572841683  0.5588777184899184  0.6743354140483326  1.0000
  C   C25       1.0  0.4369880964630475  0.5650334023619951  0.147849795558882  1.0000
  C   C26       1.0  0.4351287473208707  0.8252535256684062  0.4055009618969978  1.0000
  C   C27       1.0  0.4396918494204929  0.2986558635443659  0.4166843235572756  1.0000
  O   O1        1.0  0.5376954168669721  0.5674978613943471  0.2015490843093874  1.0000
  O   O2        1.0  0.5384223306392243  0.5564090397024788  0.6206320400513539  1.0000
  O   O3        1.0  0.5362376003048355  0.771510887986206  0.4035463187788846  1.0000
  O   O4        1.0  0.5398800564578956  0.3523960223321354  0.4186346975202898  1.0000
  O   O5        1.0  0.3349376445085166  0.7715132777591824  0.4035503696202758  1.0000
  O   O6        1.0  0.3371223597858626  0.5564131611174956  0.6206360150397559  1.0000
  O   O7        1.0  0.3363954440850483  0.5675019150042973  0.20155132638227635  1.0000
  O   O8        1.0  0.3385800839122937  0.35240006672346924  0.4186370476488157  1.0000
