data_image0
_chemical_formula_structural       NC8NC6H8C6NO2H5C8NH10Zn2C4O8
_chemical_formula_sum              "N4 C32 H23 O10 Zn2"
_cell_length_a       17.457602349358154
_cell_length_b       9.273392599741051
_cell_length_c       9.275652972338538
_cell_angle_alpha    86.06806642986213
_cell_angle_beta     93.30040864466163
_cell_angle_gamma    91.0881455882028

_space_group_name_H-M_alt    "P 1"
_space_group_IT_number       1

loop_
  _space_group_symop_operation_xyz
  'x, y, z'

loop_
  _atom_site_type_symbol
  _atom_site_label
  _atom_site_symmetry_multiplicity
  _atom_site_fract_x
  _atom_site_fract_y
  _atom_site_fract_z
  _atom_site_occupancy
  N   N1        1.0  0.7074324413913677  0.6025977771802794  0.4776898155492237  1.0000
  C   C1        1.0  0.6465886168187835  0.5515284454530812  0.4658188846995807  1.0000
  C   C2        1.0  0.5708963233758303  0.4880046136037621  0.4510620515826918  1.0000
  C   C3        1.0  0.5124541851034249  0.5331627941365915  0.5342941286214127  1.0000
  C   C4        1.0  0.4381897302450475  0.47199543982376974  0.5202233929811955  1.0000
  C   C5        1.0  0.37616258520691365  0.5196776373803116  0.608369084237186  1.0000
  C   C6        1.0  0.3012553307737871  0.5397592734782007  0.5464892412378234  1.0000
  C   C7        1.0  0.24281479507104056  0.5847140684179464  0.6298408404540501  1.0000
  C   C8        1.0  0.1664558423307431  0.6054515500442375  0.5655023021531027  1.0000
  N   N2        1.0  0.1050762005715739  0.6221174033136905  0.5137742733449377  1.0000
  C   C9        1.0  0.2587901191979521  0.609861034573921  0.7756373323768935  1.0000
  C   C10       1.0  0.33291200794693465  0.5902142141345649  0.8379482371171435  1.0000
  C   C11       1.0  0.3913418676941551  0.5454627981843942  0.7551051729898253  1.0000
  C   C12       1.0  0.42365384787913174  0.36490692470201647  0.42132837651661226  1.0000
  C   C13       1.0  0.4820843368573626  0.32006118514906823  0.33854093194870843  1.0000
  C   C14       1.0  0.5555657787978672  0.3813574773488724  0.35322247887800806  1.0000
  H   H1        1.0  0.5246335010859073  0.6171533182302753  0.6084118234313933  1.0000
  H   H2        1.0  0.2885491790243382  0.5223644329712145  0.43318477975821695  1.0000
  H   H3        1.0  0.2140011703239677  0.6445951944486608  0.8410190268491828  1.0000
  H   H4        1.0  0.345093253611326  0.609335626589526  0.9508411323194662  1.0000
  H   H5        1.0  0.4481239221612513  0.5291678096588788  0.806269250715576  1.0000
  H   H6        1.0  0.36739953017554366  0.31449200224624496  0.409418428768078  1.0000
  H   H7        1.0  0.4704066753890568  0.23730112969509953  0.26309480201902424  1.0000
  H   H8        1.0  0.6003623657687484  0.3456616066463068  0.2884066844304338  1.0000
  C   C15       1.0  0.9085933487289634  0.18893770550056524  0.49503791944928416  1.0000
  C   C16       1.0  0.8982958126000727  0.2708922963568093  0.3624367840310314  1.0000
  C   C17       1.0  0.8812461392297954  0.20410544489654847  0.2340005260769131  1.0000
  C   C18       1.0  0.873932226707464  0.053338714395962494  0.2345750173397112  1.0000
  C   C19       1.0  0.8854225990135282  0.9702675433617699  0.3662792884418198  1.0000
  C   C20       1.0  0.9039227387427379  0.03576675881905712  0.49643925536453554  1.0000
  N   N3        1.0  0.8556717086916774  0.9850465494009936  0.10180244678704442  1.0000
  O   O1        1.0  0.8450922769491386  0.06676395128911984  0.9728788159330913  1.0000
  O   O2        1.0  0.8489159072428561  0.8507832178876471  0.10141949523032823  1.0000
  H   H9        1.0  0.8943825479629817  0.26710197051492623  0.8475089623742993  1.0000
  H   H10       1.0  0.9016330347566343  0.3878698210746323  0.35848110139344547  1.0000
  H   H11       1.0  0.873009982635605  0.27095147104696743  0.13418891999602844  1.0000
  H   H12       1.0  0.8817206382845135  0.8534905791648455  0.3669693552498867  1.0000
  H   H13       1.0  0.8969723802086579  0.7389502088766042  0.7348943640262953  1.0000
  C   C21       1.0  0.9045654045832249  0.6094581652535702  0.07230820952356876  1.0000
  C   C22       1.0  0.8542770310999787  0.7013326418769593  0.13409516911155328  1.0000
  C   C23       1.0  0.8100006363948314  0.8019183446847378  0.04759865142134889  1.0000
  C   C24       1.0  0.8149838390398755  0.8091895907327322  0.8972806200582858  1.0000
  C   C25       1.0  0.8635824523769466  0.7172963680612281  0.8339323829513314  1.0000
  C   C26       1.0  0.9079507042885917  0.6152463438670601  0.9191689889171313  1.0000
  C   C27       1.0  0.7556036023535397  0.8979195541509011  0.11541869238808643  1.0000
  C   C28       1.0  0.6770995033257042  0.8235967687402413  0.128930296277449  1.0000
  N   N4        1.0  0.6245215887678031  0.9184837755076459  0.19257698690030334  1.0000
  H   H14       1.0  0.9619873379654049  0.39799208672096364  0.3736645122875397  1.0000
  H   H15       1.0  0.8506494013478654  0.6971418778411389  0.25058486157952825  1.0000
  H   H16       1.0  0.7805325562986862  0.8851841961490409  0.8287385077986249  1.0000
  H   H17       1.0  0.864933588415584  0.7235569622052422  0.7170484662877423  1.0000
  H   H18       1.0  0.7794930461565754  0.9244346723941387  0.22435546581067967  1.0000
  H   H19       1.0  0.7488867153903851  0.0017174501501200387  0.04872403594418496  1.0000
  H   H20       1.0  0.6532440530302582  0.7982421467939  0.019581950253060535  1.0000
  H   H21       1.0  0.6830854314260835  0.7205927678580315  0.1974435848820697  1.0000
  H   H22       1.0  0.5705943814720017  0.8674033845654001  0.19198178995899196  1.0000
  H   H23       1.0  0.6424490306658853  0.9265826636908601  0.30133930871453796  1.0000
  Zn  Zn1       1.0  0.8221838953522573  0.6082269098203132  0.48811132968360815  1.0000
  Zn  Zn2       1.0  0.9903248447539399  0.6164765294718655  0.5033645448445201  1.0000
  C   C29       1.0  0.9073407597022289  0.6084080130941087  0.7590845122950254  1.0000
  C   C30       1.0  0.9051698070294549  0.6162973365509006  0.23239167333321387  1.0000
  C   C31       1.0  0.9047786633965899  0.8756586024566065  0.4904280938924332  1.0000
  C   C32       1.0  0.9077318558222549  0.34904501255140463  0.5010481605392056  1.0000
  O   O3        1.0  0.9691812987302337  0.6217170221120281  0.2919056514192846  1.0000
  O   O4        1.0  0.9709443624207321  0.6092485073779206  0.7111469547028517  1.0000
  O   O5        1.0  0.9688745830745852  0.8250567061775669  0.49420492050195586  1.0000
  O   O6        1.0  0.9712510202121947  0.4059088300729976  0.5088475723181636  1.0000
  O   O7        1.0  0.8412576625157094  0.8187946064055089  0.48262829699720905  1.0000
  O   O8        1.0  0.8433274319964027  0.6029881394291877  0.6995702571819497  1.0000
  O   O9        1.0  0.8415643617040638  0.6154565920707824  0.2803272202110636  1.0000
  O   O10       1.0  0.8436340836719174  0.3996483904574635  0.4972692491992042  1.0000
