data_image0
_chemical_formula_structural       NC9NC5H8C12NCOCH13C12BrH9Zn2C4O8
_chemical_formula_sum              "N3 C44 H30 O9 Br1 Zn2"
_cell_length_a       17.807436237873137
_cell_length_b       10.299155265289647
_cell_length_c       10.299148005577397
_cell_angle_alpha    85.53595772847069
_cell_angle_beta     89.3653557848841
_cell_angle_gamma    88.36808077728017

_space_group_name_H-M_alt    "P 1"
_space_group_IT_number       1

loop_
  _space_group_symop_operation_xyz
  'x, y, z'

loop_
  _atom_site_type_symbol
  _atom_site_label
  _atom_site_symmetry_multiplicity
  _atom_site_fract_x
  _atom_site_fract_y
  _atom_site_fract_z
  _atom_site_occupancy
  N   N1        1.0  0.7074940232625684  0.3880593737586062  0.5566425313454373  1.0000
  C   C1        1.0  0.6469172065144012  0.3528681350356521  0.5456283030430227  1.0000
  C   C2        1.0  0.5715663044371047  0.30909410952845295  0.531927798931064  1.0000
  C   C3        1.0  0.5535188674411119  0.2376867331184424  0.4269399998611323  1.0000
  C   C4        1.0  0.48035707608414785  0.1950740327506213  0.41355509284387887  1.0000
  C   C5        1.0  0.4241940950620072  0.22349115174579667  0.5051256419950632  1.0000
  C   C6        1.0  0.3464419232547767  0.1783197415504099  0.49098299745980717  1.0000
  C   C7        1.0  0.2842405930093975  0.2600793797143299  0.5168994169891497  1.0000
  C   C8        1.0  0.21093653780646376  0.21726362247266492  0.5035282513173338  1.0000
  C   C9        1.0  0.1476844274447451  0.30171479068942086  0.5298078059143108  1.0000
  N   N2        1.0  0.0968427204884373  0.36960768712446024  0.550935842993173  1.0000
  C   C10       1.0  0.19925033160871305  0.09243022880849794  0.4642153904976596  1.0000
  C   C11       1.0  0.2605942973389842  0.010656738279436027  0.4382905848580274  1.0000
  C   C12       1.0  0.3337790619051499  0.05307794780037866  0.45145931636070324  1.0000
  C   C13       1.0  0.44293276871575105  0.2953929074060382  0.6103325381852662  1.0000
  C   C14       1.0  0.5161475152110828  0.33781521769268785  0.6235618414906678  1.0000
  H   H1        1.0  0.5959380366472226  0.21520895668441395  0.3552298172039614  1.0000
  H   H2        1.0  0.4674786563196091  0.1413980552874283  0.33064571985174185  1.0000
  H   H3        1.0  0.2927088305660679  0.3575486522511868  0.5457495133894121  1.0000
  H   H4        1.0  0.1427956508633612  0.058392714603793916  0.4536298877230722  1.0000
  H   H5        1.0  0.25142785761002384  0.9140077898711244  0.40823976973382115  1.0000
  H   H6        1.0  0.3804394951071592  0.9873299003079321  0.432429114273648  1.0000
  H   H7        1.0  0.4012302501446226  0.31733142112707635  0.6833374495853168  1.0000
  H   H8        1.0  0.5295542961100169  0.39271201826207625  0.7054291718140238  1.0000
  C   C15       1.0  0.9022558381178611  0.9974318956734044  0.5539066380610564  1.0000
  C   C16       1.0  0.8894587307341294  0.0077695720261150465  0.419162866095242  1.0000
  C   C17       1.0  0.882897598927536  0.895876782352682  0.35072827194406053  1.0000
  C   C18       1.0  0.8892791806395555  0.7725183825088388  0.4188576988966264  1.0000
  C   C19       1.0  0.9020881055713276  0.7602248934809145  0.5536828919394117  1.0000
  C   C20       1.0  0.9085009201458399  0.8732026577718441  0.6203772722797944  1.0000
  C   C21       1.0  0.8693607319605083  0.9077864210446229  0.2081856178349932  1.0000
  C   C22       1.0  0.9074829912305561  0.00010944761447984338  0.12620555484588092  1.0000
  C   C23       1.0  0.8947500892703171  0.011186032067456386  0.9920633282447344  1.0000
  C   C24       1.0  0.8441075121288995  0.9292565688965632  0.9370524887952385  1.0000
  C   C25       1.0  0.8050675948847209  0.838793332419742  0.01897783924754259  1.0000
  C   C26       1.0  0.8178278694295786  0.8274594399378856  0.15308232748364792  1.0000
  N   N3        1.0  0.8289578088850049  0.9402472414469027  0.7997072092240818  1.0000
  C   C27       1.0  0.8838398746121512  0.9746054763696722  0.7006806024402654  1.0000
  O   O1        1.0  0.9527533306125276  0.9738674845228413  0.7275302305927163  1.0000
  C   C28       1.0  0.8599099720913677  0.002218220435886484  0.5624851360933731  1.0000
  H   H9        1.0  0.9072014739694074  0.3209306661523723  0.6057288199857376  1.0000
  H   H10       1.0  0.8835287177378226  0.10310763701350753  0.3674377821209631  1.0000
  H   H11       1.0  0.8852519841221533  0.6859222811133623  0.36628587711694793  1.0000
  H   H12       1.0  0.918374125727772  0.8645140071050547  0.7243074768725613  1.0000
  H   H13       1.0  0.9267141757316326  0.5297169680420781  0.8080209728351571  1.0000
  H   H14       1.0  0.9475889606453684  0.0632479088542337  0.1657118726990734  1.0000
  H   H15       1.0  0.9235872920203606  0.08528876950592945  0.9320575140347609  1.0000
  H   H16       1.0  0.7648897601803166  0.7763625270415365  0.9786054992609281  1.0000
  H   H17       1.0  0.786576395730004  0.7570872736565236  0.2139565128236005  1.0000
  H   H18       1.0  0.7760516451287695  0.9138931040913827  0.7694077900852303  1.0000
  H   H19       1.0  0.8056803471806709  0.058234916566441974  0.5588261316032588  1.0000
  H   H20       1.0  0.8529701973177347  0.9089478912459739  0.5173607217678176  1.0000
  H   H21       1.0  0.9026932181453416  0.06029471150577214  0.5064602520363217  1.0000
  C   C29       1.0  0.9022743485006709  0.3788755699283697  0.17240506252231858  1.0000
  C   C30       1.0  0.8315950685150163  0.4430095602841819  0.1679859415335514  1.0000
  C   C31       1.0  0.7956533914765475  0.4754786076085242  0.0486086529329548  1.0000
  C   C32       1.0  0.8313443465230488  0.44294863174919263  0.9327126030178259  1.0000
  C   C33       1.0  0.9020695565608075  0.37878119554032874  0.9351844484207041  1.0000
  C   C34       1.0  0.937098913734559  0.3471378174768005  0.05546070350691856  1.0000
  C   C35       1.0  0.7208837799618361  0.5433265359692554  0.044978664052385264  1.0000
  C   C36       1.0  0.7050807452690836  0.6454008987594465  0.12525825136830382  1.0000
  C   C37       1.0  0.6346736712230716  0.7091511037797698  0.12164741250825117  1.0000
  C   C38       1.0  0.5792692926384416  0.6718300430190381  0.038106667276157635  1.0000
  C   C39       1.0  0.5943175920916258  0.5705783731255765  0.9579854433266761  1.0000
  C   C40       1.0  0.6646608431608161  0.5066092104939977  0.9612047449994141  1.0000
  Br  Br1       1.0  0.4831374161877204  0.7590627593309248  0.03344090566521429  1.0000
  H   H22       1.0  0.9294759748232264  0.3542588361429404  0.5015760948244758  1.0000
  H   H23       1.0  0.8038679053512814  0.4662714816622739  0.2577253377730322  1.0000
  H   H24       1.0  0.8043581824651344  0.46932439583847385  0.8402842190087667  1.0000
  H   H25       1.0  0.991616693082081  0.29767355727789363  0.05815322289407975  1.0000
  H   H26       1.0  0.03576929246391303  0.25839388515503536  0.7324977397620152  1.0000
  H   H27       1.0  0.7474637682749656  0.6770119778662917  0.1895346579474071  1.0000
  H   H28       1.0  0.6233114448759199  0.7877618192382881  0.18359529836699107  1.0000
  H   H29       1.0  0.5514896736780722  0.5411405273330704  0.8934079182947067  1.0000
  H   H30       1.0  0.6747661063548126  0.4273687204119394  0.8994765807747309  1.0000
  Zn  Zn1       1.0  0.819851644439929  0.3827311490630101  0.555003216576603  1.0000
  Zn  Zn2       1.0  0.9844850805758236  0.37492532342106366  0.5525858380613748  1.0000
  C   C41       1.0  0.9021077379527369  0.3736249859000335  0.7910043818425184  1.0000
  C   C42       1.0  0.9022307844603908  0.38403304008837463  0.3165847733905083  1.0000
  C   C43       1.0  0.9021173122216227  0.6160415766368097  0.5485498005808653  1.0000
  C   C44       1.0  0.9022211543382123  0.14161489157082305  0.5590394251771311  1.0000
  O   O2        1.0  0.9646936962358705  0.382795997812297  0.3640554205694664  1.0000
  O   O3        1.0  0.9645977951618505  0.3689366073684994  0.7416986267257935  1.0000
  O   O4        1.0  0.9646046839155081  0.5646911099303853  0.5459148489214578  1.0000
  O   O5        1.0  0.9646867513280732  0.18704150721707524  0.5598391018159874  1.0000
  O   O6        1.0  0.8396499175063693  0.570614967932159  0.5477499536400909  1.0000
  O   O7        1.0  0.8396430284246944  0.37486202581620826  0.7435336617375583  1.0000
  O   O8        1.0  0.8397389299778377  0.3887213711910202  0.36588889410794456  1.0000
  O   O9        1.0  0.8397319850428699  0.19296687129429468  0.5616726727303816  1.0000
