data_image0
_chemical_formula_structural       NC8NH4C6ClH5C6BrH2Zn2C4O8
_chemical_formula_sum              "N2 C24 H11 Cl1 Br1 Zn2 O8"
_cell_length_a       13.859017981522156
_cell_length_b       9.276545438789551
_cell_length_c       9.275428193871798
_cell_angle_alpha    86.19890630967393
_cell_angle_beta     89.94092098538006
_cell_angle_gamma    89.4096370293992

_space_group_name_H-M_alt    "P 1"
_space_group_IT_number       1

loop_
  _space_group_symop_operation_xyz
  'x, y, z'

loop_
  _atom_site_type_symbol
  _atom_site_label
  _atom_site_symmetry_multiplicity
  _atom_site_fract_x
  _atom_site_fract_y
  _atom_site_fract_z
  _atom_site_occupancy
  N   N1        1.0  0.8989184653872273  0.5612176944359137  0.4114532360585612  1.0000
  C   C1        1.0  0.8266591492619069  0.553538087483531  0.35015559135001517  1.0000
  C   C2        1.0  0.7367728197904485  0.5439860331964916  0.273909297674122  1.0000
  C   C3        1.0  0.7368214327724869  0.5253586218070356  0.1252252842408359  1.0000
  C   C4        1.0  0.6495038625154483  0.5160831978424396  0.05118033457299065  1.0000
  C   C5        1.0  0.5619561451312715  0.525360341355505  0.12522503703495014  1.0000
  C   C6        1.0  0.5615425763282956  0.5439870044187669  0.27390911451631395  1.0000
  C   C7        1.0  0.6490422424999517  0.5532986471645591  0.3482399768804056  1.0000
  C   C8        1.0  0.4714193264449015  0.5535389886003905  0.35015535153501554  1.0000
  N   N2        1.0  0.39896954763089953  0.5612180068958101  0.41145314266966126  1.0000
  H   H1        1.0  0.8042078395213329  0.5180286103334011  0.06671969318953086  1.0000
  H   H2        1.0  0.6496823199334106  0.5016945829213659  0.9363283320020779  1.0000
  H   H3        1.0  0.494751548749211  0.518031703310007  0.06671927519263399  1.0000
  H   H4        1.0  0.6488634158951591  0.5677162897881212  0.46332548105241567  1.0000
  C   C9        1.0  0.15186090241375233  0.13778020503639166  0.4112156434832197  1.0000
  C   C10       1.0  0.1523183760074942  0.22002160657083622  0.27821299685117085  1.0000
  C   C11       1.0  0.14399539185073573  0.15356283249466496  0.14810517821476976  1.0000
  C   C12       1.0  0.13501709894398717  0.003981152818534062  0.1489983293600589  1.0000
  C   C13       1.0  0.1360499717719048  0.9201754551772541  0.27955971044687633  1.0000
  C   C14       1.0  0.14603644179073916  0.9846445976423388  0.4117031946521947  1.0000
  Cl  Cl1       1.0  0.1433618825234566  0.2584401460474979  0.9835958857438398  1.0000
  H   H5        1.0  0.20105220502156063  0.40314110856993973  0.63776678803555  1.0000
  H   H6        1.0  0.15684156027301954  0.3367119287768936  0.2753600379923973  1.0000
  H   H7        1.0  0.12815596218907468  0.952192380768321  0.04833915200894199  1.0000
  H   H8        1.0  0.1313345676203157  0.8038868944504315  0.2769099732241742  1.0000
  H   H9        1.0  0.1135294253461212  0.688379342751483  0.6447141158430656  1.0000
  C   C15       1.0  0.149270960695429  0.5567261153510674  0.9883031381552163  1.0000
  C   C16       1.0  0.23813587097413955  0.5594106464533479  0.0613499872359371  1.0000
  C   C17       1.0  0.324604739880326  0.5752539877629712  0.9848223517300316  1.0000
  C   C18       1.0  0.32357017532001203  0.5888329788343138  0.834272926260314  1.0000
  C   C19       1.0  0.2364057869989329  0.5840681805612906  0.7597177325248472  1.0000
  C   C20       1.0  0.1486263859403676  0.5656986592241153  0.834615692842501  1.0000
  Br  Br1       1.0  0.4442016597290894  0.5807666177887354  0.08638942911431302  1.0000
  H   H10       1.0  0.9166529031212622  0.6281760969340646  0.08690967798799232  1.0000
  H   H11       1.0  0.39047434988443697  0.6017188219736884  0.7747004605911715  1.0000
  Zn  Zn1       1.0  0.043222432164780056  0.5612140222820536  0.4114615244647233  1.0000
  Zn  Zn2       1.0  0.25466565549229836  0.5612100391037098  0.41145663762154516  1.0000
  C   C21       1.0  0.14878555778377223  0.5582582589169711  0.674641186055936  1.0000
  C   C22       1.0  0.1491048262058759  0.5641676233004598  0.14827711845758595  1.0000
  C   C23       1.0  0.14713677710507356  0.8245082890666466  0.4058688007581268  1.0000
  C   C24       1.0  0.15075354659033846  0.29791586154708916  0.4170495795849578  1.0000
  O   O1        1.0  0.2292907145264834  0.5666572590225427  0.2019639894743399  1.0000
  O   O2        1.0  0.2290801913030791  0.5557645078612339  0.6209501906029442  1.0000
  O   O3        1.0  0.22774769721695967  0.7707647903039934  0.40391458875389774  1.0000
  O   O4        1.0  0.23062313647270227  0.3516569857506937  0.41899948328678627  1.0000
  O   O5        1.0  0.06726487902917613  0.7707670756379181  0.40391867879357135  1.0000
  O   O6        1.0  0.06859736125433162  0.5557685248017032  0.6209542048071435  1.0000
  O   O7        1.0  0.06880788620706269  0.5666612073471904  0.20196627116310825  1.0000
  O   O8        1.0  0.07014030813798171  0.35166092490727974  0.41900187300624414  1.0000
