data_image0
_chemical_formula_structural       NC6NCNCH5C9H10C7NH4Zn2C4O8
_chemical_formula_sum              "N4 C28 H19 Zn2 O8"
_cell_length_a       14.933214217465613
_cell_length_b       10.297183801781406
_cell_length_c       9.275157849593905
_cell_angle_alpha    86.08426286032497
_cell_angle_beta     89.70661770832213
_cell_angle_gamma    90.03175022610812

_space_group_name_H-M_alt    "P 1"
_space_group_IT_number       1

loop_
  _space_group_symop_operation_xyz
  'x, y, z'

loop_
  _atom_site_type_symbol
  _atom_site_label
  _atom_site_symmetry_multiplicity
  _atom_site_fract_x
  _atom_site_fract_y
  _atom_site_fract_z
  _atom_site_occupancy
  N   N1        1.0  0.8476619015922854  0.408670787466739  0.40878268967800446  1.0000
  C   C1        1.0  0.770174396792961  0.4095600375278529  0.40779196136986773  1.0000
  C   C2        1.0  0.6737793914753082  0.41066870406685574  0.4065566456731524  1.0000
  C   C3        1.0  0.6256902195696166  0.3252281396899386  0.5017668670987478  1.0000
  C   C4        1.0  0.5321597887701438  0.32619428860060573  0.5006902741957631  1.0000
  C   C5        1.0  0.4858160241898135  0.4125520487800207  0.4044580176767463  1.0000
  C   C6        1.0  0.3892346662471498  0.4106706289019135  0.40655457433722764  1.0000
  N   N2        1.0  0.31174416170445024  0.4091011058279874  0.40830319267416626  1.0000
  C   C7        1.0  0.5340073050990016  0.4990714956120958  0.3080456787721846  1.0000
  N   N3        1.0  0.4889737879920653  0.5888303853941583  0.2080236292521258  1.0000
  C   C8        1.0  0.628015422222755  0.49724335617389465  0.31008297324860745  1.0000
  H   H1        1.0  0.6604790460519728  0.2578640003853001  0.5768336806669871  1.0000
  H   H2        1.0  0.4958693659007248  0.2593968258218178  0.5751254859545689  1.0000
  H   H3        1.0  0.5255258291219318  0.6522267368445364  0.1373782137332762  1.0000
  H   H4        1.0  0.4192471124812541  0.5936063243384506  0.2027016601162015  1.0000
  H   H5        1.0  0.6654281991635332  0.5633687251640864  0.23639653969387983  1.0000
  C   C9        1.0  0.079709873183683  0.02741214742188913  0.4087471483118368  1.0000
  C   C10       1.0  0.07752515897404447  0.03595429824689499  0.2571002381247154  1.0000
  C   C11       1.0  0.07640565886644213  0.923714204329084  0.17940709162494173  1.0000
  C   C12       1.0  0.07751631868354886  0.8007780973467451  0.25651247754082185  1.0000
  C   C13       1.0  0.07970473021656282  0.7903498336651822  0.4083511979442005  1.0000
  C   C14       1.0  0.0807863718730793  0.9041343728711947  0.483477365743823  1.0000
  C   C15       1.0  0.07404248842084547  0.9423853381996179  0.01539025049610965  1.0000
  C   C16       1.0  0.02183294508505273  0.8429239468664956  0.9352208953398353  1.0000
  C   C17       1.0  0.12386504510686813  0.8432870386521527  0.9305374153896103  1.0000
  H   H6        1.0  0.08056021657943196  0.3516590445904235  0.4671815581223324  1.0000
  H   H7        1.0  0.07668192680031252  0.1306744052656883  0.19855616399944487  1.0000
  H   H8        1.0  0.07669433041689278  0.7126837622122463  0.19959416327108848  1.0000
  H   H9        1.0  0.08247147593132276  0.8968164808490156  0.6004761418933302  1.0000
  H   H10       1.0  0.0838261279719872  0.5634373189688147  0.6951317987536088  1.0000
  H   H11       1.0  0.07328374602250332  0.04264277753343347  0.9626723535834004  1.0000
  H   H12       1.0  0.9917671316888281  0.7598276068333509  0.0008354562318397815  1.0000
  H   H13       1.0  0.9905270376288585  0.8828832064302682  0.83329163624279  1.0000
  H   H14       1.0  0.1557782512174691  0.7604120636200616  0.9933077660344752  1.0000
  H   H15       1.0  0.15219241361175917  0.8834561305243296  0.8258695386950659  1.0000
  C   C18       1.0  0.08089554498972329  0.4052101708542133  0.9853520957296259  1.0000
  C   C19       1.0  0.15807872094248188  0.44763037699260194  0.05494641017494972  1.0000
  C   C20       1.0  0.2306682394313727  0.5002611530451269  0.9749659721733795  1.0000
  C   C21       1.0  0.22692081232734518  0.511308158137183  0.8243051620373887  1.0000
  C   C22       1.0  0.15157871340520895  0.4678377342903024  0.7533679495427781  1.0000
  C   C23       1.0  0.07851906746732353  0.41255177304440455  0.8317463104586191  1.0000
  C   C24       1.0  0.30872908119167963  0.5444912614175492  0.04786603318244075  1.0000
  N   N4        1.0  0.3714700102844948  0.58004034324515  0.10646539359245533  1.0000
  H   H16       1.0  0.8630145258845112  0.36120836645920407  0.09343753581233183  1.0000
  H   H17       1.0  0.2826823566517751  0.5524505474181627  0.7614034321621252  1.0000
  H   H18       1.0  0.15138056500415598  0.47466720410116997  0.6363001702556672  1.0000
  H   H19       1.0  0.9327594660379438  0.3774725924704925  0.5545085324759684  1.0000
  Zn  Zn1       1.0  0.9815859943704355  0.4087915546608862  0.40865264988600525  1.0000
  Zn  Zn2       1.0  0.17782002110690387  0.4089697842501425  0.4084450726033102  1.0000
  C   C25       1.0  0.0789662884516622  0.40598897633031994  0.6717623431425832  1.0000
  C   C26       1.0  0.08044186948691046  0.4117740048242701  0.14533551767626096  1.0000
  C   C27       1.0  0.07971720488897388  0.6460885504919771  0.40268329019291005  1.0000
  C   C28       1.0  0.07969088588346375  0.1716728705364052  0.41441464833935227  1.0000
  O   O1        1.0  0.15475940234637398  0.4140388573661246  0.19894864399217727  1.0000
  O   O2        1.0  0.15358584251031715  0.40385841233231545  0.6179912561315617  1.0000
  O   O3        1.0  0.154191208934233  0.5977418670275367  0.400708017456743  1.0000
  O   O4        1.0  0.15415396926441005  0.22015541096559632  0.41623177467837813  1.0000
  O   O5        1.0  0.005251979247907769  0.5976059278859598  0.4008659478741925  1.0000
  O   O6        1.0  0.004646613025105716  0.40372403325747336  0.6181491088988482  1.0000
  O   O7        1.0  0.0058201777859641125  0.4139044179938576  0.1991047641292747  1.0000
  O   O8        1.0  0.005214744397027184  0.22002096323916387  0.41638800286734856  1.0000
