data_image0
_chemical_formula_structural       NC8NC6H8C7ClCClC6H10C7ClCClC6H10Zn2C4O8
_chemical_formula_sum              "N2 C46 H28 Cl4 Zn2 O8"
_cell_length_a       11.044818498471832
_cell_length_b       17.25489619101054
_cell_length_c       17.254899562796247
_cell_angle_alpha    85.55905634322306
_cell_angle_beta     90.39583267408825
_cell_angle_gamma    90.39920033444918

_space_group_name_H-M_alt    "P 1"
_space_group_IT_number       1

loop_
  _space_group_symop_operation_xyz
  'x, y, z'

loop_
  _atom_site_type_symbol
  _atom_site_label
  _atom_site_symmetry_multiplicity
  _atom_site_fract_x
  _atom_site_fract_y
  _atom_site_fract_z
  _atom_site_occupancy
  N   N1        1.0  0.13980291360749894  0.8377839030008204  0.13451209310038736  1.0000
  C   C1        1.0  0.08521198606611934  0.8758807835517769  0.08868884122744725  1.0000
  C   C2        1.0  0.017094660562325448  0.9234188196017286  0.031509681966898406  1.0000
  C   C3        1.0  0.07972386455012725  0.9701672378429117  0.9749981523993384  1.0000
  C   C4        1.0  0.016526884682163786  0.01682620116945355  0.9188731106334476  1.0000
  C   C5        1.0  0.8892738158239128  0.01758892369849252  0.9183320953693246  1.0000
  C   C6        1.0  0.8265165833935952  0.9705633204419754  0.9751662321990371  1.0000
  C   C7        1.0  0.8895410248715819  0.9235981498237308  0.031586818747726064  1.0000
  C   C8        1.0  0.8216661694278814  0.8759845130831321  0.08874046803333902  1.0000
  N   N2        1.0  0.7672669314269835  0.8378334689453882  0.13453665088558975  1.0000
  C   C9        1.0  0.8221575853531508  0.06729005873920002  0.8586655641301737  1.0000
  C   C10       1.0  0.7187443753451839  0.10827087656507839  0.8789690694081589  1.0000
  C   C11       1.0  0.6557770710909875  0.15503595644551704  0.8226831087107909  1.0000
  C   C12       1.0  0.6951010768925453  0.16140536748011014  0.7456882286656472  1.0000
  C   C13       1.0  0.7975360979733163  0.12104044306489681  0.7248052402457685  1.0000
  C   C14       1.0  0.860909510913271  0.07423273917886708  0.7808558091047195  1.0000
  H   H1        1.0  0.17783043130659704  0.9707296837317102  0.9744140310584668  1.0000
  H   H2        1.0  0.06731776784087806  0.053148638897428255  0.8764756197534855  1.0000
  H   H3        1.0  0.7283664705287107  0.9696189221557822  0.9749752727333759  1.0000
  H   H4        1.0  0.6875476033165625  0.10497863052311483  0.9384911124205499  1.0000
  H   H5        1.0  0.5765801977353192  0.1865256647643012  0.8388416275439359  1.0000
  H   H6        1.0  0.6462040396153338  0.19762174745698166  0.7022108736141737  1.0000
  H   H7        1.0  0.8277336446084855  0.1258563609944956  0.6650725438973937  1.0000
  H   H8        1.0  0.9391787590603984  0.04269824084202689  0.7631755306548149  1.0000
  C   C15       1.0  0.45112833460354146  0.6099421927319463  0.13759094969456742  1.0000
  C   C16       1.0  0.5068861623535917  0.5678511936583959  0.20101163263532162  1.0000
  C   C17       1.0  0.5010157244813435  0.4866620976987401  0.20841419872524303  1.0000
  C   C18       1.0  0.44044751810136273  0.44612790978405564  0.15226957591076418  1.0000
  C   C19       1.0  0.38324066880665  0.4879599063183724  0.08947660893399212  1.0000
  C   C20       1.0  0.3890117783912159  0.5691444212133392  0.08199271801944319  1.0000
  C   C21       1.0  0.43264249688612194  0.3604113589643687  0.1617215036355658  1.0000
  Cl  Cl1       1.0  0.36199262865765425  0.3197134628687492  0.24701003586281292  1.0000
  C   C22       1.0  0.4745029240853238  0.3151994928077768  0.10740039518102451  1.0000
  Cl  Cl2       1.0  0.5451528816651899  0.3558973357415323  0.02211180456152984  1.0000
  C   C23       1.0  0.46669635752802335  0.22948305703180785  0.11685162550480699  1.0000
  C   C24       1.0  0.5239033601931447  0.1876506623110911  0.1796423808752624  1.0000
  C   C25       1.0  0.5181213669992097  0.1064692177083222  0.18711285219860974  1.0000
  C   C26       1.0  0.4559531016276255  0.06566929051750033  0.13146453800183366  1.0000
  C   C27       1.0  0.40024242202421134  0.10775717036638319  0.06809606433837723  1.0000
  C   C28       1.0  0.40612497575051854  0.1889492396332049  0.06070601559707966  1.0000
  H   H9        1.0  0.40499644081282565  0.7958812702184888  0.060413728907403375  1.0000
  H   H10       1.0  0.5549508966104268  0.5976189988192346  0.24499343128413165  1.0000
  H   H11       1.0  0.5444807997679662  0.4553538746079486  0.25774164449497916  1.0000
  H   H12       1.0  0.33349951140193945  0.45771904745209846  0.04653881133377036  1.0000
  H   H13       1.0  0.34441310976541395  0.5998889769653243  0.032813936861696646  1.0000
  H   H14       1.0  0.5736470230154886  0.21788595777499545  0.22258300223573546  1.0000
  H   H15       1.0  0.5627101068447616  0.0756912511539788  0.23628560397981105  1.0000
  H   H16       1.0  0.35217068459913614  0.07802304639273032  0.024102849539164754  1.0000
  H   H17       1.0  0.36266134638466063  0.22026304174174546  0.01138121269808623  1.0000
  H   H18       1.0  0.38301450388001934  0.8810267086982764  0.08828022097478905  1.0000
  C   C29       1.0  0.45107805482419283  0.8347389365934572  0.9071386723378405  1.0000
  C   C30       1.0  0.5057961701164826  0.7714000450051797  0.8748561704312012  1.0000
  C   C31       1.0  0.4998041428373112  0.7639887191367302  0.7948138203185884  1.0000
  C   C32       1.0  0.44015628357691255  0.8200443257599884  0.7455981191693211  1.0000
  C   C33       1.0  0.3839788870998586  0.8827532812632716  0.7777190627465349  1.0000
  C   C34       1.0  0.3898728233441408  0.8902458164772061  0.8577442212521429  1.0000
  C   C35       1.0  0.4321961996358499  0.8105806771450794  0.6613458975893245  1.0000
  Cl  Cl3       1.0  0.3601463022689537  0.7251863683293863  0.633860744964222  1.0000
  C   C36       1.0  0.4749481855539674  0.8649645616172968  0.6077192177337072  1.0000
  Cl  Cl4       1.0  0.5469980829208638  0.9503588704329899  0.6352043703588093  1.0000
  C   C37       1.0  0.4669864788087245  0.8555016128826335  0.5234669411348976  1.0000
  C   C38       1.0  0.5231640726700667  0.7927948581716625  0.491345309981782  1.0000
  C   C39       1.0  0.5172594253704714  0.7853156868178055  0.4113211432316526  1.0000
  C   C40       1.0  0.4560033800004035  0.8408725746221983  0.3619168605840686  1.0000
  C   C41       1.0  0.40133156720796315  0.9041593093283111  0.3942042989805903  1.0000
  C   C42       1.0  0.40733546344438587  0.9115581224266869  0.47425153470735015  1.0000
  H   H19       1.0  0.40621170340433793  0.9118487573134488  0.08113836360261684  1.0000
  H   H20       1.0  0.5531399145650786  0.7274889573599843  0.9114246267191017  1.0000
  H   H21       1.0  0.5424605488180001  0.7147250713126334  0.7711344491516203  1.0000
  H   H22       1.0  0.33494146801485214  0.9256179275086631  0.740839389117774  1.0000
  H   H23       1.0  0.3460804031668827  0.9393591512099893  0.8808831028890585  1.0000
  H   H24       1.0  0.5722039427881744  0.7499273824831936  0.5282199114369646  1.0000
  H   H25       1.0  0.5610420391922661  0.7362083552138537  0.38814792108497254  1.0000
  H   H26       1.0  0.3539810407782582  0.9480818622731062  0.3576677626482956  1.0000
  H   H27       1.0  0.3646804513069792  0.9608191936877744  0.49793688363133265  1.0000
  H   H28       1.0  0.38377233402203603  0.8839494009672069  0.17060079859881894  1.0000
  Zn  Zn1       1.0  0.3208754985278978  0.8377961914547284  0.13452367561134404  1.0000
  Zn  Zn2       1.0  0.5861943146103481  0.837814923039256  0.13453148298893147  1.0000
  C   C43       1.0  0.455036941143806  0.8366219169062089  0.2759955822717004  1.0000
  C   C44       1.0  0.45203578045608633  0.8389901778865836  0.9930596392532554  1.0000
  C   C45       1.0  0.4550014494290777  0.9794855593904964  0.12953691091306874  1.0000
  C   C46       1.0  0.45207117221323156  0.6961256036775895  0.13951836442504506  1.0000
  O   O1        1.0  0.5530442740702812  0.840420656578991  0.021898509015318198  1.0000
  O   O2        1.0  0.5553992812652302  0.8352050666661007  0.2471624230943039  1.0000
  O   O3        1.0  0.5553692726663066  0.9505692754928905  0.12889599886653036  1.0000
  O   O4        1.0  0.5530741915638449  0.7250564525136369  0.14016487510670572  1.0000
  O   O5        1.0  0.35399553103407544  0.9505546619747453  0.1288902834868213  1.0000
  O   O6        1.0  0.35402554905025685  0.8351913848670599  0.24715665389468844  1.0000
  O   O7        1.0  0.3516705315669695  0.840406935183547  0.02189180920278344  1.0000
  O   O8        1.0  0.3517004496255675  0.7250427263511553  0.1401582334238084  1.0000
