data_image0
_chemical_formula_structural       NC11NC3H8C12BrH9C12NH11Zn2C4O8
_chemical_formula_sum              "N3 C42 H28 Br1 Zn2 O8"
_cell_length_a       17.807433833752565
_cell_length_b       10.299144633409057
_cell_length_c       10.299774167527174
_cell_angle_alpha    85.56689002636799
_cell_angle_beta     88.5175958409119
_cell_angle_gamma    90.65887280956916

_space_group_name_H-M_alt    "P 1"
_space_group_IT_number       1

loop_
  _space_group_symop_operation_xyz
  'x, y, z'

loop_
  _atom_site_type_symbol
  _atom_site_label
  _atom_site_symmetry_multiplicity
  _atom_site_fract_x
  _atom_site_fract_y
  _atom_site_fract_z
  _atom_site_occupancy
  N   N1        1.0  0.7071398251813394  0.4381271339248862  0.5344853004211596  1.0000
  C   C1        1.0  0.656324894862835  0.40341808499219445  0.601050245696388  1.0000
  C   C2        1.0  0.5931059957448561  0.3602428882435729  0.683848543261006  1.0000
  C   C3        1.0  0.6048413733053666  0.29672529223098265  0.8065716692308105  1.0000
  C   C4        1.0  0.5435295860640793  0.255229292750323  0.8870858675154537  1.0000
  C   C5        1.0  0.47032811198644997  0.27693779213823677  0.845517756972211  1.0000
  C   C6        1.0  0.45761593165530057  0.34060981233117155  0.7223344302223946  1.0000
  C   C7        1.0  0.3798460796409808  0.3636476854718271  0.6779855807401403  1.0000
  C   C8        1.0  0.3610753530117845  0.3467360527555601  0.5484142193427246  1.0000
  C   C9        1.0  0.2878439492525615  0.3684058088158897  0.5068020458220708  1.0000
  C   C10       1.0  0.2324401704902796  0.4073055006730466  0.5939409458645233  1.0000
  C   C11       1.0  0.15707196580224742  0.42963335695829746  0.550967433694088  1.0000
  N   N2        1.0  0.096481302895745  0.4475832946157059  0.5164198575183732  1.0000
  C   C12       1.0  0.2505193144998605  0.42442756527653325  0.7229811635949752  1.0000
  C   C13       1.0  0.3236979487093159  0.402722952896865  0.7648487600223454  1.0000
  C   C14       1.0  0.5197850308741601  0.38210125147939644  0.6418366477395927  1.0000
  H   H1        1.0  0.6613094396003415  0.2793196892574565  0.8399385082888833  1.0000
  H   H2        1.0  0.5527341458163602  0.20580221330612636  0.9818256975305784  1.0000
  H   H3        1.0  0.4236935466395073  0.24239855463016813  0.9089595393529956  1.0000
  H   H4        1.0  0.4027663459077744  0.31507202280412905  0.47970625319099774  1.0000
  H   H5        1.0  0.2744126082707811  0.3544946254111063  0.4067746154386036  1.0000
  H   H6        1.0  0.20811188594150187  0.45486834561261835  0.7911745891799671  1.0000
  H   H7        1.0  0.3366004725468091  0.41817958012119405  0.8646931879085938  1.0000
  H   H8        1.0  0.5112785834428599  0.43289083122557614  0.5473308960961648  1.0000
  C   C15       1.0  0.9019121507755439  0.06146290910733619  0.5255266468425606  1.0000
  C   C16       1.0  0.8698825271759524  0.06958920866111741  0.4020577211027366  1.0000
  C   C17       1.0  0.8535417121862215  0.9565704325835492  0.33938510270123584  1.0000
  C   C18       1.0  0.8696627277635102  0.8343182299475481  0.4018466865322754  1.0000
  C   C19       1.0  0.9017161681399049  0.82423773157698  0.5253893633822068  1.0000
  C   C20       1.0  0.9176426464229771  0.9383170144394989  0.5864699379179306  1.0000
  C   C21       1.0  0.8196594036211974  0.9662122817362975  0.20876893693930199  1.0000
  C   C22       1.0  0.8448095217635874  0.06210361129543451  0.11213882868980843  1.0000
  C   C23       1.0  0.8128528506530049  0.07096997152533353  0.9892530577817077  1.0000
  C   C24       1.0  0.7554853494592789  0.9844772992853194  0.9613814787271925  1.0000
  C   C25       1.0  0.7300439958885757  0.8888982840883989  0.05658460547121691  1.0000
  C   C26       1.0  0.7618697534286596  0.8796114436232859  0.1795767250817051  1.0000
  Br  Br1       1.0  0.7119225976142818  0.9968751579042844  0.7934471582467674  1.0000
  H   H9        1.0  0.9142633485015124  0.38581533764981135  0.5729930993563388  1.0000
  H   H10       1.0  0.8566186166986411  0.16397324677583924  0.3551143030766786  1.0000
  H   H11       1.0  0.8581289449830565  0.7469555522623584  0.353218973670971  1.0000
  H   H12       1.0  0.9423502499965658  0.9313334247207641  0.6817027440137308  1.0000
  H   H13       1.0  0.9626475741325445  0.5979553099564178  0.7582155986723423  1.0000
  H   H14       1.0  0.8898217393539308  0.1290852834239633  0.1310514265057734  1.0000
  H   H15       1.0  0.8328580976206194  0.1449045662865114  0.9156699543480915  1.0000
  H   H16       1.0  0.6854818758073697  0.8219529878880683  0.03550261525018051  1.0000
  H   H17       1.0  0.7406428957560066  0.8058612664704548  0.2523566911730662  1.0000
  C   C27       1.0  0.9018397442385675  0.4427363983828115  0.14410474796002107  1.0000
  C   C28       1.0  0.8282757650859057  0.39164446854613355  0.15034835210384134  1.0000
  C   C29       1.0  0.7909739809330256  0.36587096927494533  0.03636541611005373  1.0000
  C   C30       1.0  0.8282240934629377  0.3918745304302409  0.9150459942453395  1.0000
  C   C31       1.0  0.9017885510662542  0.44296424523787303  0.906811223966808  1.0000
  C   C32       1.0  0.9381843146191428  0.4681095825608055  0.021878969021508217  1.0000
  C   C33       1.0  0.7131475543789153  0.31181923543483836  0.04402413598088795  1.0000
  C   C34       1.0  0.6920593824794016  0.21284645891565554  0.1403202646651223  1.0000
  C   C35       1.0  0.618805646264327  0.16202840979627142  0.1473950992779194  1.0000
  C   C36       1.0  0.5654813393408478  0.20926228749646916  0.05855544016172476  1.0000
  C   C37       1.0  0.5860738624381673  0.3078328385565814  0.9624417492101045  1.0000
  C   C38       1.0  0.6593050141393824  0.35875160792581906  0.9551016629850881  1.0000
  N   N3        1.0  0.4905597832121011  0.15722759918329854  0.06592808770588587  1.0000
  H   H18       1.0  0.9298837787662779  0.4621514037186324  0.46918266639956424  1.0000
  H   H19       1.0  0.7994375720703765  0.3734397216426695  0.24397549069845598  1.0000
  H   H20       1.0  0.8000941934875712  0.3705143626801161  0.8270247779541041  1.0000
  H   H21       1.0  0.9949357009221546  0.5075237712363985  0.016294321355515336  1.0000
  H   H22       1.0  0.9298086536119501  0.46248655209423006  0.5762163099692909  1.0000
  H   H23       1.0  0.732481500983741  0.17355727734506288  0.20910222079686738  1.0000
  H   H24       1.0  0.603670329807169  0.08560896629730784  0.22193032273051652  1.0000
  H   H25       1.0  0.5453385501392397  0.3454489893310775  0.8934045917944835  1.0000
  H   H26       1.0  0.6735618619820506  0.43601626955931216  0.8809390521307343  1.0000
  H   H27       1.0  0.45041775692924785  0.19181149909783235  0.0001193180868110922  1.0000
  H   H28       1.0  0.4746798566456538  0.08373554293037677  0.13725016096204246  1.0000
  Zn  Zn1       1.0  0.8194953656003235  0.4408525050187336  0.5292794886714148  1.0000
  Zn  Zn2       1.0  0.9841257497346996  0.44484730643816034  0.5216362567584724  1.0000
  C   C39       1.0  0.9017978905871799  0.43774711300712843  0.762644406995833  1.0000
  C   C40       1.0  0.9018250220769001  0.4479543808313846  0.2882713821364784  1.0000
  C   C41       1.0  0.9017496847737987  0.6800553896322012  0.5202405317745746  1.0000
  C   C42       1.0  0.9018731721097326  0.20564454246522912  0.5306753294824669  1.0000
  O   O1        1.0  0.9642964554413826  0.4512159236374302  0.33375445588642966  1.0000
  O   O2        1.0  0.96427710976974  0.4375165521505508  0.7113599234219633  1.0000
  O   O3        1.0  0.964237340663789  0.6331835298985407  0.5156171179917024  1.0000
  O   O4        1.0  0.9643361683742824  0.2555489537879956  0.529497166552466  1.0000
  O   O5        1.0  0.83928489078047  0.6301508563070808  0.5214185814788503  1.0000
  O   O6        1.0  0.8393246594866995  0.4344854389383557  0.7171613173858098  1.0000
  O   O7        1.0  0.8393440053247079  0.4481847647013377  0.3395542885195251  1.0000
  O   O8        1.0  0.839383718250389  0.2525177855915304  0.5352970965512153  1.0000
