data_image0
_chemical_formula_structural       NC9NC5H8C7OH6C6ClH5Zn2C4O8
_chemical_formula_sum              "N2 C31 H19 O9 Cl1 Zn2"
_cell_length_a       17.807436237873137
_cell_length_b       9.274078303013077
_cell_length_c       10.302974078461048
_cell_angle_alpha    85.73623370139752
_cell_angle_beta     89.39214410348853
_cell_angle_gamma    87.81002060722456

_space_group_name_H-M_alt    "P 1"
_space_group_IT_number       1

loop_
  _space_group_symop_operation_xyz
  'x, y, z'

loop_
  _atom_site_type_symbol
  _atom_site_label
  _atom_site_symmetry_multiplicity
  _atom_site_fract_x
  _atom_site_fract_y
  _atom_site_fract_z
  _atom_site_occupancy
  N   N1        1.0  0.6992613436273835  0.5413835181934106  0.5619840271453831  1.0000
  C   C1        1.0  0.6388805018669113  0.5022985380553711  0.5508527330589006  1.0000
  C   C2        1.0  0.5637733710878337  0.45368112702694385  0.5370066120101036  1.0000
  C   C3        1.0  0.546101465311723  0.37436151555100805  0.4318131354128869  1.0000
  C   C4        1.0  0.47317696518004143  0.3270339181297569  0.4182864931372845  1.0000
  C   C5        1.0  0.41687786970424856  0.3586066120548441  0.5099196954987424  1.0000
  C   C6        1.0  0.3393772497502934  0.3084372017819458  0.4956267873865635  1.0000
  C   C7        1.0  0.2767206993289312  0.399243195860145  0.5218150591696298  1.0000
  C   C8        1.0  0.20365508684145509  0.3516900849159459  0.5083014529556009  1.0000
  C   C9        1.0  0.1399326392346882  0.44548534807335227  0.5348619981370542  1.0000
  N   N2        1.0  0.0887128139667045  0.5208902505133363  0.5562159317837416  1.0000
  C   C10       1.0  0.19266399514345578  0.21304444298812156  0.46857341970404826  1.0000
  C   C11       1.0  0.2544632571070254  0.1222230632907324  0.4423767172917624  1.0000
  C   C12       1.0  0.3274117549996251  0.169337960860249  0.4556866072901491  1.0000
  C   C13       1.0  0.4352382762442373  0.438475312310654  0.6153338889810245  1.0000
  C   C14       1.0  0.5082167660617013  0.48559144071375715  0.6287043312217203  1.0000
  H   H1        1.0  0.5886284934660312  0.34938779676076037  0.3600531162014805  1.0000
  H   H2        1.0  0.46057975855374206  0.26740987023635454  0.3352240540781991  1.0000
  H   H3        1.0  0.28464570101153597  0.5074967474178511  0.5509900315300775  1.0000
  H   H4        1.0  0.1363988825664279  0.17524085073121642  0.4578746630031438  1.0000
  H   H5        1.0  0.24583509475131837  0.014880400570844285  0.41200431702858364  1.0000
  H   H6        1.0  0.3744387441069363  0.09631542055270816  0.43643709356742777  1.0000
  H   H7        1.0  0.39343129365275054  0.46285030260342896  0.6883862787519299  1.0000
  H   H8        1.0  0.5213351539231487  0.5465711942876222  0.7107293378672107  1.0000
  C   C15       1.0  0.8962305093035448  0.1075514062332668  0.5579026025555002  1.0000
  C   C16       1.0  0.881700382883289  0.1917802936213946  0.4409225692699881  1.0000
  C   C17       1.0  0.8606774227582858  0.12778432609164692  0.3284732245089061  1.0000
  C   C18       1.0  0.8539849051604401  0.9774928440786431  0.33293493220751963  1.0000
  C   C19       1.0  0.8693606750438779  0.8921608596115596  0.44748625553682186  1.0000
  C   C20       1.0  0.8917508971683066  0.9547108977036599  0.5603085235605296  1.0000
  C   C21       1.0  0.8451958459057989  0.2195166830610389  0.20787653703124298  1.0000
  O   O1        1.0  0.8258823668611992  0.16523594461482527  0.10536804840002523  1.0000
  H   H9        1.0  0.8939190884570349  0.1843008283109022  0.8775821749783493  1.0000
  H   H10       1.0  0.8850616645574384  0.3084690332874412  0.4380726627485414  1.0000
  H   H11       1.0  0.8375467567090725  0.9255062819971935  0.2474711803880367  1.0000
  H   H12       1.0  0.8654435929442538  0.7759298324914143  0.44684978748162435  1.0000
  H   H13       1.0  0.8934843217240341  0.6557293412783001  0.7749892663602347  1.0000
  H   H14       1.0  0.8503835066037099  0.33555828846490954  0.20643551415400263  1.0000
  C   C22       1.0  0.8939907031332389  0.5311311826167093  0.17786305221514787  1.0000
  C   C23       1.0  0.8817111471527759  0.38200213402720395  0.1868648515021234  1.0000
  C   C24       1.0  0.8756184049690915  0.30800835989388875  0.07437450700526303  1.0000
  C   C25       1.0  0.8817111803316549  0.38200221372172727  0.9517569522645859  1.0000
  C   C26       1.0  0.8939907016101314  0.5311311082599177  0.9403480711055021  1.0000
  C   C27       1.0  0.9000706356006722  0.6049687215686788  0.05405265463439534  1.0000
  Cl  Cl1       1.0  0.8602783247921924  0.12171075017214439  0.08712343555180889  1.0000
  H   H15       1.0  0.8986166332354779  0.5873054984545163  0.5017751624655049  1.0000
  H   H16       1.0  0.8768272912081343  0.32269002839840333  0.2809703068530689  1.0000
  H   H17       1.0  0.8768273438295016  0.3226900050526012  0.8657693399429611  1.0000
  H   H18       1.0  0.9095409640281471  0.7199815216739904  0.04618187230772718  1.0000
  H   H19       1.0  0.8986164903076955  0.5873054932143695  0.6087475340657376  1.0000
  Zn  Zn1       1.0  0.8116486445116445  0.5354657549367157  0.5603269767936846  1.0000
  Zn  Zn2       1.0  0.9763255570594073  0.5267962557379835  0.5578836218160024  1.0000
  C   C28       1.0  0.8940194007731821  0.5253848496743772  0.7962057546096519  1.0000
  C   C29       1.0  0.8939565894407513  0.5368788863394696  0.3220049499115978  1.0000
  C   C30       1.0  0.8925937604654758  0.7945799423285531  0.5546803258376773  1.0000
  C   C31       1.0  0.8953821827196485  0.2676820636202266  0.5635304438113069  1.0000
  O   O2        1.0  0.95643920394068  0.5355115455284448  0.3694530291790965  1.0000
  O   O3        1.0  0.9565227582867019  0.5201711530173192  0.7469028486370146  1.0000
  O   O4        1.0  0.9553706932591054  0.7375496391232716  0.5518693728304428  1.0000
  O   O5        1.0  0.9575912127206397  0.3181330726994316  0.5644864085063359  1.0000
  O   O6        1.0  0.8303829326542559  0.7441289409353118  0.5537241909303239  1.0000
  O   O7        1.0  0.8315349885145044  0.5267521878544712  0.7487576024361349  1.0000
  O   O8        1.0  0.8314514344842854  0.5420925300973822  0.3713062219516323  1.0000
  O   O9        1.0  0.8326034433157251  0.32471404695147443  0.5663396985851774  1.0000
