data_image0
_chemical_formula_structural       NC5NC4H6C9H10C6NCH7Zn2C4O8
_chemical_formula_sum              "N3 C29 H23 Zn2 O8"
_cell_length_a       13.854160002989762
_cell_length_b       10.297183801781406
_cell_length_c       9.273390368590327
_cell_angle_alpha    86.14107260812962
_cell_angle_beta     89.99084465989662
_cell_angle_gamma    89.99762469776624

_space_group_name_H-M_alt    "P 1"
_space_group_IT_number       1

loop_
  _space_group_symop_operation_xyz
  'x, y, z'

loop_
  _atom_site_type_symbol
  _atom_site_label
  _atom_site_symmetry_multiplicity
  _atom_site_fract_x
  _atom_site_fract_y
  _atom_site_fract_z
  _atom_site_occupancy
  N   N1        1.0  0.9090355876097806  0.40646044093076217  0.4094788609511635  1.0000
  C   C1        1.0  0.8367085385012151  0.4286046910265721  0.3504323809703571  1.0000
  C   C2        1.0  0.7467326714021721  0.45615273245845334  0.276976299131122  1.0000
  C   C3        1.0  0.6591545840052595  0.4302824368848245  0.3486991151897203  1.0000
  C   C4        1.0  0.5715902590330095  0.45615274514373083  0.276976275956494  1.0000
  C   C5        1.0  0.48160039713108926  0.4286045592079246  0.35043247264129396  1.0000
  N   N2        1.0  0.4092620170137234  0.4064603837362332  0.4094788608932072  1.0000
  C   C6        1.0  0.5716366369830266  0.5084397250790735  0.13354933784052303  1.0000
  C   C7        1.0  0.6591819431580898  0.5362457162983325  0.061722130785936136  1.0000
  C   C8        1.0  0.6591968988244559  0.5886399807089219  0.9068082838089611  1.0000
  C   C9        1.0  0.7467137260284131  0.5084397230216182  0.13354924758017073  1.0000
  H   H1        1.0  0.659143996093062  0.38971308558448037  0.4597089819568933  1.0000
  H   H2        1.0  0.5037690325560361  0.5275310866712064  0.07790056603843598  1.0000
  H   H3        1.0  0.72405182943796  0.6498068498523338  0.88299540614271  1.0000
  H   H4        1.0  0.594343351772255  0.6498068521655453  0.882995471214241  1.0000
  H   H5        1.0  0.6592071221215161  0.5064172632531632  0.8353087081316617  1.0000
  H   H6        1.0  0.814591991644078  0.5275311871714505  0.07790048057761978  1.0000
  C   C10       1.0  0.15915678162251234  0.024986803044621416  0.4096830986817859  1.0000
  C   C11       1.0  0.1563589952815332  0.033395163726608786  0.2580168006456054  1.0000
  C   C12       1.0  0.15492538426096747  0.9210865253981665  0.18031372096978737  1.0000
  C   C13       1.0  0.15634774979016966  0.798218444621249  0.2574289645322392  1.0000
  C   C14       1.0  0.15915008164241626  0.7879241394415951  0.4092870982724761  1.0000
  C   C15       1.0  0.1605353882216758  0.9017749591595848  0.48442287015715574  1.0000
  C   C16       1.0  0.1518991137189  0.9396129560116544  0.016275910257201882  1.0000
  C   C17       1.0  0.09538901978651593  0.8401281316956403  0.9360435491174943  1.0000
  C   C18       1.0  0.20535432964236564  0.8403925078685884  0.9314649733742256  1.0000
  H   H7        1.0  0.16024402361024  0.34928524596173305  0.46812498803777464  1.0000
  H   H8        1.0  0.15527909808650944  0.1280636201944081  0.1994652419352314  1.0000
  H   H9        1.0  0.1552954994439315  0.7100738952761354  0.2005033712782307  1.0000
  H   H10       1.0  0.16269345534688107  0.8945602894584481  0.6014366039756018  1.0000
  H   H11       1.0  0.16443007556189063  0.5612646456664343  0.6961043531182967  1.0000
  H   H12       1.0  0.1509273033223894  0.03982388441248609  0.963551274201075  1.0000
  H   H13       1.0  0.06317313511563105  0.7571184082071155  0.0016344539148227537  1.0000
  H   H14       1.0  0.06134711186957053  0.8800251054042738  0.8340704264413805  1.0000
  H   H15       1.0  0.23993646547030015  0.7575441856231739  0.9942753916795644  1.0000
  H   H16       1.0  0.23558230611651032  0.8804416177599715  0.8268145448466034  1.0000
  C   C19       1.0  0.15919819653027  0.4024045381050092  0.9862414438243788  1.0000
  C   C20       1.0  0.24784962624063356  0.3998234120356338  0.05984527811175755  1.0000
  C   C21       1.0  0.3349546693925402  0.4093181971710702  0.984425570533836  1.0000
  C   C22       1.0  0.3356214153225445  0.421746032048703  0.8327911317045622  1.0000
  C   C23       1.0  0.24755832927843957  0.4221363975761272  0.7583788325316143  1.0000
  C   C24       1.0  0.15910867288421393  0.41050642507950674  0.8327287733032405  1.0000
  N   N3        1.0  0.42435783388876747  0.43273653791068617  0.7519971648841692  1.0000
  C   C25       1.0  0.5196587144849576  0.43288963095557453  0.8189852926817052  1.0000
  H   H17       1.0  0.0068491535319565805  0.3400045664645128  0.2721138108001613  1.0000
  H   H18       1.0  0.4014584118242635  0.4081228457477606  0.04554720196733508  1.0000
  H   H19       1.0  0.9341658701811407  0.3095846379582614  0.7372900469110322  1.0000
  H   H20       1.0  0.4212259490654302  0.4413458436269184  0.6391168627792241  1.0000
  H   H21       1.0  0.5259222667094646  0.5162215483254244  0.8884105770809697  1.0000
  H   H22       1.0  0.5314332863263139  0.34003205942491466  0.8845874275400476  1.0000
  H   H23       1.0  0.5762240971101654  0.44271018637170223  0.7340896344680714  1.0000
  Zn  Zn1       1.0  0.05339013435258755  0.4064570262468159  0.4094871948186696  1.0000
  Zn  Zn2       1.0  0.2649074702872407  0.40645328146044823  0.4094823694242146  1.0000
  C   C26       1.0  0.15912346692700297  0.40379987557617336  0.6727272358128042  1.0000
  C   C27       1.0  0.15917644744616186  0.4091120725137924  0.14624246898911308  1.0000
  C   C28       1.0  0.15914697373604864  0.6436577685690121  0.4036185631545872  1.0000
  C   C29       1.0  0.159152868466645  0.16925261952656823  0.41535121930012187  1.0000
  O   O1        1.0  0.23943887496008925  0.41135609391102057  0.19993844639113934  1.0000
  O   O2        1.0  0.23939780326199323  0.4015520280101319  0.6190271816618935  1.0000
  O   O3        1.0  0.23941570307473525  0.5952403243819313  0.40172002382552496  1.0000
  O   O4        1.0  0.2394209029821588  0.21766780579895117  0.4172454961578109  1.0000
  O   O5        1.0  0.0788766294771843  0.5952425019109328  0.40172406807913785  1.0000
  O   O6        1.0  0.0788587296544285  0.4015557655361388  0.6190311482567796  1.0000
  O   O7        1.0  0.07889980160042982  0.4113597695833071  0.19994068016520394  1.0000
  O   O8        1.0  0.07888182960720289  0.21767147321412758  0.41724783799563747  1.0000
