data_image0
_chemical_formula_structural       NC9NC5H8C6NO2H5C7F3H4Zn2C4O8
_chemical_formula_sum              "N3 C31 H17 O10 F3 Zn2"
_cell_length_a       17.807436237873137
_cell_length_b       9.273392599741051
_cell_length_c       9.272721663655245
_cell_angle_alpha    86.00529282621046
_cell_angle_beta     89.9168972107098
_cell_angle_gamma    87.79638846343423

_space_group_name_H-M_alt    "P 1"
_space_group_IT_number       1

loop_
  _space_group_symop_operation_xyz
  'x, y, z'

loop_
  _atom_site_type_symbol
  _atom_site_label
  _atom_site_symmetry_multiplicity
  _atom_site_fract_x
  _atom_site_fract_y
  _atom_site_fract_z
  _atom_site_occupancy
  N   N1        1.0  0.6916177340412432  0.5331779346621995  0.40150650937104504  1.0000
  C   C1        1.0  0.6311840806676152  0.4940219835856286  0.38917943695341783  1.0000
  C   C2        1.0  0.5560112579693539  0.44531629242545107  0.3738458974608716  1.0000
  C   C3        1.0  0.5378041365057566  0.3653683646657431  0.2570880247188818  1.0000
  C   C4        1.0  0.4648154392649271  0.31795454859748307  0.24210813103313122  1.0000
  C   C5        1.0  0.4089872403295412  0.3500690817176338  0.3438491393960539  1.0000
  C   C6        1.0  0.3314188066159963  0.29980854513988786  0.32802080149450064  1.0000
  C   C7        1.0  0.2688866475684838  0.390781342737767  0.35702339116792053  1.0000
  C   C8        1.0  0.19575693361677646  0.34314205662571795  0.3420581808653105  1.0000
  C   C9        1.0  0.1321604340535991  0.4371067426094781  0.37147150432154885  1.0000
  N   N2        1.0  0.0810418679622452  0.5126478556878595  0.39511899523049343  1.0000
  C   C10       1.0  0.18457724924412408  0.20424324080325074  0.29806159312262714  1.0000
  C   C11       1.0  0.2462520780642672  0.11325500591125871  0.2690496542204772  1.0000
  C   C12       1.0  0.3192636763852157  0.1604548202781529  0.2837890119048414  1.0000
  C   C13       1.0  0.4278839378752655  0.4305674724984505  0.4608516451360855  1.0000
  C   C14       1.0  0.5009258417405692  0.4777688728838814  0.4756582522833539  1.0000
  H   H1        1.0  0.5799624259502917  0.339970283132832  0.1774125816890519  1.0000
  H   H2        1.0  0.4517952431084248  0.2578348116708591  0.14991152334919544  1.0000
  H   H3        1.0  0.2769493436916775  0.4992217573820988  0.38932719211504807  1.0000
  H   H4        1.0  0.1282614067667563  0.16637140070049483  0.2862137394337432  1.0000
  H   H5        1.0  0.23747990289601448  0.005718592920590305  0.23541513578425485  1.0000
  H   H6        1.0  0.3662000143215814  0.08730875517950976  0.26247656523979623  1.0000
  H   H7        1.0  0.3864524654561864  0.45537431495499514  0.5419629668229968  1.0000
  H   H8        1.0  0.5144616744191172  0.5392384313166154  0.5667014319352897  1.0000
  C   C15       1.0  0.888619796190223  0.09925850933892183  0.3973684659025214  1.0000
  C   C16       1.0  0.8784362354557439  0.18240219031712002  0.26581548207222516  1.0000
  C   C17       1.0  0.8616436978538483  0.11747897298419897  0.1391504412078064  1.0000
  C   C18       1.0  0.8544818999323569  0.9674474516588877  0.1405066103628172  1.0000
  C   C19       1.0  0.8658328850715452  0.8830682111085677  0.2710349294617045  1.0000
  C   C20       1.0  0.8840471023533822  0.9465558679283059  0.39926938182218286  1.0000
  N   N3        1.0  0.8365003727542316  0.9011457513863336  0.009632925868131135  1.0000
  O   O1        1.0  0.8260435244875411  0.9840763616574447  0.8817890101309657  1.0000
  O   O2        1.0  0.8298843921954753  0.7675625809428543  0.009971644958830737  1.0000
  H   H9        1.0  0.8749684231781378  0.17844579335518862  0.7514963046393099  1.0000
  H   H10       1.0  0.8817012762323593  0.2990485132857357  0.26150168142263047  1.0000
  H   H11       1.0  0.8535033910689517  0.18526884779798114  0.04017961888889343  1.0000
  H   H12       1.0  0.8622082175137981  0.7666629146445983  0.27212080192665966  1.0000
  H   H13       1.0  0.877419969964865  0.6501634241179726  0.6385607624171472  1.0000
  C   C21       1.0  0.8843579122911102  0.5206720803116904  0.9749030749047023  1.0000
  C   C22       1.0  0.9169756163380715  0.4009830024535368  0.0568361071044241  1.0000
  C   C23       1.0  0.9561330512635874  0.28952809741069363  0.9900530222265495  1.0000
  C   C24       1.0  0.9603809698638488  0.29594566008524376  0.8388478442838679  1.0000
  C   C25       1.0  0.9273341395183342  0.4126545266001096  0.7559470757662927  1.0000
  C   C26       1.0  0.8883090018201273  0.5251423517764979  0.8217347811136455  1.0000
  C   C27       1.0  0.9889800266494847  0.16028848100010176  0.07958674925675147  1.0000
  F   F1        1.0  0.01405949922089577  0.20088416434376694  0.21149869669632504  1.0000
  F   F2        1.0  0.049199376864141886  0.09745734671591211  0.009350497961276403  1.0000
  F   F3        1.0  0.9343734297109632  0.059352395185024116  0.10329434571450458  1.0000
  H   H14       1.0  0.913251257776556  0.3960553931994057  0.1737317834182257  1.0000
  H   H15       1.0  0.9886121237707299  0.2097333108863915  0.7842942932044598  1.0000
  H   H16       1.0  0.9305515923265573  0.4129461860399067  0.6392406789281782  1.0000
  H   H17       1.0  0.752149258551364  0.7755819955894605  0.7032016539426972  1.0000
  Zn  Zn1       1.0  0.8039971855554415  0.5272495918543305  0.39967154100887514  1.0000
  Zn  Zn2       1.0  0.9686625170230614  0.5185645011239998  0.3969657909459019  1.0000
  C   C28       1.0  0.8875914868515993  0.5185501216201384  0.661652606793391  1.0000
  C   C29       1.0  0.8850700047036645  0.5272656975703567  0.13498484121858145  1.0000
  C   C30       1.0  0.8848807615386791  0.786368531863348  0.3931644082600858  1.0000
  C   C31       1.0  0.8877806835407853  0.25944555739114006  0.40347311365880345  1.0000
  O   O3        1.0  0.9477986585209128  0.5261763351403101  0.18768291219002298  1.0000
  O   O4        1.0  0.9498400134589133  0.5130466106022223  0.6069005166256185  1.0000
  O   O5        1.0  0.9476502330918899  0.7293134162449322  0.39009441391911603  1.0000
  O   O6        1.0  0.9499883821387041  0.30990954221084177  0.40448890773248203  1.0000
  O   O7        1.0  0.8226712642475588  0.7359045537328139  0.3921484251380545  1.0000
  O   O8        1.0  0.8248610348981412  0.5196394809914365  0.6089544548533996  1.0000
  O   O9        1.0  0.822819672193195  0.5327691461019939  0.1897351167548766  1.0000
  O   O10       1.0  0.8250093963679782  0.31650234342461014  0.4065412203771381  1.0000
