data_image0
_chemical_formula_structural       NC12NC2H8C9H8C7OH5Zn2C4O8
_chemical_formula_sum              "N2 C34 H21 O9 Zn2"
_cell_length_a       19.240039667572717
_cell_length_b       9.275152443626249
_cell_length_c       9.274074313596557
_cell_angle_alpha    85.92156872667384
_cell_angle_beta     90.2336027468708
_cell_angle_gamma    90.57354334366605

_space_group_name_H-M_alt    "P 1"
_space_group_IT_number       1

loop_
  _space_group_symop_operation_xyz
  'x, y, z'

loop_
  _atom_site_type_symbol
  _atom_site_label
  _atom_site_symmetry_multiplicity
  _atom_site_fract_x
  _atom_site_fract_y
  _atom_site_fract_z
  _atom_site_occupancy
  N   N1        1.0  0.6588852448955095  0.5631336898569488  0.4048194525890989  1.0000
  C   C1        1.0  0.5987368763447527  0.5631337822500135  0.4048193613399984  1.0000
  C   C2        1.0  0.5239188395247205  0.5631339110344368  0.404819208519666  1.0000
  C   C3        1.0  0.4873310291066539  0.49265252656398034  0.5198262152793109  1.0000
  C   C4        1.0  0.41465988077933513  0.4925303035448154  0.5199226772453034  1.0000
  C   C5        1.0  0.37758660457434307  0.5631340113761383  0.4048189554968491  1.0000
  C   C6        1.0  0.41488900819195423  0.6337379290258525  0.2897154489309335  1.0000
  C   C7        1.0  0.4875592954413961  0.6336154457513616  0.2898120477371459  1.0000
  C   C8        1.0  0.30038151350055525  0.5631339229622607  0.4048188499075567  1.0000
  C   C9        1.0  0.26268096721972567  0.43778157469790946  0.45171512499668215  1.0000
  C   C10       1.0  0.1900106470705256  0.43789932361494444  0.451613370194863  1.0000
  C   C11       1.0  0.1540492260219722  0.5631337801422576  0.4048189179935022  1.0000
  C   C12       1.0  0.0792311888135628  0.5631336565049787  0.4048191943781824  1.0000
  N   N2        1.0  0.019082872208445793  0.5631336134271947  0.4048194258278388  1.0000
  C   C13       1.0  0.1910353161177862  0.6883683203218998  0.3580244068084335  1.0000
  C   C14       1.0  0.2637063811715888  0.6884862675444898  0.35792247088248486  1.0000
  H   H1        1.0  0.5149590718461146  0.4380916771931127  0.6096188160947094  1.0000
  H   H2        1.0  0.3874865141851182  0.43886809282501904  0.6109501890980598  1.0000
  H   H3        1.0  0.38787584402927866  0.6874001692416116  0.1986878805461172  1.0000
  H   H4        1.0  0.5153610242443214  0.688176186753948  0.200019753368065  1.0000
  H   H5        1.0  0.2893666291641803  0.33908857189446384  0.48664202452836597  1.0000
  H   H6        1.0  0.16189531203210467  0.34021635565025465  0.48768319765242985  1.0000
  H   H7        1.0  0.163720827609576  0.7860512611898434  0.32195459559144757  1.0000
  H   H8        1.0  0.2912071983681593  0.7871793578086478  0.32299552136474574  1.0000
  C   C15       1.0  0.836940050438014  0.13951581757223486  0.4062908291346867  1.0000
  C   C16       1.0  0.811620785018687  0.2210532245467787  0.28384926028783797  1.0000
  C   C17       1.0  0.792757526218213  0.15438738049938205  0.15911527855534158  1.0000
  C   C18       1.0  0.7989163149912605  0.004998691398399482  0.15435316963082002  1.0000
  C   C19       1.0  0.8228743742707777  0.9217629793479452  0.27575994880132026  1.0000
  C   C20       1.0  0.8410347171993916  0.9867405687333093  0.40336047620664417  1.0000
  C   C21       1.0  0.7798257927623511  0.9365811374780121  0.025183286749578704  1.0000
  C   C22       1.0  0.7638419214052657  0.879263994348957  0.9170237622378101  1.0000
  C   C23       1.0  0.7444486481082799  0.8097077779978178  0.7857911482847157  1.0000
  H   H9        1.0  0.9373896450312481  0.2239929002965038  0.6941259780535056  1.0000
  H   H10       1.0  0.8079586642524368  0.33756626051501143  0.28339591097958183  1.0000
  H   H11       1.0  0.7739869007135349  0.2197108099083331  0.06577238773387739  1.0000
  H   H12       1.0  0.8257925908839631  0.8054134795660474  0.2717393838054285  1.0000
  H   H13       1.0  0.9064425701218628  0.6933738090204519  0.6002300548458762  1.0000
  H   H14       1.0  0.7571816667874146  0.6931181259373783  0.7992555568214627  1.0000
  H   H15       1.0  0.687839542202885  0.8220966568623359  0.7660605043439133  1.0000
  H   H16       1.0  0.7736124513604952  0.8611404867144966  0.6925008760203923  1.0000
  C   C24       1.0  0.8381351097009492  0.5589734123258638  0.98159886392185  1.0000
  C   C25       1.0  0.7777404290953291  0.6015619104970333  0.05134042528992189  1.0000
  C   C26       1.0  0.7208243334757748  0.6557436695140291  0.9719708035065406  1.0000
  C   C27       1.0  0.7229723854073413  0.6687780914946339  0.8206457189812588  1.0000
  C   C28       1.0  0.7824202183655271  0.6244479945666592  0.7497702955536698  1.0000
  C   C29       1.0  0.8398396285981012  0.567282895569313  0.8280525293702583  1.0000
  C   C30       1.0  0.663467675428348  0.7269268652276237  0.7350539013372724  1.0000
  O   O1        1.0  0.6091973438198222  0.7671200694035796  0.7956211706323251  1.0000
  H   H17       1.0  0.007779346970573363  0.5222205270280302  0.08851452274252657  1.0000
  H   H18       1.0  0.6753808226684771  0.688767038229467  0.029258245474458544  1.0000
  H   H19       1.0  0.783259376609884  0.6314388256292609  0.6325894530647593  1.0000
  H   H20       1.0  0.9538468193415779  0.5373003896511566  0.5506903861057926  1.0000
  H   H21       1.0  0.6659780239531586  0.7356830198910422  0.6181540984142067  1.0000
  Zn  Zn1       1.0  0.7628305067339448  0.563129898075087  0.4048277685196763  1.0000
  Zn  Zn2       1.0  0.9151375959566787  0.5631257536250773  0.40482291279908034  1.0000
  C   C31       1.0  0.8394881311987653  0.5599654295537103  0.6680744962635841  1.0000
  C   C32       1.0  0.8384816437622309  0.5662920436397583  0.1415763201635325  1.0000
  C   C33       1.0  0.8402455907714691  0.8265406484372475  0.3981712218290355  1.0000
  C   C34       1.0  0.8377241239960992  0.2997150923552008  0.411479677432301  1.0000
  O   O2        1.0  0.8963976599475737  0.5687403769618337  0.195264394936848  1.0000
  O   O3        1.0  0.897169665492281  0.5575128583585918  0.6143823249964373  1.0000
  O   O4        1.0  0.8977805475261806  0.7727757336435346  0.3964335161170168  1.0000
  O   O5        1.0  0.8957867257738455  0.35347751093688773  0.41321309572001896  1.0000
  O   O6        1.0  0.7821813249418356  0.7727781407661877  0.3964375855928086  1.0000
  O   O7        1.0  0.7815704511264209  0.5575169978851742  0.6143863116320807  1.0000
  O   O8        1.0  0.780798441895616  0.5687444492084484  0.19526664897108215  1.0000
  O   O9        1.0  0.7801875078867737  0.3534815739264152  0.41321545784457436  1.0000
