data_image0
_chemical_formula_structural       NC8NC6H8C7ONH7C8H6Zn2C4O8
_chemical_formula_sum              "N3 C33 H21 O9 Zn2"
_cell_length_a       17.457602349358154
_cell_length_b       10.297852080636378
_cell_length_c       9.275144076552241
_cell_angle_alpha    85.95896827245511
_cell_angle_beta     93.32514331016303
_cell_angle_gamma    91.66731456120219

_space_group_name_H-M_alt    "P 1"
_space_group_IT_number       1

loop_
  _space_group_symop_operation_xyz
  'x, y, z'

loop_
  _atom_site_type_symbol
  _atom_site_label
  _atom_site_symmetry_multiplicity
  _atom_site_fract_x
  _atom_site_fract_y
  _atom_site_fract_z
  _atom_site_occupancy
  N   N1        1.0  0.7156043731772218  0.44321201610497474  0.47491514856672046  1.0000
  C   C1        1.0  0.6544859875623114  0.3972031065094064  0.46312924832179836  1.0000
  C   C2        1.0  0.5784521768166117  0.3399738067701552  0.448478183104587  1.0000
  C   C3        1.0  0.5202698640327391  0.3806797732950402  0.5316391534684619  1.0000
  C   C4        1.0  0.44567659328078524  0.32557349223410914  0.5176702699486666  1.0000
  C   C5        1.0  0.3839238573919895  0.3685547099093327  0.6057408948563221  1.0000
  C   C6        1.0  0.3091089723685848  0.3866259070915053  0.5438238812561792  1.0000
  C   C7        1.0  0.25092720779072586  0.4271486928945166  0.6271047217958527  1.0000
  C   C8        1.0  0.1746635385676013  0.44580994146593217  0.5627277743736747  1.0000
  N   N2        1.0  0.11336046710423144  0.4608072056621326  0.5109688765246593  1.0000
  C   C9        1.0  0.2670705231822151  0.44984711240946984  0.7728671978912611  1.0000
  C   C10       1.0  0.3411024575227082  0.43216774729847796  0.8352145677815866  1.0000
  C   C11       1.0  0.3992747476478124  0.3918283303502063  0.7524419495897127  1.0000
  C   C12       1.0  0.4305476360211409  0.2290734303050752  0.4189494032436296  1.0000
  C   C13       1.0  0.48872006644210036  0.18864906017255212  0.33623256601203644  1.0000
  C   C14       1.0  0.5625311535870834  0.24387168225159936  0.35081207873521714  1.0000
  H   H1        1.0  0.5329135265532243  0.4563646094455367  0.6056200675729244  1.0000
  H   H2        1.0  0.2962836983339677  0.37092094466691505  0.4305422505931289  1.0000
  H   H3        1.0  0.22248174261840042  0.4811571993956427  0.8381942759461181  1.0000
  H   H4        1.0  0.3534119174496852  0.44942794573722294  0.9480817117998723  1.0000
  H   H5        1.0  0.45598207332430596  0.37716498127506565  0.8036362423789414  1.0000
  H   H6        1.0  0.3740222307486832  0.18365402598892835  0.4071233857800147  1.0000
  H   H7        1.0  0.4765842954127067  0.11407226754172738  0.26092107745158466  1.0000
  H   H8        1.0  0.60712258685165  0.21169542360298044  0.2860525462599408  1.0000
  C   C15       1.0  0.9145679415013175  0.07057628789340908  0.49295836750571803  1.0000
  C   C16       1.0  0.9034211365018647  0.07867549674752938  0.3413683358345654  1.0000
  C   C17       1.0  0.8970916582691504  0.965660170533153  0.2645613622685463  1.0000
  C   C18       1.0  0.9032268933860946  0.8434143828687466  0.34130100294251847  1.0000
  C   C19       1.0  0.9144042597792527  0.8334333140644518  0.49293873836757207  1.0000
  C   C20       1.0  0.9198201727188433  0.9475163573743066  0.5677943097071816  1.0000
  C   C21       1.0  0.8855086803881864  0.9768235060340474  0.10444983219525383  1.0000
  O   O1        1.0  0.9057071191692134  0.08037132057898355  0.03450238655430837  1.0000
  N   N3        1.0  0.8509015400195123  0.873016113888117  0.026893309133461107  1.0000
  H   H9        1.0  0.9359130330426844  0.26255403839096947  0.779412301405634  1.0000
  H   H10       1.0  0.8989684624621674  0.1732407851376716  0.2828620460928817  1.0000
  H   H11       1.0  0.9008090634649577  0.7557446907827968  0.2832707608154863  1.0000
  H   H12       1.0  0.928409239330589  0.9405205626283543  0.6846264571215221  1.0000
  H   H13       1.0  0.936757868403198  0.607365694518555  0.7793527410818595  1.0000
  H   H14       1.0  0.8465538630374984  0.8811883276513075  0.9138784054085048  1.0000
  H   H15       1.0  0.824927416802405  0.7920786795625782  0.07992461666876927  1.0000
  C   C22       1.0  0.9126788516745062  0.44926685005924916  0.06949928076774903  1.0000
  C   C23       1.0  0.862618975687742  0.5317634411176836  0.13093491279713554  1.0000
  C   C24       1.0  0.8187162470444657  0.6209681230764064  0.04401971544172633  1.0000
  C   C25       1.0  0.8240792536308421  0.6295058301113118  0.8940753026673364  1.0000
  C   C26       1.0  0.8725457790389075  0.5468435007779862  0.8307394127359657  1.0000
  C   C27       1.0  0.916293379039425  0.4547427873087044  0.9163979240738365  1.0000
  C   C28       1.0  0.7790610223274674  0.7222318048459615  0.8046890563637716  1.0000
  C   C29       1.0  0.7413718654754614  0.7998653127189221  0.72983581020901  1.0000
  H   H16       1.0  0.07227015097518485  0.28581488939865984  0.2025701781414222  1.0000
  H   H17       1.0  0.8587803518725847  0.5294101100234809  0.24725710634817588  1.0000
  H   H18       1.0  0.7810992464409308  0.6842504261920095  0.09404799125534224  1.0000
  H   H19       1.0  0.8747449959759109  0.5523381966324219  0.7138541113887498  1.0000
  H   H20       1.0  0.02208331765955763  0.3404930526380192  0.6561736008915489  1.0000
  H   H21       1.0  0.7082886094965725  0.8680109612285863  0.6641287229702111  1.0000
  Zn  Zn1       1.0  0.8303882261939431  0.4482861782753662  0.4853278015936371  1.0000
  Zn  Zn2       1.0  0.9985766525085341  0.4557224702022728  0.5005680294954109  1.0000
  C   C30       1.0  0.9156095521739638  0.44853305898559803  0.7563158871173716  1.0000
  C   C31       1.0  0.9133571633933617  0.4554773105083431  0.229580251883583  1.0000
  C   C32       1.0  0.9144067474004545  0.6891997693533134  0.4871959325874084  1.0000
  C   C33       1.0  0.9145599114388131  0.21480903753338262  0.49870027813161094  1.0000
  O   O2        1.0  0.9774114434833566  0.46037796509901646  0.2890884753568019  1.0000
  O   O3        1.0  0.9792063944800625  0.4492753953309882  0.708374228915531  1.0000
  O   O4        1.0  0.9782342603996912  0.6436167792512641  0.4910578835629531  1.0000
  O   O5        1.0  0.9783835197089703  0.26603658723395385  0.5064047073896603  1.0000
  O   O6        1.0  0.8505813015990185  0.6379720587074085  0.4794911184910615  1.0000
  O   O7        1.0  0.8515534350129599  0.4436322348581007  0.696807386917248  1.0000
  O   O8        1.0  0.8497584766777116  0.4547347481550354  0.277519899678101  1.0000
  O   O9        1.0  0.8507305533635953  0.26039336169848276  0.4948362398223524  1.0000
