data_image0
_chemical_formula_structural       NC9NC5H8C7H8C7OH5Zn2C4O8
_chemical_formula_sum              "N2 C32 H21 O9 Zn2"
_cell_length_a       17.807436237873137
_cell_length_b       9.274341958901593
_cell_length_c       9.274081674992354
_cell_angle_alpha    86.03521128040593
_cell_angle_beta     89.07685020002327
_cell_angle_gamma    87.76967926577302

_space_group_name_H-M_alt    "P 1"
_space_group_IT_number       1

loop_
  _space_group_symop_operation_xyz
  'x, y, z'

loop_
  _atom_site_type_symbol
  _atom_site_label
  _atom_site_symmetry_multiplicity
  _atom_site_fract_x
  _atom_site_fract_y
  _atom_site_fract_z
  _atom_site_occupancy
  N   N1        1.0  0.7035994664554406  0.5272363842905372  0.3977948904463758  1.0000
  C   C1        1.0  0.6432696232186006  0.488029587411426  0.385577829403543  1.0000
  C   C2        1.0  0.5682259290443372  0.4392606496001459  0.3703811319518487  1.0000
  C   C3        1.0  0.550936943913068  0.358859812070621  0.25387410529229393  1.0000
  C   C4        1.0  0.4780743593076924  0.3113842246619629  0.23902743922882363  1.0000
  C   C5        1.0  0.4214545156469177  0.3438897139267285  0.3406519807285455  1.0000
  C   C6        1.0  0.3440193735399623  0.29356389145032785  0.32496485483274995  1.0000
  C   C7        1.0  0.2812432323663447  0.3846562032547052  0.35371174627227475  1.0000
  C   C8        1.0  0.2082395683039443  0.336955179537638  0.3388803725349787  1.0000
  C   C9        1.0  0.1443952500408106  0.431041240249479  0.3680297439416955  1.0000
  N   N2        1.0  0.0930774454996958  0.5066799348390536  0.39146503529910737  1.0000
  C   C10       1.0  0.1974302020897849  0.19787497390677936  0.2952741075799639  1.0000
  C   C11       1.0  0.2593490885770134  0.10676718765126302  0.2665179115693817  1.0000
  C   C12       1.0  0.332236476774292  0.15402783544631626  0.28112469247041516  1.0000
  C   C13       1.0  0.4394310674483442  0.4248420011798682  0.45740207339445466  1.0000
  C   C14       1.0  0.5123482423196236  0.47210449147371786  0.4720760801881727  1.0000
  H   H1        1.0  0.5937152419975373  0.33315554036175743  0.17429054570670527  1.0000
  H   H2        1.0  0.465778485902736  0.25090714917954915  0.14702072323194626  1.0000
  H   H3        1.0  0.2890325831233201  0.4932304370695381  0.3857114018874704  1.0000
  H   H4        1.0  0.14121418739022928  0.15995424117262091  0.2835326360028607  1.0000
  H   H5        1.0  0.2508603166969933  0.9990919725426036  0.2331854611617592  1.0000
  H   H6        1.0  0.3793535131159247  0.08079332509318404  0.26001726356639465  1.0000
  H   H7        1.0  0.3973686476338691  0.44996044842340166  0.5384227082943913  1.0000
  H   H8        1.0  0.525168343419944  0.5339271252171893  0.5629260277108328  1.0000
  C   C15       1.0  0.9007305595724492  0.09325840307525168  0.3948380409650112  1.0000
  C   C16       1.0  0.9100162808915667  0.17493421626676223  0.26271188526804345  1.0000
  C   C17       1.0  0.9118209785286078  0.10871829299709047  0.13210648031524164  1.0000
  C   C18       1.0  0.9035585237075184  0.9595085582701999  0.1305000173465105  1.0000
  C   C19       1.0  0.8966171188735391  0.8760916082759548  0.26152153350399265  1.0000
  C   C20       1.0  0.895953536491378  0.9406465675371568  0.3944343202664917  1.0000
  C   C21       1.0  0.907161235191945  0.8880734469977618  0.9901209880259151  1.0000
  H   H9        1.0  0.8371799390347222  0.1777535026495687  0.7298151059738557  1.0000
  H   H10       1.0  0.9142830413978712  0.2912946213289169  0.26016504896610715  1.0000
  H   H11       1.0  0.9188711074952336  0.17432853130202355  0.031923369501551946  1.0000
  H   H12       1.0  0.8934454070910137  0.7597386322856873  0.25973293158385746  1.0000
  H   H13       1.0  0.8561509202560782  0.6471788778836026  0.6217987103944237  1.0000
  H   H14       1.0  0.966333529244353  0.8551924706274849  0.9655486656546297  1.0000
  H   H15       1.0  0.8855202574109038  0.9632293690496433  0.9005223995187999  1.0000
  H   H16       1.0  0.872471356522565  0.7907838471438734  0.9964501905027784  1.0000
  C   C22       1.0  0.8996316959151088  0.5131032817002416  0.9713476243470911  1.0000
  C   C23       1.0  0.960313043940277  0.5726755125031877  0.03885183305213946  1.0000
  C   C24       1.0  0.016678498992555024  0.6431165698069781  0.9574111078542998  1.0000
  C   C25       1.0  0.012345156222965064  0.6543774868710528  0.8063525626698738  1.0000
  C   C26       1.0  0.9532432698231793  0.5938994591299216  0.7376203245695123  1.0000
  C   C27       1.0  0.8970524222919244  0.5208016921792602  0.8179246597051537  1.0000
  C   C28       1.0  0.07909599272732382  0.7054685274802382  0.03180431913356108  1.0000
  O   O1        1.0  0.13043706015073364  0.7699607743463478  0.9615920078109707  1.0000
  H   H17       1.0  0.7220971317052307  0.42877492451565996  0.08565495817315805  1.0000
  H   H18       1.0  0.05505574223699595  0.7087736973244845  0.7410183734293319  1.0000
  H   H19       1.0  0.9525041711233447  0.6013910169735889  0.6205543422419844  1.0000
  H   H20       1.0  0.7787444669233542  0.45803505080197154  0.5448022686645224  1.0000
  H   H21       1.0  0.08133863045156398  0.6961802844931939  0.1486802717288742  1.0000
  Zn  Zn1       1.0  0.8159943931320023  0.5213004629084141  0.395976569187489  1.0000
  Zn  Zn2       1.0  0.9806825308236402  0.5126042027765161  0.3932952123344833  1.0000
  C   C29       1.0  0.8975706819597926  0.5135986857030745  0.6579062730951919  1.0000
  C   C30       1.0  0.8991080296913889  0.5203077068065789  0.13136561975644634  1.0000
  C   C31       1.0  0.8968701419788028  0.7804201493399896  0.3887666466291677  1.0000
  C   C32       1.0  0.8998085230139493  0.2534845133447874  0.4005053248126462  1.0000
  O   O2        1.0  0.9614306079823344  0.5194190976659321  0.18405156284575708  1.0000
  O   O3        1.0  0.9602425969529416  0.507885942379549  0.603184827776694  1.0000
  O   O4        1.0  0.9596760549854577  0.7233477068019865  0.38585268820045715  1.0000
  O   O5        1.0  0.96199709402401  0.3039573455495288  0.40138359525406364  1.0000
  O   O6        1.0  0.8346797737316674  0.7299473231045097  0.3878881871753411  1.0000
  O   O7        1.0  0.8352463061576164  0.5144872914760564  0.6052202490688354  1.0000
  O   O8        1.0  0.8364343228004737  0.526020380721127  0.18608525113302088  1.0000
  O   O9        1.0  0.8370008085679924  0.31055861926779826  0.40341739161669077  1.0000
