data_image0
_chemical_formula_structural       NC9NC5H8C6NCH9C6NCH7Zn2C4O8
_chemical_formula_sum              "N4 C32 H24 Zn2 O8"
_cell_length_a       17.807436237873137
_cell_length_b       9.273386996610926
_cell_length_c       9.273390368590327
_cell_angle_alpha    86.07317832945773
_cell_angle_beta     89.39974432744097
_cell_angle_gamma    87.7895077601149

_space_group_name_H-M_alt    "P 1"
_space_group_IT_number       1

loop_
  _space_group_symop_operation_xyz
  'x, y, z'

loop_
  _atom_site_type_symbol
  _atom_site_label
  _atom_site_symmetry_multiplicity
  _atom_site_fract_x
  _atom_site_fract_y
  _atom_site_fract_z
  _atom_site_occupancy
  N   N1        1.0  0.6992277277175833  0.5250178091648823  0.39629751951791614  1.0000
  C   C1        1.0  0.6388551493843592  0.4857857847864573  0.3841245772230857  1.0000
  C   C2        1.0  0.5637582974014167  0.4369854667150436  0.36898275863749763  1.0000
  C   C3        1.0  0.5461160236953981  0.3563920130232005  0.25257594042847703  1.0000
  C   C4        1.0  0.47320153711652196  0.3088857959362723  0.2377827034855475  1.0000
  C   C5        1.0  0.4168828984187595  0.3415531479070979  0.33936092789491146  1.0000
  C   C6        1.0  0.3393928861324257  0.2911949352418648  0.32373043336485824  1.0000
  C   C7        1.0  0.2767170864068625  0.3823464177959017  0.35237478162672264  1.0000
  C   C8        1.0  0.2036615231203394  0.3346147511161492  0.337597081584428  1.0000
  C   C9        1.0  0.1399192688065069  0.4287610918430682  0.3666405974553062  1.0000
  N   N2        1.0  0.088683520146178  0.5044482492653981  0.3899907881442083  1.0000
  C   C10       1.0  0.1926997818736737  0.1954446417581237  0.294147349777486  1.0000
  C   C11       1.0  0.2545182970247483  0.10427766789053726  0.2654937148348573  1.0000
  C   C12       1.0  0.3274568506520804  0.15156854069924286  0.2800473268884669  1.0000
  C   C13       1.0  0.43521354678113927  0.42269851588135804  0.45601018399103793  1.0000
  C   C14       1.0  0.5081820826991266  0.4699913350500631  0.470631012769285  1.0000
  H   H1        1.0  0.5886583980931284  0.33056094377233136  0.17302892408347012  1.0000
  H   H2        1.0  0.46062722588128197  0.24825710255217803  0.1458518289871169  1.0000
  H   H3        1.0  0.2846194586521796  0.4909876901590082  0.3842524555659832  1.0000
  H   H4        1.0  0.1364426512839922  0.15749962433537146  0.28244854179527557  1.0000
  H   H5        1.0  0.2459127983693276  0.9965335080130132  0.23228240614057882  1.0000
  H   H6        1.0  0.3744990374368466  0.07828954644092989  0.25902212522043233  1.0000
  H   H7        1.0  0.3933911167451217  0.44794587871323294  0.5369947624689422  1.0000
  H   H8        1.0  0.5212775102012812  0.5319640246152348  0.5614037724215777  1.0000
  C   C15       1.0  0.8962700120187841  0.09096435013742864  0.39381493839339043  1.0000
  C   C16       1.0  0.9094833647020505  0.1723568940453355  0.26328483635285105  1.0000
  C   C17       1.0  0.9156210447502053  0.10614457296846645  0.13286125918828962  1.0000
  C   C18       1.0  0.9086384091237718  0.9561772001818685  0.1296341907696097  1.0000
  C   C19       1.0  0.896749438989736  0.87374698141018  0.25969015727776124  1.0000
  C   C20       1.0  0.8916484560350801  0.9384903757615624  0.39248581040354336  1.0000
  N   N3        1.0  0.9141411918486436  0.8849333870924732  0.9965302231323577  1.0000
  C   C21       1.0  0.9266797858798562  0.9606726667383486  0.8556811787404754  1.0000
  H   H9        1.0  0.9115898731965854  0.3548150869036713  0.6301897588113082  1.0000
  H   H10       1.0  0.9133165655360759  0.28878153760157743  0.2614545313590439  1.0000
  H   H11       1.0  0.9251117582373221  0.17320481480017988  0.03480763218850557  1.0000
  H   H12       1.0  0.8932026943592487  0.7575090692704345  0.25747392075061803  1.0000
  H   H13       1.0  0.9192684584473061  0.8094009691214986  0.7430776924722253  1.0000
  H   H14       1.0  0.9088278673156267  0.7728786613954821  0.9996049622328259  1.0000
  H   H15       1.0  0.8800965475622022  0.041440394976037576  0.8313938605707301  1.0000
  H   H16       1.0  0.9810724499101426  0.015354080366609454  0.8550329392473741  1.0000
  H   H17       1.0  0.9285861761113636  0.8822284389156089  0.770325780598779  1.0000
  C   C22       1.0  0.8940186114726596  0.5102254637105093  0.9699110813621655  1.0000
  C   C23       1.0  0.9630545947532905  0.5037127913352775  0.042400379810561654  1.0000
  C   C24       1.0  0.030813557098546163  0.5106784991552178  0.9658708608373962  1.0000
  C   C25       1.0  0.031257460922404105  0.5244568168996531  0.8142128133823965  1.0000
  C   C26       1.0  0.962692793531746  0.5285116417443627  0.740910312240539  1.0000
  C   C27       1.0  0.8938998898831493  0.5192293048154675  0.8163896288165051  1.0000
  N   N4        1.0  0.10027749505759287  0.5330169964706868  0.7322866375717945  1.0000
  C   C28       1.0  0.17447392399731543  0.5292682644364091  0.7980730503926987  1.0000
  H   H18       1.0  0.7757834617619604  0.44717171390096633  0.25778055522077437  1.0000
  H   H19       1.0  0.08259787490686454  0.5066159641998387  0.026155493314886872  1.0000
  H   H20       1.0  0.7193793017779596  0.4163678221834776  0.7239103739746575  1.0000
  H   H21       1.0  0.09778704564652996  0.5427096176193145  0.6194352900034058  1.0000
  H   H22       1.0  0.1788462516584033  0.621581804074685  0.8673174290182488  1.0000
  H   H23       1.0  0.18420297654781925  0.42563120904601637  0.8636403235914552  1.0000
  H   H24       1.0  0.21845398861433551  0.5378516607271577  0.712452218054711  1.0000
  Zn  Zn1       1.0  0.811616275339091  0.5190781166187133  0.39448587451478634  1.0000
  Zn  Zn2       1.0  0.9762950168094232  0.5103763047260201  0.3918143003887397  1.0000
  C   C29       1.0  0.8939519872903053  0.5117785780226829  0.6563961086606573  1.0000
  C   C30       1.0  0.8939610931963355  0.517677570600481  0.12990417567479448  1.0000
  C   C31       1.0  0.8925189786647731  0.7782290429462093  0.38699373106414525  1.0000
  C   C32       1.0  0.8953940550719701  0.2512253756904479  0.3993066337422832  1.0000
  O   O1        1.0  0.9564365480248901  0.5168699778406562  0.18258548109659367  1.0000
  O   O2        1.0  0.9564638928255922  0.5059806038434449  0.6016867271100415  1.0000
  O   O3        1.0  0.9553058775686127  0.7211427844524216  0.3841424124485231  1.0000
  O   O4        1.0  0.9575945070470375  0.3017078093746352  0.4001296885881507  1.0000
  O   O5        1.0  0.8303167289046968  0.7277466149410895  0.38617048721946934  1.0000
  O   O6        1.0  0.8314747347147935  0.5125861672896106  0.6037147223141052  1.0000
  O   O7        1.0  0.8314473904813593  0.5234754725650588  0.18461174355237306  1.0000
  O   O8        1.0  0.8326053495415591  0.3083132949270735  0.402156059117986  1.0000
