data_image0
_chemical_formula_structural       NC10NC3NH7C12SCH12C12SCH12Zn2C4O8
_chemical_formula_sum              "N3 C43 H31 S2 Zn2 O8"
_cell_length_a       19.210446455230148
_cell_length_b       10.299776766347529
_cell_length_c       10.299780138516091
_cell_angle_alpha    85.57845135651907
_cell_angle_beta     89.98277112440111
_cell_angle_gamma    89.9285037425463

_space_group_name_H-M_alt    "P 1"
_space_group_IT_number       1

loop_
  _space_group_symop_operation_xyz
  'x, y, z'

loop_
  _atom_site_type_symbol
  _atom_site_label
  _atom_site_symmetry_multiplicity
  _atom_site_fract_x
  _atom_site_fract_y
  _atom_site_fract_z
  _atom_site_occupancy
  N   N1        1.0  0.6553256543854582  0.41976599717456553  0.5674824297155836  1.0000
  C   C1        1.0  0.595096528971065  0.4219735174611023  0.5677137132677954  1.0000
  C   C2        1.0  0.5202913751921439  0.4247104383183531  0.5680002448679076  1.0000
  C   C3        1.0  0.4846499370504476  0.5409419825250197  0.5831190114631344  1.0000
  C   C4        1.0  0.4119844213104598  0.5410935017599708  0.5830664267174035  1.0000
  C   C5        1.0  0.3751244343354894  0.4254194099657502  0.5680867708879512  1.0000
  C   C6        1.0  0.297802662346908  0.4240629289350532  0.5679360961575637  1.0000
  C   C7        1.0  0.2600251401853325  0.5276139255167067  0.5045842912283389  1.0000
  C   C8        1.0  0.187247151671676  0.526211701595093  0.5044751291797076  1.0000
  C   C9        1.0  0.151245210664483  0.42151597063136803  0.5676667948379823  1.0000
  C   C10       1.0  0.07631603319771  0.42021388590550757  0.5675298863352538  1.0000
  N   N2        1.0  0.016078456330006912  0.41916696558758554  0.5674198467703109  1.0000
  C   C11       1.0  0.18829904427895017  0.318090656659181  0.6309936008730179  1.0000
  C   C12       1.0  0.2610789497213506  0.3192186330189384  0.6311529881060838  1.0000
  C   C13       1.0  0.41337525046314555  0.31100815152650707  0.5532562756119748  1.0000
  N   N3        1.0  0.48414455881449947  0.3134531072809794  0.5534219925705814  1.0000
  H   H1        1.0  0.5127272105654211  0.6303764831584011  0.5951727834932048  1.0000
  H   H2        1.0  0.3846916557218162  0.6311102224013503  0.596514892266141  1.0000
  H   H3        1.0  0.2867339004878122  0.6088516573223968  0.45360155856229456  1.0000
  H   H4        1.0  0.1590823674367537  0.6066221025457683  0.45482266969400786  1.0000
  H   H5        1.0  0.1609507507084718  0.23671685736351897  0.6805465166610438  1.0000
  H   H6        1.0  0.288598759317535  0.23892779597579092  0.6822431111559477  1.0000
  H   H7        1.0  0.3871340474913291  0.2201285201123211  0.5397615080468354  1.0000
  C   C14       1.0  0.8357710145333402  0.03810124570753981  0.5674495333764225  1.0000
  C   C15       1.0  0.8399439002257697  0.026571614841866206  0.7039558856677379  1.0000
  C   C16       1.0  0.8419913149356107  0.9035909509196304  0.7731301108562381  1.0000
  C   C17       1.0  0.839810795584535  0.7912840638121796  0.7039710983284924  1.0000
  C   C18       1.0  0.8356397690537039  0.8008217438657652  0.5674639963699921  1.0000
  C   C19       1.0  0.833642835289325  0.9246693636798375  0.49996734257594216  1.0000
  C   C20       1.0  0.8463980859741833  0.8924578212517007  0.9175384307758477  1.0000
  C   C21       1.0  0.8065536702490096  0.7990847390823131  0.9915843340685775  1.0000
  C   C22       1.0  0.8107218636637227  0.7888415813908684  0.1274861283207196  1.0000
  C   C23       1.0  0.8545607841169652  0.871693742913911  0.19114863147950412  1.0000
  C   C24       1.0  0.894571214739397  0.9644931555610303  0.11847569563954541  1.0000
  C   C25       1.0  0.8905050930153123  0.9750860295546132  0.982563469197775  1.0000
  S   S1        1.0  0.8599859112796858  0.8580896972095435  0.3655293177220294  1.0000
  C   C26       1.0  0.7900358035882468  0.9742732535560051  0.38506919138766704  1.0000
  H   H8        1.0  0.8342083412262099  0.36994799492966574  0.515434411867512  1.0000
  H   H9        1.0  0.840651514902286  0.11341667419245027  0.7569114492274676  1.0000
  H   H10       1.0  0.8423334288553447  0.6962812457108472  0.7567302204578543  1.0000
  H   H11       1.0  0.8304241073386714  0.9327954945803495  0.3946584959293993  1.0000
  H   H12       1.0  0.8340156655678359  0.4770023222684279  0.5154535510483895  1.0000
  H   H13       1.0  0.7715158739084419  0.7351653554411621  0.9444786370626561  1.0000
  H   H14       1.0  0.7795959460408178  0.7168469354013789  0.18321024152811283  1.0000
  H   H15       1.0  0.9288680422646283  0.028470100067891742  0.16717037633843557  1.0000
  H   H16       1.0  0.9225094629376248  0.046710670811983095  0.9282521757361081  1.0000
  H   H17       1.0  0.8039743240708936  0.07056582015183843  0.3361915570914032  1.0000
  H   H18       1.0  0.7819621049472147  0.9849961978422147  0.49034461059203227  1.0000
  H   H19       1.0  0.7410568997593132  0.9388100137513306  0.34295770351610866  1.0000
  C   C27       1.0  0.8357333784988973  0.4193501491031723  0.18610462785894155  1.0000
  C   C28       1.0  0.7695575445392917  0.36144907180492636  0.18960942869047215  1.0000
  C   C29       1.0  0.7359981649960124  0.33222444606850665  0.07423842943845083  1.0000
  C   C30       1.0  0.7695005170694401  0.3616746031737746  0.9543055463521215  1.0000
  C   C31       1.0  0.8356773894093004  0.41957285529379956  0.9488089069900095  1.0000
  C   C32       1.0  0.8684232172289704  0.448087194122778  0.06523150526318533  1.0000
  C   C33       1.0  0.6659887250765527  0.2709849886008994  0.07900902450163572  1.0000
  C   C34       1.0  0.6144282207704557  0.31273115706830473  0.9880622818219029  1.0000
  C   C35       1.0  0.5485505997407033  0.25506245588188853  0.9927888709526483  1.0000
  C   C36       1.0  0.5332725710205035  0.1552790313519472  0.08835236353117915  1.0000
  C   C37       1.0  0.5842136980557041  0.11273496655310165  0.17889354809538327  1.0000
  C   C38       1.0  0.650134413794719  0.17023016809717006  0.17452935612981005  1.0000
  S   S2        1.0  0.44877110250870994  0.08114891182221859  0.09396700221695209  1.0000
  C   C39       1.0  0.4130544187880639  0.19542230659185209  0.20270431621442064  1.0000
  H   H20       1.0  0.8609595596977401  0.4413655718309552  0.5122261450771981  1.0000
  H   H21       1.0  0.7435466532293525  0.34057015602526497  0.2821628919713779  1.0000
  H   H22       1.0  0.7442623036309043  0.33771535118713203  0.8652372615558783  1.0000
  H   H23       1.0  0.9194752181847939  0.4927546267379829  0.06175932850157518  1.0000
  H   H24       1.0  0.8608783775222523  0.4416931671504376  0.6192565966072655  1.0000
  H   H25       1.0  0.6247656527432794  0.3910810092271333  0.9143837150233263  1.0000
  H   H26       1.0  0.509323825581732  0.2884605255864632  0.9224650021255144  1.0000
  H   H27       1.0  0.5728122300286841  0.035082848809125926  0.2526971772007953  1.0000
  H   H28       1.0  0.6889870220985288  0.13478175215749477  0.2447524359683806  1.0000
  H   H29       1.0  0.4424904777139345  0.18934338688662608  0.29571320607760665  1.0000
  H   H30       1.0  0.3578181620160393  0.17038552542529972  0.2234857704738589  1.0000
  H   H31       1.0  0.4157277910796567  0.2961388520168937  0.15611446362435766  1.0000
  Zn  Zn1       1.0  0.7594311195432771  0.41958966776774687  0.567471868300945  1.0000
  Zn  Zn2       1.0  0.9119729762726682  0.41933271565409336  0.5674410432935992  1.0000
  C   C40       1.0  0.8356873031426292  0.41435712688051923  0.8046413466286858  1.0000
  C   C41       1.0  0.8357184581342777  0.4245668923764403  0.33027169212111374  1.0000
  C   C42       1.0  0.8356613556110438  0.6566498351604972  0.5622863012613353  1.0000
  C   C43       1.0  0.83574435387744  0.18227262391679577  0.5726268067050237  1.0000
  O   O1        1.0  0.8936022913489443  0.4262145013995879  0.37864377783298364  1.0000
  O   O2        1.0  0.8935792098033278  0.4125135173263508  0.7562454916013568  1.0000
  O   O3        1.0  0.8935574763750354  0.6081679451807303  0.560542077948329  1.0000
  O   O4        1.0  0.8936239727305836  0.2305600828945906  0.5743470941263245  1.0000
  O   O5        1.0  0.7777800710303128  0.6083623006163461  0.5605658174719081  1.0000
  O   O6        1.0  0.777801804191979  0.41270943303073016  0.7562691619120654  1.0000
  O   O7        1.0  0.7778248859063108  0.4264103713924725  0.37866588681087654  1.0000
  O   O8        1.0  0.7778465672795543  0.23075594362718999  0.5743693004675929  1.0000
