data_image0
_chemical_formula_structural       NC9NC5H8C12NCOCH13C13NH13Zn2C4O8
_chemical_formula_sum              "N4 C45 H34 O9 Zn2"
_cell_length_a       17.807436237873137
_cell_length_b       10.299155265289647
_cell_length_c       10.299780419254978
_cell_angle_alpha    85.55647119552991
_cell_angle_beta     89.37921623596309
_cell_angle_gamma    88.36808077728017

_space_group_name_H-M_alt    "P 1"
_space_group_IT_number       1

loop_
  _space_group_symop_operation_xyz
  'x, y, z'

loop_
  _atom_site_type_symbol
  _atom_site_label
  _atom_site_symmetry_multiplicity
  _atom_site_fract_x
  _atom_site_fract_y
  _atom_site_fract_z
  _atom_site_occupancy
  N   N1        1.0  0.7073002055756094  0.3875503695976459  0.556774349907839  1.0000
  C   C1        1.0  0.6467219098090425  0.35235524667541557  0.5457611275099019  1.0000
  C   C2        1.0  0.5713691679934451  0.30857638964605244  0.5320618746338948  1.0000
  C   C3        1.0  0.5533076329705834  0.23713198898686105  0.4270836638614184  1.0000
  C   C4        1.0  0.48014404425449353  0.19451456839309833  0.41369997925735036  1.0000
  C   C5        1.0  0.4239933595570093  0.2229639800056968  0.5052621654780691  1.0000
  C   C6        1.0  0.346239288639745  0.17778758236605416  0.4911208125584466  1.0000
  C   C7        1.0  0.2840414385166476  0.2595563600298312  0.5170348652000016  1.0000
  C   C8        1.0  0.21073558779981058  0.21673588740814953  0.5036649206864052  1.0000
  C   C9        1.0  0.14748700632306802  0.3011963231853878  0.5299420752312936  1.0000
  N   N2        1.0  0.0966481364929507  0.3690966704834462  0.5510681827344726  1.0000
  C   C10       1.0  0.19904410257180064  0.091888629950591  0.4643556502211028  1.0000
  C   C11       1.0  0.2603845870536817  0.010105996964286474  0.438433212235142  1.0000
  C   C12       1.0  0.3335711199503794  0.05253185047625354  0.45160074106745135  1.0000
  C   C13       1.0  0.44274616065853695  0.29490283718034815  0.610459453361174  1.0000
  C   C14       1.0  0.5159626836181351  0.3373298128188429  0.6236875484643245  1.0000
  H   H1        1.0  0.5957171727522196  0.2146289237507524  0.3553800303325074  1.0000
  H   H2        1.0  0.46725449120991164  0.14080935270115646  0.33079817819011437  1.0000
  H   H3        1.0  0.2925135501371409  0.35703580663612666  0.5458823267864257  1.0000
  H   H4        1.0  0.1425880003783962  0.057847382737900244  0.4537711141964634  1.0000
  H   H5        1.0  0.2512141120253552  0.9134464510496254  0.40838514158369116  1.0000
  H   H6        1.0  0.38022899772878  0.9867770919283293  0.43257227696557066  1.0000
  H   H7        1.0  0.40105344537132914  0.31686709629328  0.6834576973883266  1.0000
  H   H8        1.0  0.5293804578689902  0.39225548413763756  0.705547402030172  1.0000
  C   C15       1.0  0.9020616530482408  0.9969219266918122  0.5540387064863836  1.0000
  C   C16       1.0  0.8892464519304332  0.007212085265952079  0.4193072403635076  1.0000
  C   C17       1.0  0.882676130553665  0.8952951619361424  0.350878896188521  1.0000
  C   C18       1.0  0.889066860857237  0.7719607881305856  0.4190021010351197  1.0000
  C   C19       1.0  0.9018938904565129  0.7597148455946093  0.5538149807989643  1.0000
  C   C20       1.0  0.908315660920894  0.8727161298505114  0.6205032700929312  1.0000
  C   C21       1.0  0.8691201225989653  0.9071545325513033  0.2083492601766008  1.0000
  C   C22       1.0  0.907231373379065  0.9994486486162552  0.12637668424061554  1.0000
  C   C23       1.0  0.8944804584617813  0.010477927427363205  0.9922467085446341  1.0000
  C   C24       1.0  0.8438304943258791  0.9285290645257825  0.937240893110276  1.0000
  C   C25       1.0  0.8048015782247113  0.8380947192593328  0.019158761506225867  1.0000
  C   C26       1.0  0.8175798606590112  0.8268081191108021  0.153251002283725  1.0000
  N   N3        1.0  0.8286623480108956  0.9394713018684147  0.7999081569718443  1.0000
  C   C27       1.0  0.8835311161951316  0.9737946147736017  0.7008905940633188  1.0000
  O   O1        1.0  0.9524481776314013  0.9730660915253307  0.727737770100156  1.0000
  C   C28       1.0  0.8595826564380313  0.0013586238112979212  0.5627077487947791  1.0000
  H   H9        1.0  0.9070142477132842  0.3204389724122241  0.6058561556087825  1.0000
  H   H10       1.0  0.8833094931591872  0.10253190925377155  0.36758688032377496  1.0000
  H   H11       1.0  0.8850326048628043  0.6853461471310149  0.3664350805206298  1.0000
  H   H12       1.0  0.9182028225132368  0.8640641304691701  0.7244239829759465  1.0000
  H   H13       1.0  0.9265541137768043  0.5292966132112202  0.8081298335749155  1.0000
  H   H14       1.0  0.9473426478020356  0.06260104187257998  0.16587939407144447  1.0000
  H   H15       1.0  0.9233096034795116  0.08455950364293871  0.9322463745295089  1.0000
  H   H16       1.0  0.7646183222205089  0.7756496764593608  0.9787901086338113  1.0000
  H   H17       1.0  0.7863365612988182  0.7564574202859127  0.214119628122464  1.0000
  H   H18       1.0  0.7757521155721188  0.9131064793356247  0.7696115050101886  1.0000
  H   H19       1.0  0.8053525401869686  0.05737402958340016  0.559049078473242  1.0000
  H   H20       1.0  0.8526368222440539  0.9080723813669411  0.5175874555795894  1.0000
  H   H21       1.0  0.9023583793290496  0.05941535754474978  0.5066879813632599  1.0000
  C   C29       1.0  0.9020289344357755  0.3782310633193501  0.17257197262085056  1.0000
  C   C30       1.0  0.9564001719897536  0.4746906253486278  0.16308419589626966  1.0000
  C   C31       1.0  0.9838925605996822  0.5236654880224791  0.04113356518992206  1.0000
  C   C32       1.0  0.9562969524030934  0.4748677631099296  0.9277854817030633  1.0000
  C   C33       1.0  0.9019266079060486  0.37840563921908527  0.9352816927340029  1.0000
  C   C34       1.0  0.8750949906665882  0.3306309741155331  0.05812469648818452  1.0000
  C   C35       1.0  0.04141519503310964  0.625708726547791  0.03218785224122889  1.0000
  C   C36       1.0  0.03631360501270553  0.7305360017845641  0.9364053120994761  1.0000
  C   C37       1.0  0.09047959246693393  0.8264927116838683  0.9280707468744613  1.0000
  C   C38       1.0  0.15036659872040192  0.8199509141549028  0.015868637306888592  1.0000
  C   C39       1.0  0.15618844482625627  0.7148106431673477  0.11058393183179716  1.0000
  C   C40       1.0  0.10203799640006261  0.6188284959482374  0.11909104731776332  1.0000
  C   C41       1.0  0.20966900923538812  0.9213657528696393  0.004513183345323138  1.0000
  N   N4        1.0  0.2672682488482472  0.8859813926157418  0.910800834986885  1.0000
  H   H22       1.0  0.8813414894692935  0.3414271397875135  0.5036436447920833  1.0000
  H   H23       1.0  0.9767561982165455  0.5132346356126682  0.2506440318283487  1.0000
  H   H24       1.0  0.9780675818806416  0.5109936813400244  0.8336479050470613  1.0000
  H   H25       1.0  0.8331503071906752  0.25621575581981504  0.0646755167768358  1.0000
  H   H26       1.0  0.8811947541577296  0.3416728204862356  0.6106829854416143  1.0000
  H   H27       1.0  0.9899790925633717  0.7390789761978391  0.8687807858405279  1.0000
  H   H28       1.0  0.08562341193139411  0.9061289003675644  0.8532791119579484  1.0000
  H   H29       1.0  0.20280178233881746  0.7069067614104461  0.1776776539482774  1.0000
  H   H30       1.0  0.10820378210899026  0.5381130028908507  0.19239790323903172  1.0000
  H   H31       1.0  0.18368937038390265  0.017630684348945106  0.9715852186068799  1.0000
  H   H32       1.0  0.23557470748927334  0.9314491005688224  0.10098685020136  1.0000
  H   H33       1.0  0.3051621974760452  0.9618826199702344  0.9002829259209562  1.0000
  H   H34       1.0  0.29742604208381856  0.8042426672164682  0.9511551363224561  1.0000
  Zn  Zn1       1.0  0.8196576066216418  0.382221566792984  0.5551351848539023  1.0000
  Zn  Zn2       1.0  0.984290718145843  0.37441488865555406  0.5527180271123686  1.0000
  C   C42       1.0  0.9019453909670845  0.3731986301194394  0.791114796668919  1.0000
  C   C43       1.0  0.9020047312112834  0.3834393788689078  0.3167385158832141  1.0000
  C   C44       1.0  0.9019224078223335  0.6155297185510789  0.5486823582340037  1.0000
  C   C45       1.0  0.9020276585122116  0.14110673268136353  0.5591710248366577  1.0000
  O   O2        1.0  0.9644740174651821  0.38221907725303567  0.36420482767568396  1.0000
  O   O3        1.0  0.9644288272748499  0.3684928637716098  0.7418135445349261  1.0000
  O   O4        1.0  0.964409425688254  0.5641783226213763  0.5460476472187523  1.0000
  O   O5        1.0  0.964493362884672  0.1865336303358815  0.5599706284428614  1.0000
  O   O6        1.0  0.8394549057016122  0.5701028277781051  0.5478825843414357  1.0000
  O   O7        1.0  0.8394743069508304  0.37441892934969107  0.7436484119571072  1.0000
  O   O8        1.0  0.8395194974106073  0.38814509721147367  0.3660381337671845  1.0000
  O   O9        1.0  0.8395388428160029  0.1924596410271553  0.5618040319013844  1.0000
