data_image0
_chemical_formula_structural       NC8NC6H8C12SCH10C16H9Zn2C4O8
_chemical_formula_sum              "N2 C47 H27 S1 Zn2 O8"
_cell_length_a       17.457602349358154
_cell_length_b       10.299776766347527
_cell_length_c       10.299151387937775
_cell_angle_alpha    85.58705518708118
_cell_angle_beta     92.86396087313608
_cell_angle_gamma    91.66964631390691

_space_group_name_H-M_alt    "P 1"
_space_group_IT_number       1

loop_
  _space_group_symop_operation_xyz
  'x, y, z'

loop_
  _atom_site_type_symbol
  _atom_site_label
  _atom_site_symmetry_multiplicity
  _atom_site_fract_x
  _atom_site_fract_y
  _atom_site_fract_z
  _atom_site_occupancy
  N   N1        1.0  0.7223096053811732  0.45219948214398786  0.6265150364327953  1.0000
  C   C1        1.0  0.6612416224539306  0.40627075644904415  0.6158991884717641  1.0000
  C   C2        1.0  0.5852704664622863  0.3491411400794404  0.6027026155582569  1.0000
  C   C3        1.0  0.5267254825918058  0.3893346211869859  0.677600200397265  1.0000
  C   C4        1.0  0.4521919358542277  0.3343234837137099  0.66501807086295  1.0000
  C   C5        1.0  0.3900551143471126  0.3767619838886105  0.7443374533783476  1.0000
  C   C6        1.0  0.3155114519886347  0.39520566912482424  0.6885741782057859  1.0000
  C   C7        1.0  0.2569664875723253  0.4352152761947237  0.7635797157680482  1.0000
  C   C8        1.0  0.18098481339552192  0.45426383560196637  0.7056009885137642  1.0000
  N   N2        1.0  0.11990846505724552  0.469572497888401  0.6589862428269206  1.0000
  C   C9        1.0  0.2724729173711268  0.4570245549441164  0.894857045364521  1.0000
  C   C10       1.0  0.3462317567180391  0.4389700156729312  0.9510079187845334  1.0000
  C   C11       1.0  0.4047650286671971  0.39914065777550434  0.8764601017370945  1.0000
  C   C12       1.0  0.4374923144716134  0.23844083844770522  0.5761054389007525  1.0000
  C   C13       1.0  0.4960254806718751  0.19852620468090995  0.5016078570969573  1.0000
  C   C14       1.0  0.5697741762831132  0.25364995438865945  0.5147399351194111  1.0000
  H   H1        1.0  0.5390474864038446  0.4645561362794264  0.7442309627324463  1.0000
  H   H2        1.0  0.30318119166903873  0.38019135335153065  0.5865499612628744  1.0000
  H   H3        1.0  0.22759922412776934  0.4879321842351821  0.953692805451211  1.0000
  H   H4        1.0  0.3580480540741265  0.4555417917900373  0.052658881654671585  1.0000
  H   H5        1.0  0.46124810861541415  0.38416927548831364  0.9225663611817647  1.0000
  H   H6        1.0  0.3810175019255386  0.19310175093023532  0.5654534761705234  1.0000
  H   H7        1.0  0.48421721465130296  0.12442060266576882  0.43377878102970846  1.0000
  H   H8        1.0  0.6146480187903216  0.22187287060281993  0.45641529545167314  1.0000
  C   C15       1.0  0.9211850393722757  0.07952415727411609  0.6427552527316727  1.0000
  C   C16       1.0  0.9257792478410918  0.06822276029762973  0.779644281106038  1.0000
  C   C17       1.0  0.9280333048015763  0.9453544063158346  0.8490063675216029  1.0000
  C   C18       1.0  0.9256325478024896  0.8329285805253176  0.7796474906913078  1.0000
  C   C19       1.0  0.9210403884104946  0.842238119197723  0.6427578802797471  1.0000
  C   C20       1.0  0.918841908356275  0.9659761940074768  0.5750779958525094  1.0000
  C   C21       1.0  0.9328850042897846  0.9344623401873134  0.9938188237477689  1.0000
  C   C22       1.0  0.8889683681482808  0.8391153259133526  0.06427488165242679  1.0000
  C   C23       1.0  0.893557426705364  0.8291000782297839  0.20055890068979887  1.0000
  C   C24       1.0  0.9418716281431272  0.9141456983490911  0.2681778943181673  1.0000
  C   C25       1.0  0.9859711862785923  0.00892751830300242  0.19910983948996944  1.0000
  C   C26       1.0  0.9814946250389905  0.01929756574364272  0.06282459291456999  1.0000
  S   S1        1.0  0.9478446233492596  0.9008379166476393  0.4430559501373866  1.0000
  C   C27       1.0  0.8707493518620166  0.013539609569255037  0.4562884185785273  1.0000
  H   H9        1.0  0.9265572421545499  0.15511096568536864  0.832666123874384  1.0000
  H   H10       1.0  0.9284109475339971  0.7380592998197578  0.8326365668126731  1.0000
  H   H11       1.0  0.9152981964081472  0.9739262758768608  0.4694739738000939  1.0000
  H   H12       1.0  0.8503536154975966  0.7734434064174248  0.01400717694482612  1.0000
  H   H13       1.0  0.8592504214724697  0.7555631072697487  0.2534785766913075  1.0000
  H   H14       1.0  0.02376923326776836  0.0746203219308823  0.2508997790031182  1.0000
  H   H15       1.0  0.01676975416536531  0.09250850533900912  0.011397023919778822  1.0000
  H   H16       1.0  0.8861132530921472  0.11051927955433126  0.4086655280846329  1.0000
  H   H17       1.0  0.8618472685377742  0.023876031510938086  0.5608406260841112  1.0000
  H   H18       1.0  0.8167694160336607  0.975630059950871  0.4097579037282246  1.0000
  C   C28       1.0  0.9211571963444551  0.4607143387361839  0.2613892067147597  1.0000
  C   C29       1.0  0.8471240800516211  0.5114319291090001  0.25043560430799877  1.0000
  C   C30       1.0  0.8095419689980657  0.5373187338550764  0.1277222099865678  1.0000
  C   C31       1.0  0.8469905474785836  0.5118036844641956  0.01511237185570491  1.0000
  C   C32       1.0  0.921068195387266  0.46104789598231055  0.024123921164907143  1.0000
  C   C33       1.0  0.9576962325670768  0.43581766512111714  0.1476517569612381  1.0000
  C   C34       1.0  0.7312238979940073  0.5909721131034542  0.11718003279577238  1.0000
  C   C35       1.0  0.7117183186779769  0.6899310387192228  0.020284153631530584  1.0000
  C   C36       1.0  0.6379927134201415  0.7403898352840184  0.010489095555591185  1.0000
  C   C37       1.0  0.582805517526398  0.6926558887401257  0.09720920318678308  1.0000
  C   C38       1.0  0.6016156671485254  0.5942249091641878  0.19388620553280878  1.0000
  C   C39       1.0  0.6753192787301011  0.5436775597264778  0.20392903071927096  1.0000
  C   C40       1.0  0.5069155695028777  0.7446498214918131  0.08699805219722889  1.0000
  C   C41       1.0  0.4433588088998402  0.7881939508799011  0.0784462722132615  1.0000
  C   C42       1.0  0.36893450311700055  0.8391837404353325  0.06843222532291217  1.0000
  C   C43       1.0  0.3053880133661827  0.8827210707322719  0.05988193384097796  1.0000
  H   H19       1.0  0.8189307492718358  0.5325941577152071  0.3374373823168153  1.0000
  H   H20       1.0  0.8178758544327984  0.5299103157083602  0.9203620980952607  1.0000
  H   H21       1.0  0.014798950090862963  0.3966942899050338  0.15538500191375215  1.0000
  H   H22       1.0  0.06069326749417581  0.3644822613675726  0.8338828829557627  1.0000
  H   H23       1.0  0.7537700126284497  0.729470062914406  0.9531727436153004  1.0000
  H   H24       1.0  0.6241036558254095  0.8168313095365183  0.9355038234671055  1.0000
  H   H25       1.0  0.5592660763843329  0.5563140471474772  0.26130472616488243  1.0000
  H   H26       1.0  0.6883018387035182  0.4664348480952469  0.278447239062849  1.0000
  H   H27       1.0  0.24958894871758944  0.9209503789675269  0.05237407935102302  1.0000
  Zn  Zn1       1.0  0.837048047493631  0.4572094798505862  0.6358930236073002  1.0000
  Zn  Zn2       1.0  0.0051700094740521054  0.4645518572060904  0.6496188880998414  1.0000
  C   C44       1.0  0.9210842959267352  0.45581122622958087  0.8799505546554217  1.0000
  C   C45       1.0  0.9211355966018556  0.4659518296511473  0.40556163440925375  1.0000
  C   C46       1.0  0.9210643649011857  0.6980665140545208  0.6375818909622364  1.0000
  C   C47       1.0  0.9211554705470144  0.2236949790768621  0.6479303626517807  1.0000
  O   O1        1.0  0.9849297570022164  0.47049030775024797  0.4591561121975548  1.0000
  O   O2        1.0  0.9848908148215687  0.45684446278407265  0.8367733165742313  1.0000
  O   O3        1.0  0.9848738600353207  0.6524686344676842  0.6410588356286864  1.0000
  O   O4        1.0  0.9849466544294259  0.27486614280864363  0.6548704910851562  1.0000
  O   O5        1.0  0.8572713451664831  0.646895191743851  0.6306414159311907  1.0000
  O   O6        1.0  0.8572882996613481  0.45127258030540224  0.8263558276365992  1.0000
  O   O7        1.0  0.857327242083777  0.46491837933574054  0.4487370618696643  1.0000
  O   O8        1.0  0.8573441394982515  0.26929420514794655  0.6444515381244145  1.0000
