data_image0
_chemical_formula_structural       NC8NC6H8C8NH7C12H10Zn2C4O8
_chemical_formula_sum              "N3 C38 H25 Zn2 O8"
_cell_length_a       17.457602349358154
_cell_length_b       9.274263428431858
_cell_length_c       10.299141136925906
_cell_angle_alpha    85.50362818377448
_cell_angle_beta     92.89850146643516
_cell_angle_gamma    92.30649601595262

_space_group_name_H-M_alt    "P 1"
_space_group_IT_number       1

loop_
  _space_group_symop_operation_xyz
  'x, y, z'

loop_
  _atom_site_type_symbol
  _atom_site_label
  _atom_site_symmetry_multiplicity
  _atom_site_fract_x
  _atom_site_fract_y
  _atom_site_fract_z
  _atom_site_occupancy
  N   N1        1.0  0.73136459274429  0.6145200527606542  0.6261172212073207  1.0000
  C   C1        1.0  0.669991811964631  0.5635007347632501  0.61550930217051  1.0000
  C   C2        1.0  0.5936415281941906  0.5000390488203132  0.6023225925590892  1.0000
  C   C3        1.0  0.5353856326104737  0.5446351086463443  0.6772188857237182  1.0000
  C   C4        1.0  0.4604870595157877  0.4835266074453717  0.6646462645077524  1.0000
  C   C5        1.0  0.3986555546182311  0.5306134035500301  0.7439643037195989  1.0000
  C   C6        1.0  0.324213840519361  0.5511492128463384  0.6881926777596821  1.0000
  C   C7        1.0  0.2659567953992042  0.595540898605472  0.763196968340943  1.0000
  C   C8        1.0  0.1900802812229035  0.6167505032634719  0.7052095831478806  1.0000
  N   N2        1.0  0.12908843974256493  0.6337959375540225  0.6585878777195022  1.0000
  C   C9        1.0  0.2816509653099995  0.6196667440906889  0.8944813986606427  1.0000
  C   C10       1.0  0.3553105403008094  0.5995629749986809  0.9506405813079899  1.0000
  C   C11       1.0  0.4135572308898154  0.5553711847452594  0.8760940159363046  1.0000
  C   C12       1.0  0.4451283891045212  0.3770698875090084  0.575744439740965  1.0000
  C   C13       1.0  0.503374431855795  0.33278331388464855  0.5012481303551222  1.0000
  C   C14       1.0  0.577489079646219  0.3940164909473923  0.5143707257146621  1.0000
  H   H1        1.0  0.5482236074041772  0.6281546506168179  0.7438409008533551  1.0000
  H   H2        1.0  0.3117503646505506  0.5345493787633715  0.5861625698127422  1.0000
  H   H3        1.0  0.23699999565110194  0.6539588390786972  0.9533162723638806  1.0000
  H   H4        1.0  0.3672701392122867  0.6178934782578107  0.05229710319571613  1.0000
  H   H5        1.0  0.4699578424869811  0.5387008813138521  0.9222071264179433  1.0000
  H   H6        1.0  0.3883526330006973  0.3267056988209427  0.5651002893030368  1.0000
  H   H7        1.0  0.49105710429457183  0.2505045309103695  0.43342748350142557  1.0000
  H   H8        1.0  0.6221346711836981  0.3587580058669364  0.4560471838215136  1.0000
  C   C15       1.0  0.9278017119749666  0.20045692097291434  0.6424305867558466  1.0000
  C   C16       1.0  0.9178566982194527  0.2833740339989457  0.5229227355586124  1.0000
  C   C17       1.0  0.9154390941947763  0.21838455852326313  0.4051038927206004  1.0000
  C   C18       1.0  0.9235305489362243  0.06899549300176289  0.40392960914910825  1.0000
  C   C19       1.0  0.9314157897273689  0.9844742134068454  0.5224731612772235  1.0000
  C   C20       1.0  0.9326585983195674  0.047848330684142175  0.6422863636019169  1.0000
  C   C21       1.0  0.9197790538824281  0.9988678951962371  0.2769030418701903  1.0000
  C   C22       1.0  0.8401466640428695  0.9560817080067411  0.24153667003110302  1.0000
  N   N3        1.0  0.7772945186377375  0.9223101340575457  0.21363133554461222  1.0000
  H   H9        1.0  0.9940941033165177  0.2818372106926388  0.9472751572750276  1.0000
  H   H10       1.0  0.9136138332787881  0.39978800721992896  0.5204491908886415  1.0000
  H   H11       1.0  0.9079718566075886  0.2849803974361358  0.31448836766148025  1.0000
  H   H12       1.0  0.9347291075710017  0.8681457988836887  0.5210329031669576  1.0000
  H   H13       1.0  0.9743047477881804  0.7523043393960506  0.8490451904736687  1.0000
  H   H14       1.0  0.9552368917207108  0.901469424477242  0.2848239743132548  1.0000
  H   H15       1.0  0.9424255317732909  0.07480526746086502  0.19792781053038078  1.0000
  C   C23       1.0  0.9301436280772898  0.6242715135878487  0.2609583239722355  1.0000
  C   C24       1.0  0.010394082518296436  0.6436956384649737  0.26568490105516807  1.0000
  C   C25       1.0  0.05117334900801598  0.653422280654854  0.15095510055671713  1.0000
  C   C26       1.0  0.010617421394513164  0.6434625427574268  0.030437585815692454  1.0000
  C   C27       1.0  0.9303166999560019  0.6240336895676941  0.02375863926350497  1.0000
  C   C28       1.0  0.8905742359037837  0.6145554284371324  0.13950519233944814  1.0000
  C   C29       1.0  0.13607026576527245  0.6739728679706201  0.15700010685450483  1.0000
  C   C30       1.0  0.18129067331542117  0.5972875536801145  0.07851892117696702  1.0000
  C   C31       1.0  0.26119487731464064  0.6168099898279229  0.08444619046463364  1.0000
  C   C32       1.0  0.2967995913204964  0.7128755352727278  0.1684508788262149  1.0000
  C   C33       1.0  0.25257214908653314  0.7896185421357031  0.24676844446185228  1.0000
  C   C34       1.0  0.1726499081930513  0.7704568776420888  0.24130928817803696  1.0000
  H   H16       1.0  0.8992704502270316  0.616872979687477  0.5866104593149277  1.0000
  H   H17       1.0  0.041471655099326155  0.6493195084595353  0.3589718719398145  1.0000
  H   H18       1.0  0.041657224934657185  0.6528655158210792  0.9415408374088883  1.0000
  H   H19       1.0  0.8286750461054988  0.599577155945427  0.13514354385460448  1.0000
  H   H20       1.0  0.7787086623169068  0.5882756269268268  0.8037929525517248  1.0000
  H   H21       1.0  0.15495393406747304  0.5209310585692966  0.013905316386431107  1.0000
  H   H22       1.0  0.2955466378526508  0.5570979089531802  0.02406127330741659  1.0000
  H   H23       1.0  0.3586576742090042  0.7278473867325175  0.17285796696631994  1.0000
  H   H24       1.0  0.28021716309015066  0.8643358927673599  0.3115701561240096  1.0000
  H   H25       1.0  0.13941727507236656  0.8323947692079041  0.3016800609881425  1.0000
  Zn  Zn1       1.0  0.8461390832364823  0.6200787851062011  0.6354950510130832  1.0000
  Zn  Zn2       1.0  0.01431386960979598  0.6282253721552117  0.6492206833254492  1.0000
  C   C35       1.0  0.9302493089674405  0.618330601678984  0.8795738584805589  1.0000
  C   C36       1.0  0.9302054908055593  0.6299754650110825  0.4051421529084545  1.0000
  C   C37       1.0  0.931735414820612  0.8876747023430486  0.6371376914059659  1.0000
  C   C38       1.0  0.9287193176461372  0.3606296280479142  0.6475783848388221  1.0000
  O   O1        1.0  0.994047671402517  0.6349750558996459  0.45874037003727075  1.0000
  O   O2        1.0  0.9940478936046835  0.6195129935053567  0.8363927049959484  1.0000
  O   O3        1.0  0.9952470828381254  0.8370117190155307  0.6406237143335272  1.0000
  O   O4        1.0  0.9928484248194784  0.4174763379614006  0.6545092586316652  1.0000
  O   O5        1.0  0.8676044706370065  0.8308278165215557  0.6302064710161506  1.0000
  O   O6        1.0  0.8664052913200213  0.6133308245320268  0.8259753921320806  1.0000
  O   O7        1.0  0.8664050685264683  0.628792837136209  0.44832149565759183  1.0000
  O   O8        1.0  0.8652058219032329  0.41129410884757767  0.6440904816292967  1.0000
