data_image0
_chemical_formula_structural       NC5NC3H4C10H6C6NCH8Zn2C4O8
_chemical_formula_sum              "N3 C29 H18 Zn2 O8"
_cell_length_a       13.859018345313864
_cell_length_b       9.275150299802176
_cell_length_c       9.274690524155615
_cell_angle_alpha    85.73181374548483
_cell_angle_beta     89.6873584993644
_cell_angle_gamma    89.48388887768701

_space_group_name_H-M_alt    "P 1"
_space_group_IT_number       1

loop_
  _space_group_symop_operation_xyz
  'x, y, z'

loop_
  _atom_site_type_symbol
  _atom_site_label
  _atom_site_symmetry_multiplicity
  _atom_site_fract_x
  _atom_site_fract_y
  _atom_site_fract_z
  _atom_site_occupancy
  N   N1        1.0  0.9049927913952344  0.5651129123861496  0.40131294454553745  1.0000
  C   C1        1.0  0.8326861076019163  0.5259999210064535  0.45278249572582796  1.0000
  C   C2        1.0  0.7427408349118527  0.4773485990120647  0.5168037708899826  1.0000
  C   C3        1.0  0.6550676573944058  0.5247779428891277  0.4543908664671255  1.0000
  C   C4        1.0  0.5675105326522525  0.4773483073371141  0.5168036470079471  1.0000
  C   C5        1.0  0.4774462290146536  0.5259998074180989  0.45278239906920414  1.0000
  N   N2        1.0  0.4050438892971296  0.5651128778696866  0.40131287572323404  1.0000
  C   C6        1.0  0.5678090813721052  0.38247530221082604  0.6416480047118778  1.0000
  C   C7        1.0  0.655299494017761  0.33522853601603075  0.7038207289706089  1.0000
  C   C8        1.0  0.7426744223969178  0.38247559928639246  0.6416482066600084  1.0000
  H   H1        1.0  0.654977778993141  0.5982122368704139  0.35775797537762855  1.0000
  H   H2        1.0  0.5005592765817346  0.3451435528692379  0.6907728079845217  1.0000
  H   H3        1.0  0.6553891264533982  0.2619433286067152  0.8002576293450175  1.0000
  H   H4        1.0  0.8100155334881318  0.34514408678333897  0.6907732302116287  1.0000
  C   C9        1.0  0.1575599078590877  0.14142838342380726  0.4037257424247589  1.0000
  C   C10       1.0  0.2087059805208257  0.2225294986886477  0.2946879698400888  1.0000
  C   C11       1.0  0.2515976091663399  0.1553806674652778  0.1801090406284614  1.0000
  C   C12       1.0  0.24377955828164086  0.006151958952492538  0.1730920552328037  1.0000
  C   C13       1.0  0.1947424295498476  0.9236013536246176  0.28148208789783147  1.0000
  C   C14       1.0  0.15248597838400646  0.9887863418497262  0.3989126463140473  1.0000
  C   C15       1.0  0.3027646326527227  0.24020217763401375  0.06857823042786482  1.0000
  C   C16       1.0  0.3456043440538483  0.3112428043244422  0.9752036961540216  1.0000
  C   C17       1.0  0.39576765910444145  0.3944363554169266  0.8658661887837047  1.0000
  C   C18       1.0  0.4385991108428515  0.4654716560619157  0.7725095537517577  1.0000
  H   H5        1.0  0.11095868730751632  0.4057481640708107  0.6325918440375373  1.0000
  H   H6        1.0  0.2133337560363613  0.33899728020554415  0.2969144814583007  1.0000
  H   H7        1.0  0.27645254397140206  0.9532335833734407  0.0844320378051755  1.0000
  H   H8        1.0  0.19181461106576658  0.8075470273799739  0.27525971256722803  1.0000
  H   H9        1.0  0.08852021766426144  0.8613019419786359  0.7413457173196365  1.0000
  H   H10       1.0  0.476208698112931  0.5278466822038251  0.690534717427028  1.0000
  C   C19       1.0  0.15659005365222178  0.561413435891781  0.9780928799282803  1.0000
  C   C20       1.0  0.23460932781585186  0.6238250602445032  0.046475741429331315  1.0000
  C   C21       1.0  0.3076012315114114  0.6971635756993151  0.9655613676383199  1.0000
  C   C22       1.0  0.3018207974046037  0.70782091989754  0.8146043720004617  1.0000
  C   C23       1.0  0.22586568458372278  0.6445497164665555  0.745015707720541  1.0000
  C   C24       1.0  0.15345582661101417  0.5688013074496607  0.8245454625928921  1.0000
  N   N3        1.0  0.3875066716715003  0.7626384678540332  0.033911247851828856  1.0000
  C   C25       1.0  0.4006319665781863  0.7575595733121256  0.19022164367586702  1.0000
  H   H11       1.0  0.04749640830450574  0.38749957765139786  0.27207951570438077  1.0000
  H   H12       1.0  0.35706051251948767  0.7642992038289845  0.7502250058963204  1.0000
  H   H13       1.0  0.22508967661710863  0.6519937765898084  0.6279007096005782  1.0000
  H   H14       1.0  0.0013804103627956794  0.5011148171295889  0.5494917568970505  1.0000
  H   H15       1.0  0.4396810022459121  0.8166076512661725  0.9689705460969084  1.0000
  H   H16       1.0  0.46781597254101137  0.8147272702139062  0.21557523550238855  1.0000
  H   H17       1.0  0.40671509498687075  0.6434989540776452  0.23509417377781983  1.0000
  H   H18       1.0  0.338768116898827  0.8116484392519226  0.24111643099494606  1.0000
  Zn  Zn1       1.0  0.04929672731178503  0.5651091024375032  0.4013212786973661  1.0000
  Zn  Zn2       1.0  0.2607399569226856  0.5651049501653003  0.40131644618718726  1.0000
  C   C26       1.0  0.1540805547084112  0.561657113288462  0.6645804805737567  1.0000
  C   C27       1.0  0.15595842705517593  0.568558760939847  0.13805737537433171  1.0000
  C   C28       1.0  0.15346138234106177  0.8285675456444583  0.3940792436384748  1.0000
  C   C29       1.0  0.15657753736683033  0.30164659582654374  0.40855869899532393  1.0000
  O   O1        1.0  0.2359880887811603  0.570948927137503  0.1917411231802824  1.0000
  O   O2        1.0  0.23453141984739934  0.5592627035614492  0.6108926563090631  1.0000
  O   O3        1.0  0.23403034308616852  0.7747962663330767  0.3924609851461609  1.0000
  O   O4        1.0  0.23648909372946392  0.3554153737451605  0.41017268622412023  1.0000
  O   O5        1.0  0.07354751834982863  0.7747986788605645  0.39246503865449256  1.0000
  O   O6        1.0  0.07404858501157596  0.5592668488491652  0.6108966231257443  1.0000
  O   O7        1.0  0.07550526072656982  0.5709530070240472  0.19174335750929553  1.0000
  O   O8        1.0  0.07600626533262211  0.3554194442553411  0.4101750286662571  1.0000
