data_image0
_chemical_formula_structural       NC5NC3H4C6ClH5C6IH2Zn2C4O8
_chemical_formula_sum              "N2 C24 H11 Cl1 I1 Zn2 O8"
_cell_length_a       13.859018345313864
_cell_length_b       9.276545438789551
_cell_length_c       9.275433903346869
_cell_angle_alpha    86.20108945286073
_cell_angle_beta     89.96562363921994
_cell_angle_gamma    89.40960550048821

_space_group_name_H-M_alt    "P 1"
_space_group_IT_number       1

loop_
  _space_group_symop_operation_xyz
  'x, y, z'

loop_
  _atom_site_type_symbol
  _atom_site_label
  _atom_site_symmetry_multiplicity
  _atom_site_fract_x
  _atom_site_fract_y
  _atom_site_fract_z
  _atom_site_occupancy
  N   N1        1.0  0.8984604983248808  0.5611633363850679  0.4114584504312895  1.0000
  C   C1        1.0  0.8263543422758631  0.5221710551350889  0.46267188852830365  1.0000
  C   C2        1.0  0.7366584993937998  0.47366988046431113  0.5263745933131325  1.0000
  C   C3        1.0  0.6487421581270092  0.5209528489354125  0.4642722576416963  1.0000
  C   C4        1.0  0.561428196986145  0.47366958871938514  0.5263744676345576  1.0000
  C   C5        1.0  0.4711144634742305  0.5221709414269753  0.46267179118285484  1.0000
  N   N2        1.0  0.3985115960339316  0.5611633017568287  0.4114583814084794  1.0000
  C   C6        1.0  0.5622131456641019  0.3790893780338522  0.6505975941501692  1.0000
  C   C7        1.0  0.6499457862551109  0.3319884239234354  0.7124609451645408  1.0000
  C   C8        1.0  0.737078487084986  0.379089675325478  0.6505977979111854  1.0000
  H   H1        1.0  0.6482757930431331  0.5941605121230094  0.3681202164277704  1.0000
  H   H2        1.0  0.4951547338839146  0.34187284008628094  0.6994779481411701  1.0000
  H   H3        1.0  0.6504111416558371  0.25892938757133727  0.808417971843296  1.0000
  H   H4        1.0  0.8046109916940323  0.3418733745019642  0.6994783736132197  1.0000
  C   C9        1.0  0.15140286165449068  0.13772562867631932  0.4112208938197864  1.0000
  C   C10       1.0  0.15182199304250932  0.219962541220839  0.27821867335538664  1.0000
  C   C11       1.0  0.1434615013858762  0.15349938315007083  0.14811127039040106  1.0000
  C   C12       1.0  0.1344834661427341  0.003917741080607715  0.14900441742474713  1.0000
  C   C13       1.0  0.1355539773741372  0.9201164488017153  0.2795653803724756  1.0000
  C   C14       1.0  0.14557854170325535  0.9845900425786076  0.4117084426161761  1.0000
  Cl  Cl1       1.0  0.14278056709365394  0.25837114532512256  0.9836025048739327  1.0000
  H   H5        1.0  0.20065947374364734  0.40309413702309116  0.637771319410501  1.0000
  H   H6        1.0  0.1563443547598595  0.3366527633839851  0.2753657242662142  1.0000
  H   H7        1.0  0.1275933113549934  0.9521255776612266  0.04834556160312941  1.0000
  H   H8        1.0  0.13083780944945178  0.8038278025711236  0.2769156509825492  1.0000
  H   H9        1.0  0.11313869865443359  0.6883326784294995  0.6447186127799116  1.0000
  C   C15       1.0  0.14869100215763598  0.5566572685776499  0.9883097430269463  1.0000
  C   C16       1.0  0.23759199427085703  0.5539577817557821  0.061763045657837745  1.0000
  C   C17       1.0  0.32444369474206236  0.5645457110974192  0.9856503913735334  1.0000
  C   C18       1.0  0.323784456928522  0.578169771170756  0.8351125910998554  1.0000
  C   C19       1.0  0.2365332991535829  0.5786896966969732  0.7601375121033556  1.0000
  C   C20       1.0  0.1482903681729395  0.5656583168584588  0.8346195483565784  1.0000
  I   I1        1.0  0.4566234990207378  0.5626315030107991  0.09843366979930335  1.0000
  H   H10       1.0  0.9180940078939256  0.6420830515817499  0.08584855530397408  1.0000
  H   H11       1.0  0.3910193072157717  0.5869842615793723  0.7759067272241413  1.0000
  Zn  Zn1       1.0  0.04276446452329208  0.5611595445397211  0.4114667588940564  1.0000
  Zn  Zn2       1.0  0.25420768209233935  0.5611553854071192  0.4114619014936378  1.0000
  C   C21       1.0  0.1484034577861213  0.5582125752707265  0.6746455920213492  1.0000
  C   C22       1.0  0.14857098520309117  0.5641041755106786  0.1482832107934613  1.0000
  C   C23       1.0  0.14667719504740082  0.8244535361874037  0.40587406756704136  1.0000
  C   C24       1.0  0.15029718766943767  0.29786148299291537  0.41705481107708076  1.0000
  O   O1        1.0  0.22877234880338193  0.5665955564071075  0.20196992097189215  1.0000
  O   O2        1.0  0.22868261153543679  0.5557169454814055  0.6209547797543862  1.0000
  O   O3        1.0  0.22728755013793012  0.7707099044552903  0.40391987304240295  1.0000
  O   O4        1.0  0.23016733802984501  0.35160260660054754  0.4190047196476112  1.0000
  O   O5        1.0  0.06680473643058615  0.770712323349201  0.4039239407341615  1.0000
  O   O6        1.0  0.06819978594526699  0.5557210959793111  0.6209587716109122  1.0000
  O   O7        1.0  0.06828952444308722  0.5665996382307212  0.20197218031853792  1.0000
  O   O8        1.0  0.06968451368539363  0.351606679259745  0.4190070870246003  1.0000
