data_image0
_chemical_formula_structural       NC12NC2H8C12SCH12C13F3H9Zn2C4O8
_chemical_formula_sum              "N2 C44 H29 S1 F3 Zn2 O8"
_cell_length_a       19.240039667572717
_cell_length_b       10.299776766347529
_cell_length_c       10.2985328690268
_cell_angle_alpha    85.58005012136333
_cell_angle_beta     90.00547390957907
_cell_angle_gamma    89.97991714870845

_space_group_name_H-M_alt    "P 1"
_space_group_IT_number       1

loop_
  _space_group_symop_operation_xyz
  'x, y, z'

loop_
  _atom_site_type_symbol
  _atom_site_label
  _atom_site_symmetry_multiplicity
  _atom_site_fract_x
  _atom_site_fract_y
  _atom_site_fract_z
  _atom_site_occupancy
  N   N1        1.0  0.6541372597079155  0.42081405319520465  0.5674256117992977  1.0000
  C   C1        1.0  0.593988890870691  0.42081413715012395  0.5674255298610857  1.0000
  C   C2        1.0  0.5191708537005062  0.4208142543919466  0.5674253925529285  1.0000
  C   C3        1.0  0.48271451894867956  0.35638172487796826  0.6708413507096378  1.0000
  C   C4        1.0  0.41004379607472835  0.3562708716378645  0.6709278929357378  1.0000
  C   C5        1.0  0.3728386187341746  0.4208143468855013  0.5674251648596771  1.0000
  C   C6        1.0  0.4100091197556888  0.4853580091778267  0.4639226313496496  1.0000
  C   C7        1.0  0.48267983349590626  0.4852469204787586  0.46400929607166624  1.0000
  C   C8        1.0  0.2956335283044321  0.4208142681955849  0.567425069432405  1.0000
  C   C9        1.0  0.2584691099507526  0.3075676705984518  0.609292112781558  1.0000
  C   C10       1.0  0.1857983968428308  0.30767454137747063  0.6092007869752161  1.0000
  C   C11       1.0  0.1493012414085841  0.42081413904296205  0.5674251303394608  1.0000
  C   C12       1.0  0.0744832042876774  0.42081402537835483  0.5674253790118997  1.0000
  N   N2        1.0  0.014334887453886  0.42081398461980557  0.5674255874442755  1.0000
  C   C13       1.0  0.18575159681402026  0.5339538125188741  0.5256494208135745  1.0000
  C   C14       1.0  0.2584222682660099  0.5340608633665476  0.5255579324113999  1.0000
  H   H1        1.0  0.5104428748056029  0.3064968688238452  0.7515856183223582  1.0000
  H   H2        1.0  0.3829638864479378  0.3071844374580075  0.7527877981876003  1.0000
  H   H3        1.0  0.3829024985866773  0.5344444703940772  0.3820626752472074  1.0000
  H   H4        1.0  0.5103812491349679  0.535131676356844  0.3832653042688263  1.0000
  H   H5        1.0  0.285580705551076  0.21842288637600651  0.6404566785496841  1.0000
  H   H6        1.0  0.15810175934145876  0.219429247363768  0.6413984502796015  1.0000
  H   H7        1.0  0.1580184108729497  0.6221990820004875  0.4934517720592282  1.0000
  H   H8        1.0  0.28549715146575294  0.6232057267509026  0.4943933218731771  1.0000
  C   C15       1.0  0.8343049437827494  0.03944889222239212  0.567423988078221  1.0000
  C   C16       1.0  0.8384885577439489  0.027929998707304286  0.7039473017823188  1.0000
  C   C17       1.0  0.8405415123584706  0.9049546643638885  0.7731301104759656  1.0000
  C   C18       1.0  0.8383556598372657  0.7926422271099747  0.7039624931817154  1.0000
  C   C19       1.0  0.8341739020825775  0.8021691728788007  0.5674384300435047  1.0000
  C   C20       1.0  0.8321715614893538  0.9260115937389606  0.49993340104983974  1.0000
  C   C21       1.0  0.8449596444996326  0.8938328808650141  0.9175563723270408  1.0000
  C   C22       1.0  0.8051858444747279  0.8003957116793964  0.9916041775395726  1.0000
  C   C23       1.0  0.8093646974269216  0.7901632666780506  0.12752286047591876  1.0000
  C   C24       1.0  0.8531441559603501  0.8730899899468305  0.19120053519945668  1.0000
  C   C25       1.0  0.8930838879050237  0.9659538035549634  0.11852588953649246  1.0000
  C   C26       1.0  0.8890069482634421  0.9765361340358266  0.9825967908616056  1.0000
  S   S1        1.0  0.8585828426527548  0.8594998175436901  0.36560290525084926  1.0000
  C   C27       1.0  0.7887428300360704  0.9755677817614918  0.38513297885653797  1.0000
  H   H9        1.0  0.83273814037632  0.3712915954943503  0.5154024082472635  1.0000
  H   H10       1.0  0.8392017364460147  0.11477771060643982  0.7569092873274677  1.0000
  H   H11       1.0  0.8408810394773295  0.6976450695306351  0.7567283285253248  1.0000
  H   H12       1.0  0.8289445564031288  0.9341294420202262  0.39461146947701503  1.0000
  H   H13       1.0  0.8325457636145401  0.4783456034699442  0.5154215163084401  1.0000
  H   H14       1.0  0.7701960468210474  0.7364168407114372  0.944486803981341  1.0000
  H   H15       1.0  0.7782936775497086  0.7181184976349412  0.18324820730681657  1.0000
  H   H16       1.0  0.9273340565841364  0.029989049506355503  0.16723230737355343  1.0000
  H   H17       1.0  0.9209552461602776  0.04821239625550922  0.9282845841003905  1.0000
  H   H18       1.0  0.80265376112613  0.07188212641606542  0.33625194627486676  1.0000
  H   H19       1.0  0.7806947812810554  0.9862802590446663  0.49041952169846187  1.0000
  H   H20       1.0  0.7398340051051234  0.9400220477266628  0.3430079921120668  1.0000
  C   C28       1.0  0.8342194565405382  0.42068709185426156  0.18603371311264705  1.0000
  C   C29       1.0  0.9039187825858856  0.3797961435837647  0.18824603964649778  1.0000
  C   C30       1.0  0.9392359328167902  0.3591950590352646  0.07219618892597701  1.0000
  C   C31       1.0  0.903959769990647  0.38005175769804117  0.9529453679512434  1.0000
  C   C32       1.0  0.8342593629434263  0.4209310012570587  0.9488286919722785  1.0000
  C   C33       1.0  0.7998343256844965  0.440982440597693  0.0658702294502096  1.0000
  C   C34       1.0  0.012924716057185254  0.3159757622483754  0.07546958320582853  1.0000
  C   C35       1.0  0.06090609807684765  0.3705756445688799  0.9839289447683631  1.0000
  C   C36       1.0  0.13025710467544638  0.3300026116869632  0.9870311357526084  1.0000
  C   C37       1.0  0.15288899138865264  0.23260754323498636  0.08050079754937856  1.0000
  C   C38       1.0  0.10530961285984852  0.17982668704819726  0.1736187972358203  1.0000
  C   C39       1.0  0.03596312482776586  0.2204327745567618  0.17062752785648527  1.0000
  C   C40       1.0  0.22825081889864363  0.1923214058683336  0.0867835506634449  1.0000
  F   F1        1.0  0.2638807689443483  0.27163514027510205  0.16626972656022043  1.0000
  F   F2        1.0  0.25784812179741956  0.20349445342450756  0.9639265478915692  1.0000
  F   F3        1.0  0.23470942176868603  0.06420162851500533  0.13666721754970723  1.0000
  H   H21       1.0  0.7026459838417444  0.4987742942081776  0.3891151827524504  1.0000
  H   H22       1.0  0.9311390612990879  0.365636744714837  0.28032477188659266  1.0000
  H   H23       1.0  0.930655044686774  0.3626704135669405  0.8633143568765274  1.0000
  H   H24       1.0  0.7461154510324864  0.4724926538556009  0.06343202140641169  1.0000
  H   H25       1.0  0.7024236427664521  0.497434684652766  0.7337808860201767  1.0000
  H   H26       1.0  0.045055020464326745  0.4463391117063391  0.9112010929812873  1.0000
  H   H27       1.0  0.16628247496445644  0.37522842413445523  0.9165467014862415  1.0000
  H   H28       1.0  0.1217158519694057  0.10695472519230576  0.24878958168666696  1.0000
  H   H29       1.0  0.00018792206931017447  0.17616097885083956  0.242131657143152  1.0000
  Zn  Zn1       1.0  0.7580825245375138  0.42081056863247895  0.5674330936922523  1.0000
  Zn  Zn2       1.0  0.9103896437702941  0.4208068791963683  0.5674287050448814  1.0000
  C   C41       1.0  0.8342511600898975  0.4157112531529745  0.8046440019987239  1.0000
  C   C42       1.0  0.8342226711320112  0.4259078332796864  0.33021792419746476  1.0000
  C   C43       1.0  0.8341948049380251  0.6579971555319413  0.5622601227631541  1.0000
  C   C44       1.0  0.8342789745838493  0.18362037063700165  0.5726018726488511  1.0000
  O   O1        1.0  0.892023508945474  0.4276528959870751  0.37860579700064445  1.0000
  O   O2        1.0  0.8920479017760592  0.4139624104166138  0.7562524244211726  1.0000
  O   O3        1.0  0.8920016151804873  0.6096113411617354  0.5605257270802717  1.0000
  O   O4        1.0  0.8920697435622514  0.23200397450220644  0.5743323969612564  1.0000
  O   O5        1.0  0.776402372770611  0.6096134733293113  0.5605294017705436  1.0000
  O   O6        1.0  0.7764486590912714  0.4139661028505788  0.7562560298902947  1.0000
  O   O7        1.0  0.776424266232989  0.4276565426662571  0.3786078409512519  1.0000
  O   O8        1.0  0.776470500853615  0.23200761192380592  0.574334538286819  1.0000
