data_image0
_chemical_formula_structural       NC9NC5H8C12SCH12C16H10Zn2C4O8
_chemical_formula_sum              "N2 C47 H30 S1 Zn2 O8"
_cell_length_a       17.807436237873137
_cell_length_b       10.299776766347529
_cell_length_c       10.299151387937775
_cell_angle_alpha    85.58705518708118
_cell_angle_beta     89.38153663469636
_cell_angle_gamma    88.37162683502939

_space_group_name_H-M_alt    "P 1"
_space_group_IT_number       1

loop_
  _space_group_symop_operation_xyz
  'x, y, z'

loop_
  _atom_site_type_symbol
  _atom_site_label
  _atom_site_symmetry_multiplicity
  _atom_site_fract_x
  _atom_site_fract_y
  _atom_site_fract_z
  _atom_site_occupancy
  N   N1        1.0  0.7073189518895436  0.3871145648966572  0.5571480592059217  1.0000
  C   C1        1.0  0.6467392314873093  0.35192006767050743  0.5461232705688774  1.0000
  C   C2        1.0  0.5713847175814905  0.3081419889344297  0.5324096305644125  1.0000
  C   C3        1.0  0.5533186438597999  0.23668076497202192  0.4274043197072918  1.0000
  C   C4        1.0  0.4801533291123056  0.194064091541134  0.414006627561855  1.0000
  C   C5        1.0  0.4240054435092182  0.22253109912345323  0.5055817860056584  1.0000
  C   C6        1.0  0.3462495438364545  0.17735550357501895  0.4914255864715598  1.0000
  C   C7        1.0  0.284055010085818  0.25912289918075637  0.5173665252735433  1.0000
  C   C8        1.0  0.21074742665865873  0.21630319425516606  0.5039825098762143  1.0000
  C   C9        1.0  0.14750226095745164  0.3007620951886713  0.5302874141450089  1.0000
  N   N2        1.0  0.09666613719634529  0.3686612088179361  0.5514358305543611  1.0000
  C   C10       1.0  0.1990508830096239  0.09145810328424343  0.46463220000817856  1.0000
  C   C11       1.0  0.26038805047748886  0.009676851715438863  0.4386828711309955  1.0000
  C   C12       1.0  0.3335762985378223  0.052101927261469116  0.4518643377031708  1.0000
  C   C13       1.0  0.44276280460691153  0.2944867849034689  0.610806339288029  1.0000
  C   C14       1.0  0.5159810439757295  0.3369129957426382  0.6240483751389392  1.0000
  H   H1        1.0  0.5957259839635967  0.2141639394112422  0.35569045692845935  1.0000
  H   H2        1.0  0.46726028479279064  0.14034535610862428  0.3310842803553209  1.0000
  H   H3        1.0  0.2925310344997428  0.3566002502202943  0.5462459491460259  1.0000
  H   H4        1.0  0.1425934042350639  0.05741747606156932  0.4540364799082925  1.0000
  H   H5        1.0  0.2512136668006047  0.9130190676842425  0.4086030437736298  1.0000
  H   H6        1.0  0.3802315455237038  0.9863486765734063  0.432814332313987  1.0000
  H   H7        1.0  0.4010722963512918  0.31646513435014373  0.6838146996263861  1.0000
  H   H8        1.0  0.5294023305242552  0.39185185329451677  0.7059291135197199  1.0000
  C   C15       1.0  0.9020669691929157  0.9965192358244221  0.5542892802846464  1.0000
  C   C16       1.0  0.9065658304772124  0.9848038699960998  0.690737104012337  1.0000
  C   C17       1.0  0.9087731072390215  0.86173241043513  0.7598827221479829  1.0000
  C   C18       1.0  0.9064221750187039  0.7495229088765668  0.6907544019305893  1.0000
  C   C19       1.0  0.901925320285142  0.7592462317653081  0.5543057993826839  1.0000
  C   C20       1.0  0.8997724669988008  0.8831824043039761  0.48683704590915156  1.0000
  C   C21       1.0  0.9135241156311523  0.8504031737950359  0.9042292455865979  1.0000
  C   C22       1.0  0.8705189156245282  0.7590133416044321  0.9789028360789622  1.0000
  C   C23       1.0  0.8750127338772185  0.7485845891104528  0.1147461450412497  1.0000
  C   C24       1.0  0.9223242330844116  0.8292767771571128  0.17772528605530957  1.0000
  C   C25       1.0  0.9655085587624683  0.9200849325349094  0.1044221317322299  1.0000
  C   C26       1.0  0.9611249030828607  0.930858348026675  0.9685667915560379  1.0000
  S   S1        1.0  0.9281732660716072  0.8154307887146545  0.3520297254926431  1.0000
  C   C27       1.0  0.8526780127650705  0.9350792802493934  0.3726660355852225  1.0000
  H   H9        1.0  0.9003822550525442  0.32843540313586383  0.5022960319409502  1.0000
  H   H10       1.0  0.9073276784690871  0.07162197290266813  0.7436842321244994  1.0000
  H   H11       1.0  0.9091429124578566  0.6544032758078959  0.7434766545326952  1.0000
  H   H12       1.0  0.8963023004631838  0.8914517982760569  0.3815733441074607  1.0000
  H   H13       1.0  0.9001743066567739  0.4354992692619075  0.5023181894928566  1.0000
  H   H14       1.0  0.8327055649936131  0.6968208690964336  0.9323434977668603  1.0000
  H   H15       1.0  0.8414177286287496  0.6781389083394889  0.17096049306841477  1.0000
  H   H16       1.0  0.0025221534601982463  0.9823718798069079  0.15258213714899538  1.0000
  H   H17       1.0  0.9956679399960534  0.0008907630074237437  0.9137515767919606  1.0000
  H   H18       1.0  0.8677230549935976  0.030674560171386252  0.3235676733838959  1.0000
  H   H19       1.0  0.8439606813055033  0.9462178393247526  0.4780731543457918  1.0000
  H   H20       1.0  0.7998183645633429  0.902033683194053  0.3313194819496367  1.0000
  C   C28       1.0  0.902039704013125  0.37771192612916393  0.172925908171919  1.0000
  C   C29       1.0  0.8295430546106425  0.43510039449056565  0.16908207345156367  1.0000
  C   C30       1.0  0.7927409143619756  0.4643735983232353  0.04997787582662982  1.0000
  C   C31       1.0  0.8294122933430357  0.435484182021993  0.9337716647951653  1.0000
  C   C32       1.0  0.9019525501620792  0.37805350295566265  0.9356691698258198  1.0000
  C   C33       1.0  0.9378204171747616  0.3495228414328524  0.055679433376138565  1.0000
  C   C34       1.0  0.7160482392488319  0.5250839585840419  0.04695697179531889  1.0000
  C   C35       1.0  0.6969474744036349  0.6258004671063468  0.9519343102459773  1.0000
  C   C36       1.0  0.6247519540202728  0.682902432862674  0.9492194880451498  1.0000
  C   C37       1.0  0.5707101009610352  0.6401412210728223  0.041239496068440795  1.0000
  C   C38       1.0  0.5891298689060943  0.5400153214481331  0.13611006636545087  1.0000
  C   C39       1.0  0.66130385206508  0.4828267845959422  0.13907476783871786  1.0000
  C   C40       1.0  0.4963951561021454  0.6989733447473734  0.038316433534416154  1.0000
  C   C41       1.0  0.4341574384249566  0.7482443625411257  0.035868324791311856  1.0000
  C   C42       1.0  0.3612777181924596  0.8059402788695913  0.03300161345610819  1.0000
  C   C43       1.0  0.2990500582084994  0.8552035720998457  0.030554006854110576  1.0000
  H   H21       1.0  0.9299090571819328  0.35557605541761467  0.5018850887066681  1.0000
  H   H22       1.0  0.8019348419704281  0.4588030304055754  0.2587913969776783  1.0000
  H   H23       1.0  0.8009018401851231  0.4562142414657126  0.84181741954442  1.0000
  H   H24       1.0  0.9937380375525979  0.3052541301767311  0.0579288208850357  1.0000
  H   H25       1.0  0.03867987446236265  0.2689067172721453  0.7320192427898005  1.0000
  H   H26       1.0  0.7381264368162029  0.6615503529590705  0.8807844672989343  1.0000
  H   H27       1.0  0.61115114684915  0.7605954039213386  0.8755680511080998  1.0000
  H   H28       1.0  0.547659192164267  0.5059204402654192  0.2075956284382334  1.0000
  H   H29       1.0  0.6740169748656479  0.40441425764558314  0.21234619649763767  1.0000
  H   H30       1.0  0.24440903498296446  0.8984607485485037  0.028404813550334744  1.0000
  Zn  Zn1       1.0  0.8196761377995873  0.3817858630285267  0.5555071441787018  1.0000
  Zn  Zn2       1.0  0.9843089338356462  0.3739793293056852  0.553087422040315  1.0000
  C   C44       1.0  0.9019683165545201  0.37281538243684675  0.7914942571015997  1.0000
  C   C45       1.0  0.9020185525467966  0.38295136332512536  0.3171004101969237  1.0000
  C   C46       1.0  0.9019487991730583  0.6150724661802389  0.5491275074837436  1.0000
  C   C47       1.0  0.9020380140325017  0.14069272197571192  0.5594672298458352  1.0000
  O   O1        1.0  0.9644887430785214  0.38174156171205276  0.3645684180632809  1.0000
  O   O2        1.0  0.9644506090952617  0.3680992256963138  0.7421893622508885  1.0000
  O   O3        1.0  0.9644340061848903  0.5637249251193484  0.5464765095576372  1.0000
  O   O4        1.0  0.9645052898202713  0.1861158741994575  0.5602811742070617  1.0000
  O   O5        1.0  0.8394797256338696  0.569649320800152  0.5483133928308563  1.0000
  O   O6        1.0  0.8394963282589049  0.37402518164853554  0.744026176311954  1.0000
  O   O7        1.0  0.8395344624789282  0.3876674717066515  0.3664036707108682  1.0000
  O   O8        1.0  0.8395510092082067  0.19204177494901445  0.5621165242230215  1.0000
