data_image0
_chemical_formula_structural       NC6NC3H6C6NH5C6ClH3Zn2C4O8
_chemical_formula_sum              "N3 C25 H14 Cl1 Zn2 O8"
_cell_length_a       14.934028789175542
_cell_length_b       9.274771166103582
_cell_length_c       10.302974078461048
_cell_angle_alpha    85.4557754151483
_cell_angle_beta     89.97499619632823
_cell_angle_gamma    90.55950156128424

_space_group_name_H-M_alt    "P 1"
_space_group_IT_number       1

loop_
  _space_group_symop_operation_xyz
  'x, y, z'

loop_
  _atom_site_type_symbol
  _atom_site_label
  _atom_site_symmetry_multiplicity
  _atom_site_fract_x
  _atom_site_fract_y
  _atom_site_fract_z
  _atom_site_occupancy
  N   N1        1.0  0.8533994646978342  0.5778015490116963  0.5648889467704357  1.0000
  C   C1        1.0  0.7759062850528021  0.5767031339367373  0.5642793764309367  1.0000
  C   C2        1.0  0.6795008314741706  0.575331655249439  0.5635184417639403  1.0000
  C   C3        1.0  0.6324326913565544  0.6821433318946081  0.6226841694427033  1.0000
  C   C4        1.0  0.5389138068614721  0.6810421304132597  0.6220740688292645  1.0000
  C   C5        1.0  0.49155086782143204  0.573183761239225  0.5623286150499933  1.0000
  C   C6        1.0  0.3949201459079143  0.5754979714593442  0.563611679994279  1.0000
  N   N2        1.0  0.3174519671811998  0.577334589035229  0.5646302495114562  1.0000
  C   C7        1.0  0.5386038300275463  0.46489436841234694  0.5023438426976721  1.0000
  C   C8        1.0  0.4895252033159246  0.3476299009615771  0.4373892238769858  1.0000
  C   C9        1.0  0.6327610880567149  0.4671192413809872  0.5035763040955992  1.0000
  H   H1        1.0  0.6680241079075673  0.7663010252662601  0.6693018054848692  1.0000
  H   H2        1.0  0.50342106444056  0.7645516874789333  0.6683325556655293  1.0000
  H   H3        1.0  0.44709327308005153  0.396711892807063  0.35750574270695124  1.0000
  H   H4        1.0  0.4463736195209143  0.2847690283345352  0.5096462355490932  1.0000
  H   H5        1.0  0.5364902365791698  0.2716760163735741  0.3953106027841271  1.0000
  H   H6        1.0  0.6697541129533057  0.38472061036023275  0.4579334499923915  1.0000
  C   C10       1.0  0.0826809571721771  0.15397426946104398  0.5654687575944936  1.0000
  C   C11       1.0  0.062076084336936316  0.23730375985005378  0.44938216907188683  1.0000
  C   C12       1.0  0.049831484611789746  0.17226670014683365  0.3325543276468883  1.0000
  C   C13       1.0  0.058238701077574645  0.02252262984262266  0.3309668041582361  1.0000
  C   C14       1.0  0.07718777553080748  0.9378753776592607  0.4454594676840815  1.0000
  C   C15       1.0  0.08817901959633517  0.0011507755625808106  0.5640616909906793  1.0000
  N   N3        1.0  0.029776757608959804  0.2586951349464739  0.21519144728534997  1.0000
  H   H7        1.0  0.1834537736164176  0.23353316675006347  0.849540285328996  1.0000
  H   H8        1.0  0.04924151909034635  0.9710444642933567  0.2410793306983685  1.0000
  H   H9        1.0  0.15242431659557754  0.7040198058586791  0.7573333165440632  1.0000
  H   H10       1.0  0.023607368192950055  0.37077524445654286  0.21515271957099452  1.0000
  H   H11       1.0  0.02086387228148979  0.2112340922223648  0.1274389804101974  1.0000
  C   C16       1.0  0.08542998971629241  0.577562523660291  0.1835227172976221  1.0000
  C   C17       1.0  0.0688819692135172  0.4277583047007687  0.19301390892879675  1.0000
  C   C18       1.0  0.0606713386714932  0.35342953142674105  0.08076638813574766  1.0000
  C   C19       1.0  0.0688820097899212  0.4277583861251866  0.9579060098000576  1.0000
  C   C20       1.0  0.08542998694906195  0.577562449203443  0.9460077364959866  1.0000
  C   C21       1.0  0.09362334924843214  0.6517343572377052  0.05947000949022896  1.0000
  Cl  Cl1       1.0  0.039998932734160775  0.16628847364121158  0.0941266840174213  1.0000
  H   H12       1.0  0.06230044720897121  0.36817766857481216  0.2873140071879341  1.0000
  H   H13       1.0  0.06230050964692  0.368177647928881  0.8721130411133297  1.0000
  H   H14       1.0  0.10638563917449217  0.7672678672638893  0.05122179262186877  1.0000
  Zn  Zn1       1.0  0.987314981256075  0.5776629290442048  0.564821790118337  1.0000
  Zn  Zn2       1.0  0.18353640400422755  0.577461393025841  0.5647080399839578  1.0000
  C   C22       1.0  0.08539068373695513  0.5718159888897456  0.8018912598749863  1.0000
  C   C23       1.0  0.08546285606700922  0.5833101510257681  0.32763869338640167  1.0000
  C   C24       1.0  0.08713514896724185  0.8410163567598454  0.5591541806068426  1.0000
  C   C25       1.0  0.08371831263277608  0.3141080501663931  0.5703758447875131  1.0000
  O   O1        1.0  0.15993885278998987  0.5851563323583842  0.3759621743465753  1.0000
  O   O2        1.0  0.15984219956293322  0.5698157581858376  0.7534810732801214  1.0000
  O   O3        1.0  0.16124987347421801  0.787198460775199  0.5574691624567546  1.0000
  O   O4        1.0  0.15853111198859507  0.36777364015662745  0.5719739878492293  1.0000
  O   O5        1.0  0.012320206310977074  0.7873506819837635  0.5575558422850511  1.0000
  O   O6        1.0  0.010912543642907172  0.5699697124540222  0.7535676810074368  1.0000
  O   O7        1.0  0.01100919660332744  0.5853102363599196  0.37604722127425383  1.0000
  O   O8        1.0  0.009601455731311099  0.36792753384090343  0.5720591321296068  1.0000
