data_image0
_chemical_formula_structural       NC8NC6H8C6NCH9C6ClH5Zn2C4O8
_chemical_formula_sum              "N3 C31 H22 Cl1 Zn2 O8"
_cell_length_a       17.457602349358154
_cell_length_b       9.273386996610926
_cell_length_c       10.302974078461048
_cell_angle_alpha    85.46621229036245
_cell_angle_beta     92.87591007631781
_cell_angle_gamma    91.0935878010965

_space_group_name_H-M_alt    "P 1"
_space_group_IT_number       1

loop_
  _space_group_symop_operation_xyz
  'x, y, z'

loop_
  _atom_site_type_symbol
  _atom_site_label
  _atom_site_symmetry_multiplicity
  _atom_site_fract_x
  _atom_site_fract_y
  _atom_site_fract_z
  _atom_site_occupancy
  N   N1        1.0  0.7134397749272399  0.6134761090909563  0.6238178999021127  1.0000
  C   C1        1.0  0.6526458706766172  0.5624729464539171  0.6133050000534528  1.0000
  C   C2        1.0  0.5770156354147734  0.4990313583319774  0.6002364790906844  1.0000
  C   C3        1.0  0.5182386232680464  0.5436337451370392  0.6750225543403507  1.0000
  C   C4        1.0  0.44403337016711963  0.4825446355091694  0.6625636875038864  1.0000
  C   C5        1.0  0.3816515888061877  0.5296381863433157  0.7417652542143454  1.0000
  C   C6        1.0  0.3069907043957367  0.5501487840329353  0.685980232976164  1.0000
  C   C7        1.0  0.24821482691309682  0.5945469083794488  0.7608746239843451  1.0000
  C   C8        1.0  0.1721120401822194  0.6157303539880608  0.7028735637059262  1.0000
  N   N2        1.0  0.1109383556137506  0.6327547591539382  0.6562408760364713  1.0000
  C   C9        1.0  0.2636061674155974  0.6187044595347329  0.8920618599753161  1.0000
  C   C10       1.0  0.3374799420974131  0.5986258580148236  0.9482335100341928  1.0000
  C   C11       1.0  0.3962431011060535  0.5544276955531185  0.8737962996985854  1.0000
  C   C12       1.0  0.4298979645855883  0.37610082057524963  0.5738877642122311  1.0000
  C   C13       1.0  0.48866153507015203  0.3318079265564984  0.4995009574309477  1.0000
  C   C14       1.0  0.562081327525243  0.3930218358617481  0.5125093493095334  1.0000
  H   H1        1.0  0.5301176180254836  0.6271421888650272  0.7414686341859953  1.0000
  H   H2        1.0  0.294738286469611  0.5335234892067662  0.5840218421990272  1.0000
  H   H3        1.0  0.2185541992141154  0.6530018071042607  0.9508114670669768  1.0000
  H   H4        1.0  0.3492090154902633  0.6169810454620253  0.0498153950889365  1.0000
  H   H5        1.0  0.4528214346240303  0.537778119678463  0.9199199365600538  1.0000
  H   H6        1.0  0.373693691499443  0.32575252606559424  0.5633374842138898  1.0000
  H   H7        1.0  0.47728944522068734  0.2495393950565181  0.4318545379378158  1.0000
  H   H8        1.0  0.6071387183767164  0.3577586261501766  0.4542725790448854  1.0000
  C   C15       1.0  0.9145513523702182  0.19957600061611225  0.6408600380312364  1.0000
  C   C16       1.0  0.9280189232785545  0.28370478615403183  0.5245730425994966  1.0000
  C   C17       1.0  0.9342646981140221  0.21950482714644703  0.4076897268344719  1.0000
  C   C18       1.0  0.9271373833831194  0.06885848923801685  0.40409965273571125  1.0000
  C   C19       1.0  0.9150214805237906  0.9838323450410567  0.5200891294233749  1.0000
  C   C20       1.0  0.9098341539697594  0.04664407384749382  0.6392106089755635  1.0000
  N   N3        1.0  0.9327347642147263  0.9995906587992172  0.2847397592563432  1.0000
  C   C21       1.0  0.9455121630037395  0.0781068695968199  0.15909158039125226  1.0000
  H   H9        1.0  0.9302214635201652  0.4624806980665179  0.8552822053580407  1.0000
  H   H10       1.0  0.9319310318019756  0.40054041629448456  0.5232993646758488  1.0000
  H   H11       1.0  0.9439373928206656  0.2885760781425975  0.3202928880972613  1.0000
  H   H12       1.0  0.9114011652928777  0.8672556909528774  0.5177457632560716  1.0000
  H   H13       1.0  0.9380748003932421  0.9166517598594436  0.9577214163299048  1.0000
  H   H14       1.0  0.9273121401372288  0.886960539553858  0.28698959305977256  1.0000
  H   H15       1.0  0.8979633324570019  0.1543743227394423  0.13265623182830177  1.0000
  H   H16       1.0  0.0010281429813678816  0.13835113409692656  0.1638293771132053  1.0000
  H   H17       1.0  0.9474457080855117  0.0007640595107372091  0.0823910945961539  1.0000
  C   C22       1.0  0.9121927677909081  0.6231100668291389  0.25879281858741643  1.0000
  C   C23       1.0  0.8996851251288253  0.4726622618212011  0.2672299245751408  1.0000
  C   C24       1.0  0.8934792133526963  0.39801416065844714  0.1544593984716991  1.0000
  C   C25       1.0  0.8996851589793258  0.47266234493924153  0.032122028243523934  1.0000
  C   C26       1.0  0.912192766249073  0.623109992284631  0.02127783764622681  1.0000
  C   C27       1.0  0.9183856320309346  0.6976005568293013  0.13526201639016633  1.0000
  Cl  Cl1       1.0  0.8778541987753735  0.21006911112839613  0.1665028911752113  1.0000
  H   H18       1.0  0.9169046231626777  0.6797811796987916  0.5829176815488941  1.0000
  H   H19       1.0  0.8947105539958161  0.4128256570129818  0.3611107892165859  1.0000
  H   H20       1.0  0.8947106077080057  0.41282563903212455  0.9459098275545763  1.0000
  H   H21       1.0  0.9280318670566523  0.8136304180238391  0.12782673917909304  1.0000
  H   H22       1.0  0.9169044772838075  0.6797811598569525  0.6898900391875932  1.0000
  Zn  Zn1       1.0  0.8281493004427717  0.6190356432472902  0.6331819739540635  1.0000
  Zn  Zn2       1.0  0.9962288817008376  0.6271833997719293  0.6468874540140158  1.0000
  C   C28       1.0  0.9122230419327114  0.6173641815917892  0.8771628634429955  1.0000
  C   C29       1.0  0.9121569655004561  0.6288567702140804  0.4029068380690648  1.0000
  C   C30       1.0  0.9107218698730138  0.8865300006553355  0.6343485881409827  1.0000
  C   C31       1.0  0.913658089856219  0.35968921553393285  0.6457211812842987  1.0000
  O   O1        1.0  0.9759303100985205  0.6338711552628038  0.45647399001354455  1.0000
  O   O2        1.0  0.9760182164719617  0.6185326671616442  0.833997482137411  1.0000
  O   O3        1.0  0.9748051411921276  0.8358874284397119  0.6379231638443954  1.0000
  O   O4        1.0  0.9771433279667245  0.4165164015219717  0.6525482062673289  1.0000
  O   O5        1.0  0.8472347968195644  0.8297026387183877  0.6275212170169109  1.0000
  O   O6        1.0  0.8484478624460122  0.6123496102780617  0.8235954627128659  1.0000
  O   O7        1.0  0.8483599564035017  0.6276880481215381  0.44607040980793994  1.0000
  O   O8        1.0  0.8495729743260153  0.4103332840646112  0.6421447234171163  1.0000
