data_image0
_chemical_formula_structural       NC8NC6H8C12OCH10C12NCOCH12Zn2C4O8
_chemical_formula_sum              "N3 C45 H30 O10 Zn2"
_cell_length_a       17.457602349358154
_cell_length_b       10.29979075500242
_cell_length_c       10.299158637457994
_cell_angle_alpha    85.57636928067032
_cell_angle_beta     92.85709877509845
_cell_angle_gamma    91.670799932812

_space_group_name_H-M_alt    "P 1"
_space_group_IT_number       1

loop_
  _space_group_symop_operation_xyz
  'x, y, z'

loop_
  _atom_site_type_symbol
  _atom_site_label
  _atom_site_symmetry_multiplicity
  _atom_site_fract_x
  _atom_site_fract_y
  _atom_site_fract_z
  _atom_site_occupancy
  N   N1        1.0  0.7224214447278754  0.45232514138486485  0.6263621528016136  1.0000
  C   C1        1.0  0.6613538166101312  0.4063969742604898  0.6157511579122178  1.0000
  C   C2        1.0  0.5853831013654739  0.34926805199382155  0.6025606216128796  1.0000
  C   C3        1.0  0.5268330832750411  0.3894555427647639  0.6774539377684663  1.0000
  C   C4        1.0  0.45229995193434214  0.33444506316640715  0.6648776209575195  1.0000
  C   C5        1.0  0.39015779785677734  0.3768772184240519  0.744192496282309  1.0000
  C   C6        1.0  0.315618314897739  0.39532571286915624  0.6884272920407563  1.0000
  C   C7        1.0  0.2570683068493683  0.4353293192224179  0.7634285802991009  1.0000
  C   C8        1.0  0.18109097697752102  0.45438287798306504  0.7054478608380588  1.0000
  N   N2        1.0  0.12001812139267219  0.4696955596909103  0.6588315140905351  1.0000
  C   C9        1.0  0.27256547917348634  0.45712774716165017  0.8947035637971763  1.0000
  C   C10       1.0  0.3463201146838371  0.43906836898924495  0.9508563250688388  1.0000
  C   C11       1.0  0.4048583989164909  0.3992449747276965  0.8763127381420814  1.0000
  C   C12       1.0  0.4376058772926104  0.23856918137384645  0.5759751424667009  1.0000
  C   C13       1.0  0.4961440513990676  0.19866050641472136  0.5014817997712278  1.0000
  C   C14       1.0  0.569892293021373  0.25378355294463545  0.5146080529983958  1.0000
  H   H1        1.0  0.5391509604084983  0.4646720136522069  0.7440767355674605  1.0000
  H   H2        1.0  0.30329526642306964  0.38031984394381313  0.5864046940788028  1.0000
  H   H3        1.0  0.2276878253596772  0.4880306659355828  0.9535360409799372  1.0000
  H   H4        1.0  0.3581292409565044  0.4556317408031436  0.05250550463025539  1.0000
  H   H5        1.0  0.4613380257295818  0.38426961809358207  0.9224205632019732  1.0000
  H   H6        1.0  0.381131427413873  0.19323065971277004  0.5653279705606589  1.0000
  H   H7        1.0  0.4843400082855918  0.12456005714668873  0.433660570806961  1.0000
  H   H8        1.0  0.61477005154587  0.22201113053804858  0.45628678787099514  1.0000
  C   C15       1.0  0.9212923864200908  0.07964576382985912  0.6426417141926157  1.0000
  C   C16       1.0  0.8990598587254838  0.06755375070830262  0.7722658007359691  1.0000
  C   C17       1.0  0.8877335932148113  0.9442876794462639  0.8379091882292811  1.0000
  C   C18       1.0  0.8989220405135397  0.8322654137120705  0.7721887600438821  1.0000
  C   C19       1.0  0.9211545343278287  0.8423652102630387  0.6425637382074998  1.0000
  C   C20       1.0  0.9322170035485627  0.9664914250811579  0.5785168446445415  1.0000
  C   C21       1.0  0.8642175120503555  0.9325493226441541  0.9750458323761246  1.0000
  C   C22       1.0  0.8082314238884534  0.8392527082462886  0.015539891033705679  1.0000
  C   C23       1.0  0.7861678248197359  0.8284815242469998  0.1444787422963706  1.0000
  C   C24       1.0  0.8195936888756075  0.910317290689504  0.23455767828787447  1.0000
  C   C25       1.0  0.875783665095623  0.004232543582736162  0.1959519987079001  1.0000
  C   C26       1.0  0.8976095278780275  0.01463197186594978  0.06646702676782291  1.0000
  O   O1        1.0  0.9112299710847722  0.088510000972615  0.282716147981695  1.0000
  C   C27       1.0  0.8947566729123931  0.0888140175467762  0.41670863679356496  1.0000
  H   H9        1.0  0.8894831111112337  0.15417886216278492  0.8219131054077129  1.0000
  H   H10       1.0  0.8912642737508045  0.7370482174138868  0.82293190118045  1.0000
  H   H11       1.0  0.9493690497799596  0.9750515316413808  0.47851738668784305  1.0000
  H   H12       1.0  0.780803529713089  0.7758028926895403  0.9470896767210878  1.0000
  H   H13       1.0  0.7428327584525259  0.7566296902024013  0.17461903663804101  1.0000
  H   H14       1.0  0.8013935777878449  0.8998068881298346  0.33373920795831685  1.0000
  H   H15       1.0  0.9415633188462922  0.08608514133242262  0.0378901361653986  1.0000
  H   H16       1.0  0.9079996794239121  0.9928807477988022  0.4684133160087017  1.0000
  H   H17       1.0  0.9309515357465029  0.16504868021266117  0.4618792885145122  1.0000
  H   H18       1.0  0.8335096702443261  0.11105379889988654  0.426142620919542  1.0000
  C   C28       1.0  0.9212954005972356  0.4608706771426499  0.26123554437440966  1.0000
  C   C29       1.0  0.923053210463605  0.5976503110358874  0.2500536005767724  1.0000
  C   C30       1.0  0.9238842058501554  0.6671367029929083  0.12722163650714013  1.0000
  C   C31       1.0  0.9229062812209331  0.598003760567012  0.014730091696338208  1.0000
  C   C32       1.0  0.9211514981287091  0.46114035027934747  0.02396998385572236  1.0000
  C   C33       1.0  0.9203602171232343  0.3934154968592863  0.147611683292042  1.0000
  C   C34       1.0  0.925744672379996  0.8118328116710154  0.11636612573088125  1.0000
  C   C35       1.0  0.972820399050239  0.8817231709210542  0.20277197369437963  1.0000
  C   C36       1.0  0.9745774485691698  0.017890113626963355  0.19242601886616242  1.0000
  C   C37       1.0  0.9297801337202491  0.08691813676810778  0.09461192688174092  1.0000
  C   C38       1.0  0.8817907073203257  0.017348246302006938  0.009914510357712956  1.0000
  C   C39       1.0  0.8800651499356946  0.8812105888010392  0.020002047664728687  1.0000
  N   N3        1.0  0.9294618398059299  0.22694977229575433  0.08333831348095577  1.0000
  C   C40       1.0  0.9951779484505878  0.30880845303106863  0.11192961942938197  1.0000
  O   O2        1.0  0.06133292291708559  0.26228614634628533  0.12585255631045045  1.0000
  C   C41       1.0  0.9861527223699759  0.4522288600072924  0.11578257107559331  1.0000
  H   H19       1.0  0.9227082924578617  0.6504523262101968  0.3369716711987319  1.0000
  H   H20       1.0  0.9245599376653384  0.6510894449704953  0.9198888933812253  1.0000
  H   H21       1.0  0.9190070035727701  0.2879142843346969  0.15552189512354242  1.0000
  H   H22       1.0  0.9183051885553702  0.20282279366181477  0.8341556171586899  1.0000
  H   H23       1.0  0.008736573889569057  0.8310654117911402  0.27790213993410195  1.0000
  H   H24       1.0  0.009970186249040228  0.06877579445908033  0.26234353728292814  1.0000
  H   H25       1.0  0.8458962184401069  0.06888195747681534  0.9353553291645897  1.0000
  H   H26       1.0  0.8421590229774119  0.8301683220319385  0.9535635216383086  1.0000
  H   H27       1.0  0.8797217684524391  0.27223155639940494  0.04432545525021703  1.0000
  H   H28       1.0  0.932203296542036  0.47158650666542196  0.16279274562980442  1.0000
  H   H29       1.0  0.9840816262962957  0.49880557395254504  0.014890562271723251  1.0000
  H   H30       1.0  0.03509051638946592  0.4951343912186772  0.17243022721716583  1.0000
  Zn  Zn1       1.0  0.837159256299526  0.4573343888729545  0.6357396078835233  1.0000
  Zn  Zn2       1.0  0.005280295489852766  0.46467566825867723  0.649464692576328  1.0000
  C   C42       1.0  0.9211779201744642  0.45591565967258507  0.8797972061163903  1.0000
  C   C43       1.0  0.9212634671711787  0.46609611627224967  0.40540737151941353  1.0000
  C   C44       1.0  0.9211775997412552  0.6981930205370742  0.6374030428083114  1.0000
  C   C45       1.0  0.921263730505415  0.22381719264171876  0.6478015995418227  1.0000
  O   O3        1.0  0.9850538092484238  0.47063013296737166  0.4590013524261136  1.0000
  O   O4        1.0  0.9849875570342642  0.4569525243216711  0.8366198731704313  1.0000
  O   O5        1.0  0.9849864379568407  0.6525945201562557  0.6408848009668549  1.0000
  O   O6        1.0  0.985054870974217  0.27498814388340104  0.6547363225710687  1.0000
  O   O7        1.0  0.857384623443703  0.6470219107444231  0.630467973198254  1.0000
  O   O8        1.0  0.8573857422486406  0.45138147517207305  0.8262029759969721  1.0000
  O   O9        1.0  0.8574519948165917  0.4650590380125353  0.4485828938677608  1.0000
  O   O10       1.0  0.8574530565225568  0.2694170396741436  0.6443179613808088  1.0000
