data_image0
_chemical_formula_structural       NC5NC4H6C10H6C8H10Zn2C4O8
_chemical_formula_sum              "N2 C31 H22 Zn2 O8"
_cell_length_a       13.854160002989762
_cell_length_b       9.275150299802176
_cell_length_c       9.275657083861812
_cell_angle_alpha    85.52524859498646
_cell_angle_beta     89.50283940277347
_cell_angle_gamma    89.48388968248379

_space_group_name_H-M_alt    "P 1"
_space_group_IT_number       1

loop_
  _space_group_symop_operation_xyz
  'x, y, z'

loop_
  _atom_site_type_symbol
  _atom_site_label
  _atom_site_symmetry_multiplicity
  _atom_site_fract_x
  _atom_site_fract_y
  _atom_site_fract_z
  _atom_site_occupancy
  N   N1        1.0  0.9087249941157242  0.5708505075218144  0.4010063021794541  1.0000
  C   C1        1.0  0.8365858776111584  0.5957697591117113  0.34181940983049275  1.0000
  C   C2        1.0  0.7468438075487871  0.6267699805908709  0.26818865109739076  1.0000
  C   C3        1.0  0.6590306223969088  0.5976427026029616  0.3400760711004136  1.0000
  C   C4        1.0  0.5717013952268896  0.626769994807316  0.26818862784452513  1.0000
  C   C5        1.0  0.48147773659562393  0.5957696122010265  0.34181950228366764  1.0000
  N   N2        1.0  0.4089514238993942  0.5708504439977744  0.40100630245268465  1.0000
  C   C6        1.0  0.5722142382247425  0.6856313068181838  0.12442932169973965  1.0000
  C   C7        1.0  0.6599823937186444  0.7169090809018341  0.05242628005226835  1.0000
  C   C8        1.0  0.6605282398424248  0.7759526312662068  0.8971770741482801  1.0000
  C   C9        1.0  0.7472913277956028  0.685631305028692  0.12442923143268246  1.0000
  H   H1        1.0  0.6586596634186642  0.5519738506157507  0.4513437647975018  1.0000
  H   H2        1.0  0.5045355507935838  0.7071411422664129  0.06865851693370795  1.0000
  H   H3        1.0  0.7251124535924087  0.844019724974411  0.873005082566364  1.0000
  H   H4        1.0  0.5954039755423671  0.8440197271862888  0.8730051476379245  1.0000
  H   H5        1.0  0.6614893273936259  0.6850228072162152  0.8261388793016535  1.0000
  H   H6        1.0  0.8153585096995694  0.7071412543585227  0.06865843087329049  1.0000
  C   C10       1.0  0.16137552616401254  0.14715732180775085  0.403419597361254  1.0000
  C   C11       1.0  0.21277244246943716  0.22864976720542218  0.2943609089265524  1.0000
  C   C12       1.0  0.25592385619238356  0.16191215288626457  0.17975999947394095  1.0000
  C   C13       1.0  0.2481180521882509  0.012708627804581594  0.17274166655604728  1.0000
  C   C14       1.0  0.19883220296182094  0.929769017062999  0.2811524910655949  1.0000
  C   C15       1.0  0.15631009829607012  0.9945325540754284  0.39860557699625887  1.0000
  C   C16       1.0  0.3073470558715625  0.2471339405408122  0.06820779504764318  1.0000
  C   C17       1.0  0.350401240928691  0.3185096829158958  0.9748153493480393  1.0000
  C   C18       1.0  0.40081569523519184  0.40209563985999464  0.8654568684792961  1.0000
  C   C19       1.0  0.4438615794998231  0.4734659919503168  0.7720823254550782  1.0000
  H   H7        1.0  0.1142690988844272  0.41065571615023266  0.6323296087963952  1.0000
  H   H8        1.0  0.2173970849430968  0.3451095579624488  0.2965878484095881  1.0000
  H   H9        1.0  0.2809918759530883  0.9601084477046641  0.08406464096995392  1.0000
  H   H10       1.0  0.19591664893803679  0.8137370224955287  0.274928921351669  1.0000
  H   H11       1.0  0.091590459101063  0.8658191831201414  0.7411043473533094  1.0000
  H   H12       1.0  0.48165945625119294  0.5361352209347154  0.6900917644340323  1.0000
  C   C20       1.0  0.1613144962454731  0.5686699434221729  0.9777050618307971  1.0000
  C   C21       1.0  0.21065681438172545  0.6786548718337564  0.04202060827921139  1.0000
  C   C22       1.0  0.25143930654338953  0.794815056120174  0.9576221055139178  1.0000
  C   C23       1.0  0.24431791386375035  0.8000059742295182  0.8069537283228527  1.0000
  C   C24       1.0  0.19705649358324262  0.6906670299524287  0.7411819082631603  1.0000
  C   C25       1.0  0.15637115373830413  0.5730199437463614  0.8243201351558747  1.0000
  C   C26       1.0  0.3052100011558898  0.9105156934139865  0.028164698699585818  1.0000
  C   C27       1.0  0.41147779502907045  0.8693448030252645  0.046243215875091614  1.0000
  H   H13       1.0  0.11936401369293456  0.3384975851445611  0.2768397479035094  1.0000
  H   H14       1.0  0.21566344372380697  0.6759799425715797  0.1587608311023987  1.0000
  H   H15       1.0  0.27633137009596476  0.8881899744201502  0.7400665153679742  1.0000
  H   H16       1.0  0.1945390003582439  0.6962897523296642  0.6241756444476545  1.0000
  H   H17       1.0  0.043399831601175665  0.40673482108906  0.5574304183109757  1.0000
  H   H18       1.0  0.29929776638093036  0.015259457909557302  0.9617293280520651  1.0000
  H   H19       1.0  0.2730085012577783  0.9268562749724079  0.13594835856032672  1.0000
  H   H20       1.0  0.41896270937558105  0.7667051161844747  0.11557450973163808  1.0000
  H   H21       1.0  0.44552476539090513  0.8560659188420121  0.9391438439746072  1.0000
  H   H22       1.0  0.44977643749088947  0.9559551369249788  0.09831778319132534  1.0000
  Zn  Zn1       1.0  0.05307951625215158  0.5708466691626497  0.40101465753971177  1.0000
  Zn  Zn2       1.0  0.2645969043903902  0.5708425364322345  0.4010098528349135  1.0000
  C   C28       1.0  0.15733775944309067  0.5664498606429105  0.664324389357476  1.0000
  C   C29       1.0  0.16034095925430147  0.5752411661071244  0.13770025210614611  1.0000
  C   C30       1.0  0.15729616859571416  0.8343311046537745  0.39377124699189503  1.0000
  C   C31       1.0  0.16038248783905806  0.30735818902784406  0.4082534811740628  1.0000
  O   O1        1.0  0.24028401544011954  0.5774386655949214  0.19139431193607215  1.0000
  O   O2        1.0  0.2379315156043926  0.5642481339243033  0.6106262740940258  1.0000
  O   O3        1.0  0.23789683964269348  0.7805656340063718  0.3921526889271387  1.0000
  O   O4        1.0  0.24031861979465385  0.36112117528016907  0.4098677889631386  1.0000
  O   O5        1.0  0.07735772866741875  0.7805680303176574  0.39215672140553526  1.0000
  O   O6        1.0  0.07739239471126932  0.5642522633069476  0.6106302198641356  1.0000
  O   O7        1.0  0.07974490503125173  0.5774427357941814  0.19139652488607428  1.0000
  O   O8        1.0  0.07977950881248241  0.36112523571505517  0.40987011004701035  1.0000
