data_image0
_chemical_formula_structural       NC5NC4H6C6NH7C6SCH8Zn2C4O8
_chemical_formula_sum              "N3 C26 H21 S1 Zn2 O8"
_cell_length_a       13.854160002989762
_cell_length_b       9.274771166103582
_cell_length_c       10.302812801239593
_cell_angle_alpha    85.45577702643503
_cell_angle_beta     89.99986876837025
_cell_angle_gamma    90.59704847255895

_space_group_name_H-M_alt    "P 1"
_space_group_IT_number       1

loop_
  _space_group_symop_operation_xyz
  'x, y, z'

loop_
  _atom_site_type_symbol
  _atom_site_label
  _atom_site_symmetry_multiplicity
  _atom_site_fract_x
  _atom_site_fract_y
  _atom_site_fract_z
  _atom_site_occupancy
  N   N1        1.0  0.9199238733136244  0.5786601568050247  0.5653423289655535  1.0000
  C   C1        1.0  0.8477671928784731  0.6038770306451346  0.5121234008235257  1.0000
  C   C2        1.0  0.7580032689604042  0.635247505663675  0.4459170169422759  1.0000
  C   C3        1.0  0.6702262319892377  0.6057584475472642  0.5105597876648145  1.0000
  C   C4        1.0  0.5828608566891696  0.6352475199959091  0.4459169960493686  1.0000
  C   C5        1.0  0.4926590504860614  0.6038768832973269  0.5121234835808268  1.0000
  N   N2        1.0  0.4201503022727639  0.5786600932959234  0.5653423289918643  1.0000
  C   C6        1.0  0.5833093836376667  0.6948321563805464  0.3166475439045209  1.0000
  C   C7        1.0  0.6710686900248365  0.7264717513040142  0.2519080813975063  1.0000
  C   C8        1.0  0.6714862696977446  0.786297600773322  0.11229117966693726  1.0000
  C   C9        1.0  0.7583864726642289  0.694832155055201  0.3166474626016469  1.0000
  H   H1        1.0  0.6699036089688676  0.5595297811641086  0.6106121528025521  1.0000
  H   H2        1.0  0.515588511862604  0.7166229433077191  0.2664934311922027  1.0000
  H   H3        1.0  0.7368161500694593  0.854471351471912  0.0907567874021904  1.0000
  H   H4        1.0  0.6071076724237793  0.8544713533489593  0.09075684601485468  1.0000
  H   H5        1.0  0.6708548102760303  0.695756079319983  0.047997892388213406  1.0000
  H   H6        1.0  0.8264114717295625  0.7166230558130706  0.2664933540719143  1.0000
  C   C10       1.0  0.16707835353612488  0.15506356984009195  0.5660499930922056  1.0000
  C   C11       1.0  0.14486729251009797  0.23837232500562178  0.44995009864103613  1.0000
  C   C12       1.0  0.13166820598771056  0.17332294178135776  0.3331136012597955  1.0000
  C   C13       1.0  0.14073078322803667  0.023587330386026114  0.33153074067300703  1.0000
  C   C14       1.0  0.16115697289498734  0.9389591473887969  0.44603576192949124  1.0000
  C   C15       1.0  0.17300500188147097  0.0022456077980574783  0.5646459701101342  1.0000
  N   N3        1.0  0.11005017591834916  0.2597311948501986  0.21573770174757168  1.0000
  H   H7        1.0  0.275706613676369  0.23472386880125207  0.85018215652703  1.0000
  H   H8        1.0  0.14000049022672334  0.3549650337651802  0.4494513925030691  1.0000
  H   H9        1.0  0.1310322562413797  0.972100109540994  0.2416368436306982  1.0000
  H   H10       1.0  0.16541074074051743  0.8227951314915873  0.4423175512495321  1.0000
  H   H11       1.0  0.2422583483323033  0.7051792846742656  0.7579564429604558  1.0000
  H   H12       1.0  0.10339986926835731  0.3718050970011688  0.21569553345981873  1.0000
  H   H13       1.0  0.10044251658474468  0.21226118171090302  0.1279788917087683  1.0000
  C   C16       1.0  0.17004169940951766  0.5786545783387853  0.184099507577562  1.0000
  C   C17       1.0  0.1384962994370762  0.7225051433731815  0.17266381909711975  1.0000
  C   C18       1.0  0.12254997302745108  0.7938678858157533  0.04999854890991995  1.0000
  C   C19       1.0  0.13849621136047885  0.722504991950955  0.9375126496588223  1.0000
  C   C20       1.0  0.17004163673366213  0.5786545686177884  0.9465964112232076  1.0000
  C   C21       1.0  0.1856303606037281  0.5074196505284099  0.0704286213739087  1.0000
  S   S1        1.0  0.08244504298342294  0.9777650577845403  0.036882443433195355  1.0000
  C   C22       1.0  0.9551284340245394  0.927366708703272  0.040478098447009225  1.0000
  H   H14       1.0  0.1818936393861259  0.5244257807915167  0.5157234603716913  1.0000
  H   H15       1.0  0.1259651514314868  0.7796429982551913  0.25868817367221936  1.0000
  H   H16       1.0  0.12596495673084473  0.7796427904640706  0.8433378610344884  1.0000
  H   H17       1.0  0.20994515585943174  0.39645177091259454  0.07834307172111044  1.0000
  H   H18       1.0  0.18189183692075553  0.5244250318959033  0.6227078760986937  1.0000
  H   H19       1.0  0.9375637375459124  0.8631957622367568  0.9569381270952895  1.0000
  H   H20       1.0  0.9375641611438771  0.86319722004181  0.13317281671275505  1.0000
  H   H21       1.0  0.9111522518328633  0.026931235434012102  0.03337658080093831  1.0000
  Zn  Zn1       1.0  0.06427839376114464  0.5786562765132524  0.5653498407247748  1.0000
  Zn  Zn2       1.0  0.2757957004216451  0.5786521695269162  0.5653454991944988  1.0000
  C   C23       1.0  0.16999929657493462  0.5729080228841871  0.8024777066536244  1.0000
  C   C24       1.0  0.1700771201028434  0.584402243169257  0.32821775762801475  1.0000
  C   C25       1.0  0.17187975954205958  0.8421101385506544  0.5597378008682398  1.0000
  C   C26       1.0  0.16819657283560155  0.31519839443483133  0.5709577355038908  1.0000
  O   O1        1.0  0.25035867913246523  0.5863233603231204  0.37658352172295917  1.0000
  O   O2        1.0  0.2502544715105868  0.5709827004190271  0.7541082755132007  1.0000
  O   O3        1.0  0.2517718870639773  0.7883668133660987  0.5580940817028348  1.0000
  O   O4        1.0  0.24884119147474076  0.3689392576963484  0.5725976181737924  1.0000
  O   O5        1.0  0.09123283052758376  0.7883691883467925  0.5580977217401317  1.0000
  O   O6        1.0  0.0897154270938449  0.5709868084706511  0.7541118434546568  1.0000
  O   O7        1.0  0.08981963442838525  0.5863274181077798  0.37658552884020025  1.0000
  O   O8        1.0  0.08830214669452947  0.3689433051636804  0.572599722645217  1.0000
