data_image0
_chemical_formula_structural       NC5NC3H4C6NH7C6NCH7Zn2C4O8
_chemical_formula_sum              "N4 C25 H18 Zn2 O8"
_cell_length_a       13.859018345313864
_cell_length_b       9.274771166103582
_cell_length_c       9.274690524155613
_cell_angle_alpha    85.95744674106099
_cell_angle_beta     89.6873584993644
_cell_angle_gamma    90.59704768766964

_space_group_name_H-M_alt    "P 1"
_space_group_IT_number       1

loop_
  _space_group_symop_operation_xyz
  'x, y, z'

loop_
  _atom_site_type_symbol
  _atom_site_label
  _atom_site_symmetry_multiplicity
  _atom_site_fract_x
  _atom_site_fract_y
  _atom_site_fract_z
  _atom_site_occupancy
  N   N1        1.0  0.9253178267490355  0.5647627369186896  0.4073239908060413  1.0000
  C   C1        1.0  0.8525032096773617  0.525658496607323  0.45864332279210673  1.0000
  C   C2        1.0  0.7619261360279422  0.47701805976970957  0.5224777454008778  1.0000
  C   C3        1.0  0.6748688904879776  0.5244367918931208  0.460247000346776  1.0000
  C   C4        1.0  0.5866958299805619  0.4770177681600174  0.5224776203986211  1.0000
  C   C5        1.0  0.49726332961500547  0.5256583830443825  0.4586432256992303  1.0000
  N   N2        1.0  0.4253689242026891  0.5647627024099489  0.40732392185117233  1.0000
  C   C6        1.0  0.585762328815673  0.3821659897443759  0.6469576043770697  1.0000
  C   C7        1.0  0.6726391804935146  0.33492979445363935  0.7089488704834797  1.0000
  C   C8        1.0  0.7606276736983998  0.38216628675347475  0.6469578074661628  1.0000
  H   H1        1.0  0.6757326523062386  0.5978546558213298  0.3638961444604485  1.0000
  H   H2        1.0  0.518027722501283  0.34484259293931885  0.6959390295774339  1.0000
  H   H3        1.0  0.671777108793484  0.2616609837410473  0.8051043082436176  1.0000
  H   H4        1.0  0.8274839863412524  0.34484312673396267  0.6959394538551169  1.0000
  C   C9        1.0  0.17238284623198183  0.14117300234901453  0.408109565956923  1.0000
  C   C10       1.0  0.1506421749017246  0.22335710770703732  0.27922202612310637  1.0000
  C   C11       1.0  0.13791325390647266  0.15717593916574102  0.14951675011211396  1.0000
  C   C12       1.0  0.1469789611782117  0.0074249946325970475  0.14775954649349643  1.0000
  C   C13       1.0  0.16694174166360742  0.9239060120579196  0.27487654846385  1.0000
  C   C14       1.0  0.17831301133784616  0.988341439588324  0.4065508981682746  1.0000
  N   N3        1.0  0.11677048992389882  0.2424471818654197  0.019212661476798006  1.0000
  H   H5        1.0  0.2798408931461598  0.22358566483200268  0.7235370247834727  1.0000
  H   H6        1.0  0.1457790658057072  0.3399449855945349  0.27866839140821165  1.0000
  H   H7        1.0  0.1376420189828398  0.9550669791675253  0.047964422571029834  1.0000
  H   H8        1.0  0.1712088336552484  0.8077059781159421  0.27074880047834826  1.0000
  H   H9        1.0  0.2467718293558665  0.6931476982300293  0.6211532531364694  1.0000
  H   H10       1.0  0.11012268258736024  0.35452067560802347  0.019165849529847897  1.0000
  H   H11       1.0  0.10751587620926199  0.19412705651583176  0.9217877904948981  1.0000
  C   C15       1.0  0.17686704647187468  0.5610640881383473  0.9840897178053685  1.0000
  C   C16       1.0  0.25569681709324854  0.6234617486297023  0.05271228032620477  1.0000
  C   C17       1.0  0.32964111719907185  0.696783855460748  0.97207957388685  1.0000
  C   C18       1.0  0.3239990826261836  0.7074388152044981  0.8211635093463474  1.0000
  C   C19       1.0  0.2472223105905364  0.6441817679555139  0.7513318427068079  1.0000
  C   C20       1.0  0.17382876059210983  0.5684503067475131  0.8305706746769468  1.0000
  N   N4        1.0  0.41039683435023216  0.7622440983842278  0.04068092005053358  1.0000
  C   C21       1.0  0.42345617317777173  0.7571663401847881  0.19697180963332722  1.0000
  H   H12       1.0  0.06551490252685133  0.3871891410628554  0.2774084118381277  1.0000
  H   H13       1.0  0.37997224202393354  0.763904462789184  0.7570010563957164  1.0000
  H   H14       1.0  0.020874346862085107  0.500778960477561  0.5552570090630029  1.0000
  H   H15       1.0  0.4632720252601421  0.8162012068311164  0.975947494879663  1.0000
  H   H16       1.0  0.4913825763513213  0.8143212464918281  0.22254496240523777  1.0000
  H   H17       1.0  0.4280580754716684  0.6431312406622363  0.2414062731566364  1.0000
  H   H18       1.0  0.3622947380678492  0.8112431043817883  0.2480743331948007  1.0000
  Zn  Zn1       1.0  0.06962171318842669  0.5647589278224744  0.4073323103252023  1.0000
  Zn  Zn2       1.0  0.28106488887664954  0.5647547764792931  0.40732746186761104  1.0000
  C   C22       1.0  0.17436071199732606  0.5613077110150987  0.6705782543297154  1.0000
  C   C23       1.0  0.1763282112530524  0.5682078145046068  0.14408165592285346  1.0000
  C   C24       1.0  0.17720772020455455  0.8281584253247607  0.40110212615406754  1.0000
  C   C25       1.0  0.1734811184880125  0.30135536782532185  0.4135578641293023  1.0000
  O   O1        1.0  0.2563889124088983  0.5705974459308998  0.19777458351351512  1.0000
  O   O2        1.0  0.2547804825986819  0.5589138370088886  0.6168812339824126  1.0000
  O   O3        1.0  0.257078390657393  0.7743991766999321  0.3992773511575005  1.0000
  O   O4        1.0  0.25409093265906213  0.3551121156170425  0.4153783582553853  1.0000
  O   O5        1.0  0.09659559725087341  0.7744015886876461  0.39928141393149824  1.0000
  O   O6        1.0  0.09429770159483364  0.5589179813691458  0.6168852167196808  1.0000
  O   O7        1.0  0.0959061373369634  0.5706015249046177  0.19777683351193232  1.0000
  O   O8        1.0  0.09360815712311177  0.3551161852164948  0.4153807163309149  1.0000
