data_image0
_chemical_formula_structural       NC8NH4C10H6C7NH4Zn2C4O8
_chemical_formula_sum              "N3 C29 H14 Zn2 O8"
_cell_length_a       11.048855714531884
_cell_length_b       9.275150299802176
_cell_length_c       9.275157849593905
_cell_angle_alpha    85.78415629139576
_cell_angle_beta     89.74088388254012
_cell_angle_gamma    89.4838956589931

_space_group_name_H-M_alt    "P 1"
_space_group_IT_number       1

loop_
  _space_group_symop_operation_xyz
  'x, y, z'

loop_
  _atom_site_type_symbol
  _atom_site_label
  _atom_site_symmetry_multiplicity
  _atom_site_fract_x
  _atom_site_fract_y
  _atom_site_fract_z
  _atom_site_occupancy
  N   N1        1.0  0.13392538058405504  0.5636615596701071  0.40150834824611276  1.0000
  C   C1        1.0  0.08017996255762318  0.5048667918831276  0.3168702178663396  1.0000
  C   C2        1.0  0.013122262264057659  0.43150768119291644  0.21126571977742992  1.0000
  C   C3        1.0  0.8854055079214899  0.4315074915065709  0.21126582255573823  1.0000
  C   C4        1.0  0.8235798078990385  0.358988739432192  0.10687135642909218  1.0000
  C   C5        1.0  0.8879426648163773  0.2870436103734615  0.0033025701612474597  1.0000
  C   C6        1.0  0.014348877979031725  0.287043500414244  0.003302593444077351  1.0000
  C   C7        1.0  0.0768373460802745  0.35898883764853484  0.10687132816164624  1.0000
  C   C8        1.0  0.8164365409649299  0.504866866725947  0.31687020431221513  1.0000
  N   N2        1.0  0.761159266289857  0.5636616026394907  0.4015083767883949  1.0000
  H   H1        1.0  0.725529399243648  0.3580806300646815  0.1055634449972329  1.0000
  H   H2        1.0  0.8397717408004362  0.23124129423987896  0.9229728239875293  1.0000
  H   H3        1.0  0.06397378120438389  0.23124140370956425  0.9229728227584988  1.0000
  H   H4        1.0  0.17491141031172533  0.35808058364522366  0.10556372032651873  1.0000
  C   C9        1.0  0.45073221684922304  0.13997926400285743  0.40392087911252594  1.0000
  C   C10       1.0  0.5148019876334649  0.22098138858575764  0.29489643279219035  1.0000
  C   C11       1.0  0.5685135732817508  0.1537285342718815  0.1803315058757706  1.0000
  C   C12       1.0  0.558701625895255  0.00449345346617935  0.17331537685417175  1.0000
  C   C13       1.0  0.4972766835731846  0.9220412510698346  0.28169216261797825  1.0000
  C   C14       1.0  0.44436404343624664  0.9873328515893517  0.39910837043828873  1.0000
  C   C15       1.0  0.6326076851432161  0.23844879024371604  0.06881432650479824  1.0000
  C   C16       1.0  0.6862706356632146  0.3094046460675146  0.9754512040766428  1.0000
  C   C17       1.0  0.7491074615152444  0.39249893417219534  0.8661270594799175  1.0000
  C   C18       1.0  0.8027600655293441  0.46344948020052595  0.7727818341060826  1.0000
  H   H5        1.0  0.3924564027899343  0.40450683254765174  0.6327590160821199  1.0000
  H   H6        1.0  0.5206085213162177  0.3374511924137056  0.2971226729160943  1.0000
  H   H7        1.0  0.5996157143762686  0.9514945857838938  0.08466619420435806  1.0000
  H   H8        1.0  0.4935993666343457  0.8059812748127144  0.275470547124814  1.0000
  H   H9        1.0  0.3643954973349163  0.8601593482203989  0.7414996009364512  1.0000
  H   H10       1.0  0.8498715271673714  0.52575008478873  0.6908170164035581  1.0000
  C   C19       1.0  0.44918475433927385  0.559577868926217  0.9783400141269665  1.0000
  C   C20       1.0  0.5531491756584554  0.6066122180026503  0.0477689204292815  1.0000
  C   C21       1.0  0.650819835628625  0.6649916249879206  0.9675591953002062  1.0000
  C   C22       1.0  0.6456628359802432  0.6772647947968073  0.8168305429796181  1.0000
  C   C23       1.0  0.5441955070800597  0.6290621298888486  0.7460667303224477  1.0000
  C   C24       1.0  0.4459115773213411  0.5677342364652644  0.8246892607748455  1.0000
  C   C25       1.0  0.7559553892123416  0.7140352307888602  0.04028428228753089  1.0000
  N   N3        1.0  0.8404574590636907  0.7534530656452187  0.0987430118603787  1.0000
  H   H11       1.0  0.1550711847624544  0.5109318070779332  0.08645389528214141  1.0000
  H   H12       1.0  0.7206851754870012  0.7229020006292726  0.753748554545723  1.0000
  H   H13       1.0  0.5438707543277631  0.6366474565776898  0.6289592099696786  1.0000
  H   H14       1.0  0.2492004253482037  0.5289237835414888  0.5475031737296412  1.0000
  Zn  Zn1       1.0  0.3149315422840395  0.5636577816444468  0.4015166972333901  1.0000
  Zn  Zn2       1.0  0.5801531750405665  0.5636536606727423  0.40151188854326114  1.0000
  C   C26       1.0  0.44657074451012263  0.5604448326769285  0.6647437494505937  1.0000
  C   C27       1.0  0.4485168547983621  0.5668684313851509  0.13828496737383353  1.0000
  C   C28       1.0  0.4455837732975297  0.8271096671286251  0.3942755583445453  1.0000
  C   C29       1.0  0.4495037482394326  0.30020186425484185  0.4087532451549953  1.0000
  O   O1        1.0  0.5489429763322144  0.5693073524954981  0.19196216567443902  1.0000
  O   O2        1.0  0.5474417152118113  0.5580016914225108  0.6110624928200417  1.0000
  O   O3        1.0  0.5466433608674598  0.7733369321408721  0.3926575063989681  1.0000
  O   O4        1.0  0.5497412405146966  0.35397212105824427  0.4103670439896484  1.0000
  O   O5        1.0  0.34534338630280015  0.7733393212618487  0.39266154178105483  1.0000
  O   O6        1.0  0.34614172791156483  0.5580058132250032  0.6110664415210675  1.0000
  O   O7        1.0  0.34764299619090294  0.5693114073238321  0.19196438209944652  1.0000
  O   O8        1.0  0.3484412600281451  0.3539761666083747  0.41036936851457306  1.0000
