data_image0
_chemical_formula_structural       NC5NC3H4C10H6C6FH3Zn2C4O8
_chemical_formula_sum              "N2 C28 H13 F1 Zn2 O8"
_cell_length_a       13.859018345313864
_cell_length_b       9.275150299802176
_cell_length_c       9.275646106892307
_cell_angle_alpha    84.62811981021342
_cell_angle_beta     90.02253309595986
_cell_angle_gamma    89.48388887768701

_space_group_name_H-M_alt    "P 1"
_space_group_IT_number       1

loop_
  _space_group_symop_operation_xyz
  'x, y, z'

loop_
  _atom_site_type_symbol
  _atom_site_label
  _atom_site_symmetry_multiplicity
  _atom_site_fract_x
  _atom_site_fract_y
  _atom_site_fract_z
  _atom_site_occupancy
  N   N1        1.0  0.8985465560771676  0.5961261255825012  0.398896099026937  1.0000
  C   C1        1.0  0.8264474081098836  0.5560146672680606  0.4504434602787424  1.0000
  C   C2        1.0  0.7367602823808919  0.5061213852233961  0.5145615208215284  1.0000
  C   C3        1.0  0.6488354431843056  0.5547614880820029  0.4520542625050546  1.0000
  C   C4        1.0  0.5615299796217738  0.5061210959516549  0.5145613967522116  1.0000
  C   C5        1.0  0.4712075291328811  0.5560145555547653  0.4504433634759961  1.0000
  N   N2        1.0  0.3985976537015571  0.5961260924011345  0.39889603010059016  1.0000
  C   C6        1.0  0.5623319264927197  0.40882621302969474  0.6395944902849653  1.0000
  C   C7        1.0  0.6500730323616486  0.3603733471508775  0.7018612053403888  1.0000
  C   C8        1.0  0.7371972683318286  0.40882650618763366  0.6395946925383948  1.0000
  H   H1        1.0  0.6483559210730335  0.6300703806239727  0.3552752848071856  1.0000
  H   H2        1.0  0.4952802030221225  0.3705414829331017  0.6887935589119429  1.0000
  H   H3        1.0  0.6505515182323828  0.28521734323945536  0.7984438960304834  1.0000
  H   H4        1.0  0.8047364616310264  0.370542008656344  0.6887939817773596  1.0000
  C   C9        1.0  0.1511234014387759  0.17239479032697458  0.4013125444991765  1.0000
  C   C10       1.0  0.20182981135461153  0.2556111486445978  0.29210993199093926  1.0000
  C   C11       1.0  0.24425943416998552  0.19068505435234018  0.17735778590697504  1.0000
  C   C12       1.0  0.2364130893556337  0.04159246958142759  0.17033019245037773  1.0000
  C   C13       1.0  0.1878130115490404  0.9569391868221373  0.27888408580584767  1.0000
  C   C14       1.0  0.14603006456933773  0.019846118856383432  0.39649217209900867  1.0000
  C   C15       1.0  0.294976742469575  0.27767017045190007  0.06565836688584681  1.0000
  C   C16       1.0  0.337439948526149  0.35052218626233445  0.9721426718864309  1.0000
  C   C17       1.0  0.38716239223848053  0.43583679501576916  0.8626398714627923  1.0000
  C   C18       1.0  0.4296174108057669  0.5086831375502021  0.7691421027647918  1.0000
  H   H5        1.0  0.10544501612396372  0.43227475695376794  0.6305246387877299  1.0000
  H   H6        1.0  0.20646656462334834  0.3720357376684639  0.2943398095803762  1.0000
  H   H7        1.0  0.26872857960331187  0.9903940253754944  0.0815361415575584  1.0000
  H   H8        1.0  0.18486010316666948  0.8410055695380475  0.2726523036811619  1.0000
  H   H9        1.0  0.08344506448617772  0.8857187992216382  0.7394429228032338  1.0000
  H   H10       1.0  0.46689645866020074  0.572648408053571  0.68704333942437  1.0000
  C   C19       1.0  0.14843730790827633  0.6006367700421791  0.9750362234391323  1.0000
  C   C20       1.0  0.23669411505282187  0.6157177577037389  0.04701128936477916  1.0000
  C   C21       1.0  0.32383635059715954  0.6172499991192406  0.971556751401133  1.0000
  C   C22       1.0  0.32425306207912374  0.6035833370405816  0.8232582339819423  1.0000
  C   C23       1.0  0.23749378921043404  0.5909082626682395  0.749337523908824  1.0000
  C   C24       1.0  0.14871615076201358  0.5916041869074786  0.8227684844905565  1.0000
  F   F1        1.0  0.4082558150753126  0.6302773615228281  0.04291785980308017  1.0000
  H   H11       1.0  0.9254033986148282  0.4834076971279056  0.0888559515445444  1.0000
  H   H12       1.0  0.3919117056463042  0.6041869760452132  0.7649394343481988  1.0000
  H   H13       1.0  0.9976836829457596  0.5186141986305821  0.5483379121303247  1.0000
  Zn  Zn1       1.0  0.042850525598733924  0.5961221539581685  0.39890444577807815  1.0000
  Zn  Zn2       1.0  0.25429373572395875  0.5961180954326859  0.39889960596226026  1.0000
  C   C25       1.0  0.14869586829264847  0.5875631529484645  0.6625616347527659  1.0000
  C   C26       1.0  0.14845069108763576  0.6046789155253707  0.13524254824924564  1.0000
  C   C27       1.0  0.14698597925178644  0.859721086685252  0.3916514624351448  1.0000
  C   C28       1.0  0.15016051842233757  0.33251924734964466  0.4061528073836256  1.0000
  O   O1        1.0  0.22869681673626996  0.6060276611959732  0.18900745348051218  1.0000
  O   O2        1.0  0.2289302530718662  0.5862102428284501  0.6087926469000924  1.0000
  O   O3        1.0  0.22754841484551291  0.8059812002568353  0.39003075750982075  1.0000
  O   O4        1.0  0.2300785827137377  0.3862567152442935  0.4077692345882682  1.0000
  O   O5        1.0  0.0670656064537527  0.8059835341495976  0.39003481714612076  1.0000
  O   O6        1.0  0.06844743423106436  0.5862143111631873  0.608796619713684  1.0000
  O   O7        1.0  0.06821399769095393  0.6060316977383731  0.18900969118731403  1.0000
  O   O8        1.0  0.06959576376210519  0.3862607403130245  0.40777158057163665  1.0000
