data_image0
_chemical_formula_structural       NC6NC3H6C10H5C6SCH7Zn2C4O8
_chemical_formula_sum              "N2 C30 H18 S1 Zn2 O8"
_cell_length_a       14.934028789175542
_cell_length_b       9.275150299802176
_cell_length_c       9.275274088470228
_cell_angle_alpha    85.77620997522486
_cell_angle_beta     89.70124822598929
_cell_angle_gamma    89.44625895822752

_space_group_name_H-M_alt    "P 1"
_space_group_IT_number       1

loop_
  _space_group_symop_operation_xyz
  'x, y, z'

loop_
  _atom_site_type_symbol
  _atom_site_label
  _atom_site_symmetry_multiplicity
  _atom_site_fract_x
  _atom_site_fract_y
  _atom_site_fract_z
  _atom_site_occupancy
  N   N1        1.0  0.8391951767944027  0.5630305807410535  0.4009942264339499  1.0000
  C   C1        1.0  0.7617172857567446  0.5619254794919827  0.40032182113753145  1.0000
  C   C2        1.0  0.6653309209176648  0.5605456542927871  0.39948244996672555  1.0000
  C   C3        1.0  0.616776460519074  0.6680063462497726  0.4647462650693545  1.0000
  C   C4        1.0  0.5232729000039974  0.666898452351266  0.46407328185686536  1.0000
  C   C5        1.0  0.4774108461083225  0.5583847085638871  0.3981699899419403  1.0000
  C   C6        1.0  0.38074791727471896  0.5607129928069576  0.3995853057577583  1.0000
  N   N2        1.0  0.3032541773037021  0.5625607830139314  0.40070886554104357  1.0000
  C   C7        1.0  0.5259706931890489  0.4494373161683342  0.33200270949073984  1.0000
  C   C8        1.0  0.4785238368921473  0.3314603319758953  0.26035336253263264  1.0000
  C   C9        1.0  0.6200969912067393  0.4516757085370626  0.33336219842585657  1.0000
  H   H1        1.0  0.6511967927774513  0.7526754090842294  0.5161686867297111  1.0000
  H   H2        1.0  0.48661809276037615  0.7509154392662174  0.515099536657279  1.0000
  H   H3        1.0  0.435768339272208  0.37971108968405676  0.17149543773602494  1.0000
  H   H4        1.0  0.43588753806409625  0.26934703280684524  0.3407988151869188  1.0000
  H   H5        1.0  0.5265458134408132  0.2550448706322468  0.2139377459918823  1.0000
  H   H6        1.0  0.6582366211372669  0.3687764007072991  0.2830150301480385  1.0000
  C   C10       1.0  0.07358433168621925  0.13911065332027817  0.4032626023761261  1.0000
  C   C11       1.0  0.1210041173741223  0.22007968141034007  0.29420912826072576  1.0000
  C   C12       1.0  0.16076130218595674  0.15280224625924155  0.17961989303943013  1.0000
  C   C13       1.0  0.1535030757586855  0.0035754735514961235  0.1726082366526327  1.0000
  C   C14       1.0  0.10804017201886412  0.9211544750371956  0.28101284751480327  1.0000
  C   C15       1.0  0.06887362250048934  0.9864696684161344  0.39845299683870905  1.0000
  C   C16       1.0  0.20819950276996316  0.23748972805477542  0.06807367765516315  1.0000
  C   C17       1.0  0.24791725039961354  0.3084181429497366  0.9746862447488697  1.0000
  C   C18       1.0  0.2944248905707121  0.3914802990350019  0.865333633710207  1.0000
  C   C19       1.0  0.33413498042161394  0.4624034094394429  0.7719641025455446  1.0000
  H   H7        1.0  0.12529971877681945  0.3365448317492039  0.2964327237674016  1.0000
  H   H8        1.0  0.18378780934184183  0.9505580703919346  0.08394053905660837  1.0000
  H   H9        1.0  0.10532052267233431  0.80509810322796  0.274792912391103  1.0000
  H   H10       1.0  0.009653104153083398  0.8593092886076236  0.7408802218264032  1.0000
  H   H11       1.0  0.3690037516278404  0.5246799232509576  0.6899779423311709  1.0000
  C   C20       1.0  0.07250878281319406  0.5587685588318403  0.9776829293418031  1.0000
  C   C21       1.0  0.14848131744775905  0.6094762722529861  0.04669612418926316  1.0000
  C   C22       1.0  0.21941654347609263  0.6716836779473314  0.9662347247638626  1.0000
  C   C23       1.0  0.21556767214688266  0.6833205382654685  0.8156108968659073  1.0000
  C   C24       1.0  0.1415146739692312  0.6315187641703566  0.74509981217372  1.0000
  C   C25       1.0  0.0699492029580131  0.5668118171055587  0.8240326607578874  1.0000
  S   S1        1.0  0.31522384571987083  0.7370016895973965  0.05649263827143968  1.0000
  C   C26       1.0  0.2681943167721883  0.9176383687242139  0.06722807815039777  1.0000
  H   H12       1.0  0.8560024864808885  0.4996229349002661  0.08685794301773542  1.0000
  H   H13       1.0  0.27032110587190905  0.7316062519319511  0.7528048015816577  1.0000
  H   H14       1.0  0.14121000390024616  0.6389941165724295  0.6279980819420099  1.0000
  H   H15       1.0  0.9252844808704087  0.5211033109443546  0.5474672540373184  1.0000
  H   H16       1.0  0.2551138640227406  0.9680717109140972  0.9569876724143653  1.0000
  H   H17       1.0  0.20491928181392594  0.9122827418786222  0.1306633379286979  1.0000
  H   H18       1.0  0.31673803370413034  0.9849074750410265  0.12181521529197137  1.0000
  Zn  Zn1       1.0  0.9731125899742548  0.5628912200516429  0.4009202147237476  1.0000
  Zn  Zn2       1.0  0.16933682426063937  0.5626884371466141  0.40079472596991583  1.0000
  C   C27       1.0  0.07046296949949421  0.5595437063481925  0.6640870672766481  1.0000
  C   C28       1.0  0.07198857694991312  0.5660377704183199  0.1376280031532926  1.0000
  C   C29       1.0  0.06977682710373576  0.8262462305674951  0.39361963528815597  1.0000
  C   C30       1.0  0.07267466179228639  0.29933351356681803  0.4080955218521858  1.0000
  O   O1        1.0  0.14628010038271805  0.5683941347721511  0.19125944443967646  1.0000
  O   O2        1.0  0.1451011068757464  0.5570323420881214  0.6103599742803305  1.0000
  O   O3        1.0  0.14454602984382958  0.7723980185864189  0.39195560147457525  1.0000
  O   O4        1.0  0.1468351107259862  0.35302846763726575  0.4096637091807167  1.0000
  O   O5        1.0  0.9956142365472214  0.7725511896316903  0.392051231548181  1.0000
  O   O6        1.0  0.9961693041708363  0.5571872458362906  0.6104555176787696  1.0000
  O   O7        1.0  0.997348303256592  0.5685489717774566  0.19135325556082594  1.0000
  O   O8        1.0  0.9979033133268218  0.3531832953498582  0.40975762840181607  1.0000
