data_image0
_chemical_formula_structural       NC9NC5H8C7ONH7C6NO2H3Zn2C4O8
_chemical_formula_sum              "N4 C31 H18 O11 Zn2"
_cell_length_a       17.807436237873137
_cell_length_b       10.297852080636378
_cell_length_c       9.273395971720355
_cell_angle_alpha    84.96325203877277
_cell_angle_beta     89.26497821809997
_cell_angle_gamma    88.36921327777658

_space_group_name_H-M_alt    "P 1"
_space_group_IT_number       1

loop_
  _space_group_symop_operation_xyz
  'x, y, z'

loop_
  _atom_site_type_symbol
  _atom_site_label
  _atom_site_symmetry_multiplicity
  _atom_site_fract_x
  _atom_site_fract_y
  _atom_site_fract_z
  _atom_site_occupancy
  N   N1        1.0  0.7087348110577854  0.403045288847971  0.39604690128068704  1.0000
  C   C1        1.0  0.6481670187702177  0.3679638072060905  0.3837923728019055  1.0000
  C   C2        1.0  0.5728273421425828  0.32432630759608294  0.36854906995672443  1.0000
  C   C3        1.0  0.5548684868095725  0.2539916664676829  0.2518240539846972  1.0000
  C   C4        1.0  0.48171766380250036  0.21151236243320268  0.2369319367214737  1.0000
  C   C5        1.0  0.42547709330817945  0.23899043722579982  0.33872876179454714  1.0000
  C   C6        1.0  0.3477365093646867  0.19395996040459254  0.32299353451826707  1.0000
  C   C7        1.0  0.2855139344775137  0.2754612357392121  0.35182803581911504  1.0000
  C   C8        1.0  0.21222083397077135  0.23277871308454332  0.33695112747411504  1.0000
  C   C9        1.0  0.148947196283021  0.31696805367753655  0.36619015104091934  1.0000
  N   N2        1.0  0.09808818191625837  0.38465044757152  0.38969751841064415  1.0000
  C   C10       1.0  0.200566846101768  0.10833715090060347  0.29321153866069416  1.0000
  C   C11       1.0  0.2619320634704537  0.026822108068990103  0.26436771108204815  1.0000
  C   C12       1.0  0.3351060416500052  0.06911212560908297  0.2790194709004725  1.0000
  C   C13       1.0  0.44412700378845177  0.3098172536328847  0.45569748070089267  1.0000
  C   C14       1.0  0.517330912401923  0.3521077490045817  0.47041657104729007  1.0000
  H   H1        1.0  0.5973484152492076  0.23224924623298815  0.17210545869879113  1.0000
  H   H2        1.0  0.46890922373108324  0.15868380198020304  0.14475450423494896  1.0000
  H   H3        1.0  0.2939585851403286  0.3726435479210041  0.38392862021205176  1.0000
  H   H4        1.0  0.1441208364472296  0.07440509980452226  0.28143394417695755  1.0000
  H   H5        1.0  0.252790239595206  0.9304725530928911  0.23093270152728038  1.0000
  H   H6        1.0  0.3817820192125446  0.003553217722081833  0.2578447001825146  1.0000
  H   H7        1.0  0.4023626198100145  0.3310070393251785  0.536855091292094  1.0000
  H   H8        1.0  0.5306686115244893  0.40616797373096025  0.5614360883456603  1.0000
  C   C15       1.0  0.9034951644008743  0.012406703980544663  0.39287948544838924  1.0000
  C   C16       1.0  0.8933649667317551  0.023842686775143104  0.24223335115095065  1.0000
  C   C17       1.0  0.8875646584993404  0.9125787459004675  0.16597739691456992  1.0000
  C   C18       1.0  0.8931750850181527  0.788599917341056  0.2421866449668317  1.0000
  C   C19       1.0  0.9033349653699402  0.7752786145852668  0.39287729793424586  1.0000
  C   C20       1.0  0.9082507009502041  0.8877218254531722  0.4672762081690509  1.0000
  C   C21       1.0  0.8770515021689417  0.9272494649803166  0.006842495110119803  1.0000
  O   O1        1.0  0.8971955900531378  0.030079471986342643  0.9346252730039546  1.0000
  N   N3        1.0  0.8435614985630042  0.8277240509143161  0.9328544948950718  1.0000
  H   H9        1.0  0.9229133993382354  0.19805401218143498  0.6775197323687391  1.0000
  H   H10       1.0  0.8893077628291038  0.11970921733277719  0.18410743161161777  1.0000
  H   H11       1.0  0.8911082258024635  0.702042840992082  0.18432032039883303  1.0000
  H   H12       1.0  0.9160562961053803  0.8781545108001428  0.5833810862462382  1.0000
  H   H13       1.0  0.9237410934906222  0.5427913303852169  0.6773698868121301  1.0000
  H   H14       1.0  0.8398898847899179  0.8380309369736616  0.8201202762188085  1.0000
  H   H15       1.0  0.8178487756548395  0.7482804764996924  0.9887446918261279  1.0000
  C   C22       1.0  0.9038417752507324  0.3978128487931998  0.9689347208163571  1.0000
  C   C23       1.0  0.8368745981585456  0.4306241935046598  0.04061329392433466  1.0000
  C   C24       1.0  0.7696997080786461  0.4511633388897369  0.9652792081712875  1.0000
  C   C25       1.0  0.7675862874869555  0.43932997055574835  0.8160191090067783  1.0000
  C   C26       1.0  0.8345128495662598  0.4087462203407925  0.7429035063948367  1.0000
  C   C27       1.0  0.9029883624760027  0.38987246397221514  0.8168221365990872  1.0000
  N   N4        1.0  0.6979359168426928  0.4595531971167192  0.7390173100549906  1.0000
  O   O2        1.0  0.6326406098600256  0.4905530732093439  0.8108565240340728  1.0000
  O   O3        1.0  0.6955455426854088  0.44896159840304267  0.6060608154661575  1.0000
  H   H16       1.0  0.06826683020275026  0.24452842121194696  0.08267624175968491  1.0000
  H   H17       1.0  0.7191337452608464  0.47509064268512535  0.02448665434252928  1.0000
  H   H18       1.0  0.015095885680809662  0.2904038129190991  0.5435452725601979  1.0000
  Zn  Zn1       1.0  0.8210937745230926  0.39773339087531295  0.3942229558210272  1.0000
  Zn  Zn2       1.0  0.9857291905312611  0.38995164622320244  0.3915333324140388  1.0000
  C   C28       1.0  0.9031491012534306  0.38619879255245665  0.6565532826377576  1.0000
  C   C29       1.0  0.9036756611278235  0.4014877971717558  0.12920311791850514  1.0000
  C   C30       1.0  0.9033671922416124  0.6311336405015449  0.387124905077713  1.0000
  C   C31       1.0  0.9034575142112736  0.15655139055995093  0.39863157336890476  1.0000
  O   O4        1.0  0.9660981952709153  0.39976234506655484  0.18196995800587956  1.0000
  O   O5        1.0  0.9656810390803413  0.38201710450834714  0.6017446650398844  1.0000
  O   O6        1.0  0.9658563065634245  0.5798051176028309  0.3841793576655925  1.0000
  O   O7        1.0  0.9659228717159142  0.20197434493313676  0.39953515805267403  1.0000
  O   O8        1.0  0.8409000371564592  0.5857106948223918  0.38622113109263456  1.0000
  O   O9        1.0  0.8407247694197644  0.38792424304763823  0.6037863614868141  1.0000
  O   O10       1.0  0.8411419274167897  0.40566945459372755  0.18400991874175432  1.0000
  O   O11       1.0  0.8409666037517264  0.20788144415625687  0.4015752270262889  1.0000
