data_image0
_chemical_formula_structural       NC12NC2H8C7OC3FC3H9C6SCOC6H10Zn2C4O8
_chemical_formula_sum              "N2 C44 H27 O10 F1 S1 Zn2"
_cell_length_a       19.240039667572717
_cell_length_b       10.299378350833068
_cell_length_c       10.302041481415108
_cell_angle_alpha    85.53259314287666
_cell_angle_beta     89.99620935601246
_cell_angle_gamma    90.01886762376958

_space_group_name_H-M_alt    "P 1"
_space_group_IT_number       1

loop_
  _space_group_symop_operation_xyz
  'x, y, z'

loop_
  _atom_site_type_symbol
  _atom_site_label
  _atom_site_symmetry_multiplicity
  _atom_site_fract_x
  _atom_site_fract_y
  _atom_site_fract_z
  _atom_site_occupancy
  N   N1        1.0  0.654778501004738  0.4218316576998462  0.5675959558707192  1.0000
  C   C1        1.0  0.594630132205169  0.4218317417131093  0.5675958739417879  1.0000
  C   C2        1.0  0.519812095089553  0.4218318590514806  0.5675957366532154  1.0000
  C   C3        1.0  0.48332334824805995  0.3573278551763764  0.670992838626322  1.0000
  C   C4        1.0  0.41065257753039197  0.35721693915981184  0.671079374865648  1.0000
  C   C5        1.0  0.3734798601766167  0.42183195169983145  0.5675955090099718  1.0000
  C   C6        1.0  0.4106828212361181  0.4864471511661169  0.46411183763182956  1.0000
  C   C7        1.0  0.483353487036311  0.4863359995976417  0.4641984963721099  1.0000
  C   C8        1.0  0.2962747697265068  0.42183187306867564  0.5675954136238605  1.0000
  C   C9        1.0  0.2590655085757668  0.30855180183774805  0.60946981525947  1.0000
  C   C10       1.0  0.18639484227679756  0.30865873833682256  0.6093784975097342  1.0000
  C   C11       1.0  0.1499424827783771  0.42183174386920985  0.5675954745354985  1.0000
  C   C12       1.0  0.075124445594552  0.4218316300348846  0.5675957231554978  1.0000
  N   N2        1.0  0.0149761287278625  0.42183158913692  0.5675959315345432  1.0000
  C   C13       1.0  0.1864376341518134  0.5350048252508032  0.5258123986734036  1.0000
  C   C14       1.0  0.2591083524923806  0.5351119419350086  0.5257209183439339  1.0000
  H   H1        1.0  0.511026551328531  0.307387215937393  0.751722311234039  1.0000
  H   H2        1.0  0.38354770900870017  0.3080740284953165  0.7529240248063735  1.0000
  H   H3        1.0  0.3836011589762546  0.5355900889019092  0.38226713685059566  1.0000
  H   H4        1.0  0.5110800553914631  0.5362765384736972  0.3834692995116571  1.0000
  H   H5        1.0  0.2861419604071473  0.21938184848081033  0.6406406920855794  1.0000
  H   H6        1.0  0.15866329882383617  0.2203876415196935  0.6415820180771641  1.0000
  H   H7        1.0  0.15873935415214319  0.6232758975249812  0.4936088926560202  1.0000
  H   H8        1.0  0.2862183794937563  0.6242819744874673  0.49454999674707323  1.0000
  C   C15       1.0  0.8348073936565082  0.040446642919540025  0.5676599284887931  1.0000
  C   C16       1.0  0.7622921938447913  0.04045995681688708  0.5516385969170725  1.0000
  C   C17       1.0  0.7256292349312485  0.9231783390841374  0.5450349137464777  1.0000
  C   C18       1.0  0.7624621399348632  0.8052159514547914  0.5516454706612571  1.0000
  C   C19       1.0  0.8349538940401341  0.8032066572146094  0.5675431598642688  1.0000
  C   C20       1.0  0.8706856216969682  0.921341951082496  0.5758002604099384  1.0000
  C   C21       1.0  0.6491441185761689  0.9231552575502739  0.5267445893683719  1.0000
  O   O1        1.0  0.6223007865498462  0.8384883691420979  0.4600979098549948  1.0000
  C   C22       1.0  0.6031111615527158  0.019082589140486446  0.5840711982982455  1.0000
  C   C23       1.0  0.5412014380834245  0.059103244604527205  0.5203040588720745  1.0000
  C   C24       1.0  0.4970493360747125  0.1483410456930239  0.574353352549542  1.0000
  F   F1        1.0  0.437749116009491  0.1870534003703715  0.5116473449448384  1.0000
  C   C25       1.0  0.513961647523914  0.19759594591836915  0.6929329511990461  1.0000
  C   C26       1.0  0.5748735349018125  0.15732251386303808  0.7579143928767935  1.0000
  C   C27       1.0  0.6191693353494199  0.06815617784020203  0.7042697244106513  1.0000
  H   H9        1.0  0.9717735196384606  0.247896925145499  0.5958984135317087  1.0000
  H   H10       1.0  0.734327444116044  0.13197450562987403  0.5428273596637683  1.0000
  H   H11       1.0  0.7343256028766968  0.7147495038006164  0.5455944656736876  1.0000
  H   H12       1.0  0.9265894518783956  0.9205276839886105  0.5881507745073412  1.0000
  H   H13       1.0  0.8628673656057281  0.4750633360994443  0.5725544960164577  1.0000
  H   H14       1.0  0.5273569586522181  0.022133924143405988  0.42816548233766094  1.0000
  H   H15       1.0  0.4797640125368384  0.2665691839169533  0.7348029405264738  1.0000
  H   H16       1.0  0.5876435106763602  0.19477892223196736  0.8502664939957403  1.0000
  H   H17       1.0  0.665486714091001  0.03657550316196412  0.7574104654500129  1.0000
  C   C28       1.0  0.8348937063941375  0.4219559116407954  0.18631449137943434  1.0000
  C   C29       1.0  0.8667804084611943  0.5450593211601378  0.1753826666275095  1.0000
  C   C30       1.0  0.882955297510189  0.6057878908815704  0.052988055586063565  1.0000
  C   C31       1.0  0.8668462940779019  0.5446554422103991  0.940277316517049  1.0000
  C   C32       1.0  0.834867615657558  0.42169734230657446  0.9488886218778445  1.0000
  C   C33       1.0  0.819108131028647  0.3609302155186649  0.07247666528751395  1.0000
  S   S1        1.0  0.9243101397148741  0.7623271423780944  0.04044155035459762  1.0000
  C   C34       1.0  0.00991356876182547  0.6925235922775215  0.04302063496601116  1.0000
  O   O2        1.0  0.037109149085454034  0.669349891787807  0.9359639127731887  1.0000
  C   C35       1.0  0.04821659822842105  0.6611796298062163  0.16654993594966602  1.0000
  C   C36       1.0  0.10985867676281913  0.587453257563964  0.16675348558989045  1.0000
  C   C37       1.0  0.14607771359071986  0.5565552496180466  0.2827102842083178  1.0000
  C   C38       1.0  0.1213923427576564  0.5989044970132531  0.3996413765674153  1.0000
  C   C39       1.0  0.06049723419338692  0.672472051890826  0.400818117914812  1.0000
  C   C40       1.0  0.024070816908293047  0.7037442097325317  0.28516066803466433  1.0000
  H   H18       1.0  0.7746887145465324  0.19004062981016157  0.4142274150668203  1.0000
  H   H19       1.0  0.8792753364848335  0.5939890845720518  0.2616895077962129  1.0000
  H   H20       1.0  0.8796357498766467  0.5932536618309807  0.8462985082485084  1.0000
  H   H21       1.0  0.7945273699591667  0.2660260417388156  0.07998376828715335  1.0000
  H   H22       1.0  0.8228990715117113  0.3747788015352782  0.6248365417009891  1.0000
  H   H23       1.0  0.12992845451216173  0.5529939536054558  0.07744010560570257  1.0000
  H   H24       1.0  0.1933115090067139  0.49956844985629123  0.28187198426897897  1.0000
  H   H25       1.0  0.14949279324213327  0.5748523400735657  0.4893071231845389  1.0000
  H   H26       1.0  0.04150642010506922  0.7055442614758465  0.49148574813516704  1.0000
  H   H27       1.0  0.9773646433942008  0.7616731046113203  0.28922608217325885  1.0000
  Zn  Zn1       1.0  0.7587237639177407  0.42182816802740075  0.5676034361970321  1.0000
  Zn  Zn2       1.0  0.9110308821881701  0.4218244812899996  0.5675990494547614  1.0000
  C   C41       1.0  0.8348699848834493  0.4165723368307713  0.8047465494133198  1.0000
  C   C42       1.0  0.8348863247218585  0.4270819510917966  0.3304560633787852  1.0000
  C   C43       1.0  0.8349228128016605  0.6590305109097602  0.5623911660818468  1.0000
  C   C44       1.0  0.8348334445297819  0.18462221662226536  0.572811516174406  1.0000
  O   O3        1.0  0.8926836039052777  0.4287952316807014  0.3788296278128893  1.0000
  O   O4        1.0  0.8926702841450636  0.4148552784564215  0.756369281927546  1.0000
  O   O5        1.0  0.8927121641425105  0.6106433198884336  0.5606655949985364  1.0000
  O   O6        1.0  0.8926416719408465  0.23300719957356833  0.5745332173882083  1.0000
  O   O7        1.0  0.7771129221901204  0.6106454497465064  0.5606692682582528  1.0000
  O   O8        1.0  0.7770710424915949  0.4148589687077109  0.7563728857177812  1.0000
  O   O9        1.0  0.7770843623427947  0.4287988772033937  0.3788316705445373  1.0000
  O   O10       1.0  0.7770424303704037  0.2330108357740557  0.5745353574682142  1.0000
