data_image0
_chemical_formula_structural       NC8NH4C10H6C6IH3Zn2C4O8
_chemical_formula_sum              "N2 C28 H13 I1 Zn2 O8"
_cell_length_a       13.859017981522156
_cell_length_b       9.275150299802176
_cell_length_c       9.275433903346869
_cell_angle_alpha    85.8435202653109
_cell_angle_beta     89.965620414742
_cell_angle_gamma    89.4839203727508

_space_group_name_H-M_alt    "P 1"
_space_group_IT_number       1

loop_
  _space_group_symop_operation_xyz
  'x, y, z'

loop_
  _atom_site_type_symbol
  _atom_site_label
  _atom_site_symmetry_multiplicity
  _atom_site_fract_x
  _atom_site_fract_y
  _atom_site_fract_z
  _atom_site_occupancy
  N   N1        1.0  0.8998151968688547  0.5620570768712383  0.401688878367245  1.0000
  C   C1        1.0  0.8275315440937601  0.5543710072583186  0.3404395004044696  1.0000
  C   C2        1.0  0.7376149433243151  0.5448109144784298  0.26425324191758204  1.0000
  C   C3        1.0  0.7376045254110151  0.5261678273836314  0.11568630278225145  1.0000
  C   C4        1.0  0.6502575585695252  0.5168845974946701  0.04169964968967332  1.0000
  C   C5        1.0  0.5627392391906434  0.5261695479073436  0.11568604481662591  1.0000
  C   C6        1.0  0.5623847006521214  0.5448118862500639  0.2642530526826883  1.0000
  C   C7        1.0  0.6499138772683127  0.5541313652921896  0.3385253908453736  1.0000
  C   C8        1.0  0.4722917219895459  0.5543719088825234  0.3404392549512829  1.0000
  N   N2        1.0  0.3998662793567348  0.5620573895067096  0.40168878302335354  1.0000
  H   H1        1.0  0.8049677038461371  0.518831647501348  0.05722678124463565  1.0000
  H   H2        1.0  0.6503904173855233  0.5024838739138013  0.9269380803564591  1.0000
  H   H3        1.0  0.4955114156373929  0.5188347422330366  0.05722634389394909  1.0000
  H   H4        1.0  0.6497807417749204  0.5685611410643747  0.45352027933283584  1.0000
  C   C9        1.0  0.15239013295761272  0.1383773711245022  0.4041010722115572  1.0000
  C   C10       1.0  0.20318306975534428  0.21927005562425284  0.29508894156104026  1.0000
  C   C11       1.0  0.24570361640418867  0.15190219242898806  0.18053695894003097  1.0000
  C   C12       1.0  0.23786283967930721  0.0026600613813361194  0.17352162530194915  1.0000
  C   C13       1.0  0.18917674904301568  0.920316650135207  0.2818861680983633  1.0000
  C   C14       1.0  0.1473006153626056  0.9857261229949085  0.3992891090340227  1.0000
  C   C15       1.0  0.29650942991024687  0.23651050532013151  0.06903237711610366  1.0000
  C   C16       1.0  0.33904673327164025  0.30737264145481746  0.9756798014599344  1.0000
  C   C17       1.0  0.3888559416963701  0.3903571878907859  0.8663680066732683  1.0000
  C   C18       1.0  0.4313850433645427  0.4612140321953782  0.7730333260496902  1.0000
  H   H5        1.0  0.10653013233074482  0.4031346904884968  0.6329133436171126  1.0000
  H   H6        1.0  0.207818056297431  0.3357420979398962  0.29731492876137344  1.0000
  H   H7        1.0  0.27024868585941  0.9495722006467476  0.08488245894831992  1.0000
  H   H8        1.0  0.18622877829967155  0.8042504246677428  0.275665256900536  1.0000
  H   H9        1.0  0.08444387970767497  0.8588963802444713  0.7416416376029706  1.0000
  H   H10       1.0  0.4687291423004297  0.5234323589308936  0.6910777675088222  1.0000
  C   C19       1.0  0.15004179594731884  0.557548639726143  0.9785683328908478  1.0000
  C   C20       1.0  0.2389404475085109  0.5548476827371969  0.05203851552562977  1.0000
  C   C21       1.0  0.32580133736859107  0.5654417406743693  0.9758595915956888  1.0000
  C   C22       1.0  0.32515392164397716  0.5790735932286115  0.8252365348227371  1.0000
  C   C23       1.0  0.23790321316990504  0.5795937435745595  0.7502582148350414  1.0000
  C   C24       1.0  0.14964897249801057  0.5665548363175208  0.8248218115505495  1.0000
  I   I1        1.0  0.45797948343229195  0.5635265476056182  0.08865482966249782  1.0000
  H   H11       1.0  0.9195189238984268  0.6430230948747743  0.07557260130069365  1.0000
  H   H12       1.0  0.3923964220235705  0.5878931814986257  0.7659755019533918  1.0000
  H   H13       1.0  0.9940021627539265  0.6180343494508983  0.540053977627033  1.0000
  Zn  Zn1       1.0  0.04411916284957962  0.562053402896769  0.4016971897246937  1.0000
  Zn  Zn2       1.0  0.25556238131181663  0.5620494172750097  0.4016923278241229  1.0000
  C   C25       1.0  0.14975560116706782  0.5591048358230943  0.664894449134098  1.0000
  C   C26       1.0  0.14992824094796453  0.5649998062266863  0.1384951994470911  1.0000
  C   C27       1.0  0.14826036556235578  0.8254980864414247  0.3944568431950344  1.0000
  C   C28       1.0  0.15142341477772653  0.298604823016735  0.40893289205148275  1.0000
  O   O1        1.0  0.23013176811970973  0.5674926789210537  0.19216630749196173  1.0000
  O   O2        1.0  0.23003259107509  0.5566078453018087  0.6112192424199947  1.0000
  O   O3        1.0  0.22882408702385545  0.7717237801439712  0.392838953738895  1.0000
  O   O4        1.0  0.23134020000785438  0.35237675325139867  0.4105464880794414  1.0000
  O   O5        1.0  0.06834127199834297  0.7717260669232306  0.3928430294634466  1.0000
  O   O6        1.0  0.06954976566932869  0.5566118646755382  0.61122323147329  1.0000
  O   O7        1.0  0.06964894388423226  0.5674966295812103  0.19216856446512698  1.0000
  O   O8        1.0  0.07085737578026775  0.3523806947418968  0.4105488531402983  1.0000
