data_image0
_chemical_formula_structural       NC14NH8C6H6C12H10Zn2C4O8
_chemical_formula_sum              "N2 C36 H24 Zn2 O8"
_cell_length_a       19.240038476842887
_cell_length_b       10.681118228259551
_cell_length_c       13.024585202197207
_cell_angle_alpha    85.80459198147678
_cell_angle_beta     93.9928008550644
_cell_angle_gamma    89.99835611124642

_space_group_name_H-M_alt    "P 1"
_space_group_IT_number       1

loop_
  _space_group_symop_operation_xyz
  'x, y, z'

loop_
  _atom_site_type_symbol
  _atom_site_label
  _atom_site_symmetry_multiplicity
  _atom_site_fract_x
  _atom_site_fract_y
  _atom_site_fract_z
  _atom_site_occupancy
  N   N1        1.0  0.6009454710876587  0.36488657851180756  0.8648087919303906  1.0000
  C   C1        1.0  0.5407968564071457  0.3648890946661976  0.8648036512969381  1.0000
  C   C2        1.0  0.46597856093224527  0.3648924200433439  0.8647971617993326  1.0000
  C   C3        1.0  0.4292110015526376  0.25235641926010954  0.8585461651873278  1.0000
  C   C4        1.0  0.35653794007327955  0.2522455992048602  0.8584959524825839  1.0000
  C   C5        1.0  0.319645843023997  0.3648979994167049  0.8647893076360595  1.0000
  C   C6        1.0  0.3571296373955499  0.4775481277465815  0.8710848807977034  1.0000
  C   C7        1.0  0.42979835013025586  0.4774316477318328  0.8710427487157599  1.0000
  C   C8        1.0  0.24244087068752282  0.36489980836495994  0.8647897097164736  1.0000
  C   C9        1.0  0.2083347997378599  0.4402053042651188  0.930175070866599  1.0000
  C   C10       1.0  0.1356623851352803  0.44008624529674634  0.930137487875185  1.0000
  C   C11       1.0  0.0961089439201277  0.36489521666879376  0.864797547984976  1.0000
  C   C12       1.0  0.12950277896326573  0.2897078381883873  0.7994525318448777  1.0000
  C   C13       1.0  0.20217132588894043  0.2895937157047892  0.7994068796563805  1.0000
  C   C14       1.0  0.0212912955831222  0.36489067706739786  0.8648036937721744  1.0000
  N   N2        1.0  0.9611431644451118  0.3648870897582328  0.8648088187473457  1.0000
  H   H1        1.0  0.45671092275307984  0.16463332127261124  0.8539740695257496  1.0000
  H   H2        1.0  0.3292772150892683  0.16382034328337472  0.8549302444068194  1.0000
  H   H3        1.0  0.330203610503564  0.5659754607705967  0.8746481732998845  1.0000
  H   H4        1.0  0.4577283467349062  0.5651524293783878  0.87561898165166  1.0000
  H   H5        1.0  0.23788682463976374  0.49791541947905404  0.982339706778462  1.0000
  H   H6        1.0  0.11035681388672441  0.4983919446147919  0.9812546827306234  1.0000
  H   H7        1.0  0.0993786550847233  0.2313992547681367  0.7483392374231332  1.0000
  H   H8        1.0  0.22680589217433328  0.23188455327256308  0.7472401444939016  1.0000
  C   C15       1.0  0.781047852321924  0.9971368545748515  0.8648132336350209  1.0000
  C   C16       1.0  0.8154118536154004  0.9230301073396578  0.9465452608992311  1.0000
  C   C17       1.0  0.8154118407712966  0.7921478689298426  0.9465452138466961  1.0000
  C   C18       1.0  0.7810478427498238  0.7326272587529136  0.8648132781240682  1.0000
  C   C19       1.0  0.746712282584166  0.8067229421425843  0.7831487920890172  1.0000
  C   C20       1.0  0.7467122951444402  0.9376152004491759  0.7831488338586063  1.0000
  H   H9        1.0  0.7462963776401192  0.30322187155575997  0.782160450278961  1.0000
  H   H10       1.0  0.8423480188299539  0.9661243761047672  0.010610649331919688  1.0000
  H   H11       1.0  0.8423479325204886  0.7376203474184896  0.010610631152635499  1.0000
  H   H12       1.0  0.7197726047151689  0.7636741748243964  0.7190750386955994  1.0000
  H   H13       1.0  0.7197725861023078  0.9920986138166462  0.7190750303272566  1.0000
  H   H14       1.0  0.7462966204096654  0.4412925192820916  0.7821601718827411  1.0000
  C   C21       1.0  0.7668017611166065  0.36337901996908983  0.5625943710834509  1.0000
  C   C22       1.0  0.7514366168477943  0.46345033651809303  0.4881645852304104  1.0000
  C   C23       1.0  0.7751834180505519  0.4615330592321929  0.3892844877735415  1.0000
  C   C24       1.0  0.8142384690952209  0.35920882323156333  0.3628372431800835  1.0000
  C   C25       1.0  0.83026383185481  0.2598500546381677  0.43719384316291243  1.0000
  C   C26       1.0  0.806552020902189  0.26166223682136036  0.5361172043036988  1.0000
  C   C27       1.0  0.8403762660246653  0.3580530700173323  0.258637174025272  1.0000
  C   C28       1.0  0.9128636188919077  0.35397031582361443  0.25095496779092086  1.0000
  C   C29       1.0  0.9408031952577687  0.3606111190428374  0.1547306418682219  1.0000
  C   C30       1.0  0.8968425807506971  0.3716787033329275  0.06488205234190514  1.0000
  C   C31       1.0  0.8247123407752809  0.37459056749172226  0.07082163354132298  1.0000
  C   C32       1.0  0.795293897969093  0.36638507063498255  0.16703210827481874  1.0000
  H   H15       1.0  0.7404356496093377  0.26559509046041474  0.8125367855270322  1.0000
  H   H16       1.0  0.7211924127980666  0.5433921681966063  0.5063473732453332  1.0000
  H   H17       1.0  0.7632182340520192  0.5399313961587964  0.33328708119509454  1.0000
  H   H18       1.0  0.860799432873926  0.1805552991775976  0.4183296938674146  1.0000
  H   H19       1.0  0.8194156271393963  0.1833968792727303  0.5917964645183795  1.0000
  H   H20       1.0  0.9479764319176256  0.34785960167237606  0.31990181990699695  1.0000
  H   H21       1.0  0.9967111241356317  0.35812697782275604  0.14984944908859088  1.0000
  H   H22       1.0  0.9186782487171595  0.37720111101726633  0.9903151083478319  1.0000
  H   H23       1.0  0.7918012380108033  0.380970392693867  0.9996888026071908  1.0000
  H   H24       1.0  0.6241869441927954  0.41003018782690903  0.08249756997703073  1.0000
  Zn  Zn1       1.0  0.7048910218356383  0.36488340711859  0.864814742052771  1.0000
  Zn  Zn2       1.0  0.8571979876429511  0.36488007022752383  0.8648112959465859  1.0000
  C   C33       1.0  0.7899067448323285  0.36082793226452536  0.052780458646432216  1.0000
  C   C34       1.0  0.7721839325950776  0.3689371256509952  0.6768456803272092  1.0000
  C   C35       1.0  0.7808509409976561  0.593583494994749  0.8607121625090454  1.0000
  C   C36       1.0  0.7812396870444825  0.13618005861155916  0.8689140313343948  1.0000
  O   O1        1.0  0.8317899382795823  0.3707957469446401  0.7151881556283499  1.0000
  O   O2        1.0  0.8458981880872367  0.35896583213838107  0.014435071573061115  1.0000
  O   O3        1.0  0.8385847832405048  0.5469188979779678  0.8593385635447676  1.0000
  O   O4        1.0  0.8391032875168212  0.18284268968088946  0.8702845864924755  1.0000
  O   O5        1.0  0.7229856699866208  0.5469207876676998  0.8593414515026443  1.0000
  O   O6        1.0  0.7302990722434725  0.35896922613979987  0.014437904656901309  1.0000
  O   O7        1.0  0.7161907641557324  0.3707990911525411  0.7151897513675697  1.0000
  O   O8        1.0  0.7235041170273165  0.18284602531542954  0.8702862593916263  1.0000
