data_image0
_chemical_formula_structural       NC8NH4C9H8C6ClH5Zn2C4O8
_chemical_formula_sum              "N2 C27 H17 Cl1 Zn2 O8"
_cell_length_a       13.859017124695912
_cell_length_b       9.275152443626249
_cell_length_c       10.302974078461048
_cell_angle_alpha    85.36323094855369
_cell_angle_beta     89.99985762628332
_cell_angle_gamma    90.57357307376715

_space_group_name_H-M_alt    "P 1"
_space_group_IT_number       1

loop_
  _space_group_symop_operation_xyz
  'x, y, z'

loop_
  _atom_site_type_symbol
  _atom_site_label
  _atom_site_symmetry_multiplicity
  _atom_site_fract_x
  _atom_site_fract_y
  _atom_site_fract_z
  _atom_site_occupancy
  N   N1        1.0  0.9191693190724117  0.5787941821147193  0.5630619526223821  1.0000
  C   C1        1.0  0.8466617078891383  0.5559277022711824  0.5125461234256488  1.0000
  C   C2        1.0  0.7564665578996033  0.5274851475428599  0.44971092296946397  1.0000
  C   C3        1.0  0.6690370232844381  0.5552137612881166  0.5109673356191227  1.0000
  C   C4        1.0  0.581236246255717  0.5274863737621032  0.44971039737977314  1.0000
  C   C5        1.0  0.5810473625564312  0.4720228702818787  0.32717824025031095  1.0000
  C   C6        1.0  0.6682950504818319  0.44440082999363056  0.26615762043000224  1.0000
  C   C7        1.0  0.7559127056841668  0.47202052006569545  0.32717930890263425  1.0000
  C   C8        1.0  0.49142187538111687  0.5559286291236953  0.5125456719778236  1.0000
  N   N2        1.0  0.41922044682304344  0.5787945048288736  0.5630617570580625  1.0000
  H   H1        1.0  0.6693244324552108  0.5981446798619328  0.6058101582537251  1.0000
  H   H2        1.0  0.5136058218212646  0.45019943042880084  0.2789627315476113  1.0000
  H   H3        1.0  0.668008294424859  0.40155760492797743  0.17150686819693317  1.0000
  H   H4        1.0  0.8230620086148981  0.4501949788065626  0.2789647067422705  1.0000
  C   C9        1.0  0.16635312012060943  0.155162062371214  0.5643873091959719  1.0000
  C   C10       1.0  0.13154547899517666  0.2379014407127671  0.45409201425393936  1.0000
  C   C11       1.0  0.10570691858879355  0.17246007961202015  0.34173171281658354  1.0000
  C   C12       1.0  0.11427028545806218  0.023118146576123648  0.337442005476573  1.0000
  C   C13       1.0  0.14719109959799706  0.938690620103024  0.4468051628501128  1.0000
  C   C14       1.0  0.17204581006284547  0.002415585108103575  0.5617476474112659  1.0000
  C   C15       1.0  0.0881286235347294  0.9559686222480357  0.22108584660302588  1.0000
  C   C16       1.0  0.0662410903701749  0.8997132550911932  0.1236558068977871  1.0000
  C   C17       1.0  0.03968489526964203  0.8314453176682121  0.005441541017823019  1.0000
  H   H5        1.0  0.3049994649754804  0.23681360089523684  0.823669032651966  1.0000
  H   H6        1.0  0.12646273873984426  0.35441892312560036  0.45368363863314864  1.0000
  H   H7        1.0  0.07990919985567091  0.23869982816899024  0.257648490163541  1.0000
  H   H8        1.0  0.1512536084572773  0.8223805931229597  0.44318343897380125  1.0000
  H   H9        1.0  0.26229910866370787  0.7071162443759007  0.7390876427177017  1.0000
  H   H10       1.0  0.05732410497738539  0.7147235006379036  0.017570269221424795  1.0000
  H   H11       1.0  0.9611514048704555  0.8440278281214052  0.9876682055902508  1.0000
  H   H12       1.0  0.08043289681756116  0.8837938819965975  0.9214057013385952  1.0000
  C   C18       1.0  0.16919946992498014  0.5787888264799561  0.18182500135040994  1.0000
  C   C19       1.0  0.15140875308227944  0.4289553010873086  0.19152548442695472  1.0000
  C   C20       1.0  0.1425815340719223  0.35461198680622585  0.07938180837453634  1.0000
  C   C21       1.0  0.15140879678407562  0.42895538255946336  0.9564175852020056  1.0000
  C   C22       1.0  0.16919946696346266  0.5787887520140385  0.9443100206558303  1.0000
  C   C23       1.0  0.1780081210968445  0.6529751704277602  0.05766866809904947  1.0000
  Cl  Cl1       1.0  0.12035670540993748  0.16743431832645683  0.09300355899350676  1.0000
  H   H13       1.0  0.17590148225627522  0.6352285293717048  0.5054739358939271  1.0000
  H   H14       1.0  0.1443329826686626  0.36936300912079884  0.28590882278808216  1.0000
  H   H15       1.0  0.14433304995583018  0.36936298853601013  0.8707078567782843  1.0000
  H   H16       1.0  0.19172881262328567  0.7685312824143402  0.04925903936382726  1.0000
  H   H17       1.0  0.17590129856622938  0.6352285166054927  0.6124463054523872  1.0000
  Zn  Zn1       1.0  0.06347324997235892  0.5787904236605517  0.5630694093553319  1.0000
  Zn  Zn2       1.0  0.27491642921859394  0.5787864953319953  0.5630649851348825  1.0000
  C   C24       1.0  0.16915868765111064  0.5730417672454626  0.8002019032941243  1.0000
  C   C25       1.0  0.16923331272275388  0.5845369719158896  0.3259326129010818  1.0000
  C   C26       1.0  0.17096479783209717  0.8422666064463952  0.5570731699527158  1.0000
  C   C27       1.0  0.16742711874554098  0.31531039950069384  0.5690614208595333  1.0000
  O   O1        1.0  0.24948621296667217  0.5864583176340011  0.3742947844160265  1.0000
  O   O2        1.0  0.2493862606807209  0.5711163517213607  0.7518360035667193  1.0000
  O   O3        1.0  0.25084363579827595  0.7885188142089359  0.5555078265667639  1.0000
  O   O4        1.0  0.24802876576722377  0.3690558654675382  0.5706228640429516  1.0000
  O   O5        1.0  0.09036084126855971  0.7885210535279197  0.5555115304419393  1.0000
  O   O6        1.0  0.08890347779206254  0.5711203242575198  0.7518396328195278  1.0000
  O   O7        1.0  0.08900342980445108  0.5864622398990014  0.37429685294236315  1.0000
  O   O8        1.0  0.08754598253172685  0.3690597774143378  0.570625029936995  1.0000
