data_image0
_chemical_formula_structural       NC6NC2H4C6NH7C6NCH7Zn2C4O8
_chemical_formula_sum              "N4 C25 H18 Zn2 O8"
_cell_length_a       14.927258858638513
_cell_length_b       9.274771166103582
_cell_length_c       9.273390368590327
_cell_angle_alpha    86.06293122453995
_cell_angle_beta     89.9908392513429
_cell_angle_gamma    90.59705168739299

_space_group_name_H-M_alt    "P 1"
_space_group_IT_number       1

loop_
  _space_group_symop_operation_xyz
  'x, y, z'

loop_
  _atom_site_type_symbol
  _atom_site_label
  _atom_site_symmetry_multiplicity
  _atom_site_fract_x
  _atom_site_fract_y
  _atom_site_fract_z
  _atom_site_occupancy
  N   N1        1.0  0.8538381304750022  0.5617334285001583  0.40733528104090455  1.0000
  C   C1        1.0  0.7763116391223751  0.5617334000959529  0.40733529167962335  1.0000
  C   C2        1.0  0.6798791323250161  0.5617335146928008  0.4073352416190803  1.0000
  C   C3        1.0  0.6326771941188266  0.5366907325018864  0.28071812007547314  1.0000
  C   C4        1.0  0.5389658829453826  0.5366907567259842  0.28071798659728264  1.0000
  C   C5        1.0  0.49206306718288834  0.5617333372968514  0.40733526056925284  1.0000
  C   C6        1.0  0.39563049339401274  0.5617334518966013  0.40733521050278165  1.0000
  N   N2        1.0  0.31810400204138534  0.5617334234923956  0.4073352211415  1.0000
  C   C7        1.0  0.5392649383975607  0.586776119490668  0.5339523821069314  1.0000
  C   C8        1.0  0.6329762495710046  0.5867760952665697  0.5339525155851221  1.0000
  H   H1        1.0  0.6682570220244257  0.5172060346614566  0.18220273256482167  1.0000
  H   H2        1.0  0.5031533677927833  0.5172062321954178  0.1822027272693958  1.0000
  H   H3        1.0  0.5036851774096822  0.6062608081595019  0.6324678776998571  1.0000
  H   H4        1.0  0.6687887653483651  0.6062607183191686  0.6324678847418659  1.0000
  C   C9        1.0  0.08322501313740281  0.13814521413206338  0.4081208477452116  1.0000
  C   C10       1.0  0.06261441495197408  0.22008416210506246  0.2792342226986648  1.0000
  C   C11       1.0  0.050367957322040385  0.15365628172203372  0.14952986717249872  1.0000
  C   C12       1.0  0.05877909013363358  0.0039019957906065664  0.14777267591689514  1.0000
  C   C13       1.0  0.07773318016155774  0.9206248026999576  0.2748887756836791  1.0000
  C   C14       1.0  0.08872564863975829  0.9853106872755845  0.40656219094730117  1.0000
  N   N3        1.0  0.030307799091335852  0.2386796727028333  0.019226703368765197  1.0000
  H   H5        1.0  0.1840349882010296  0.22115785785518205  0.7235460671751537  1.0000
  H   H6        1.0  0.05809749605359937  0.3366709864208941  0.278680591968681  1.0000
  H   H7        1.0  0.049780673520749774  0.9513541605020887  0.04797826020932506  1.0000
  H   H8        1.0  0.08168127069098602  0.8044169178776011  0.2707610569374179  1.0000
  H   H9        1.0  0.1529942424061866  0.6905251451062447  0.6211630223869733  1.0000
  H   H10       1.0  0.02413557463647421  0.35075307670632494  0.019179891831263337  1.0000
  H   H11       1.0  0.02139364897122543  0.19017423596181793  0.9218025237824361  1.0000
  C   C15       1.0  0.08598763929412012  0.5572297784567274  0.9841040082170173  1.0000
  C   C16       1.0  0.1682474166678567  0.5543637050040741  0.05771176306666814  1.0000
  C   C17       1.0  0.24915913847573423  0.5649067203702229  0.9822775725892335  1.0000
  C   C18       1.0  0.2498676567080177  0.578706585360537  0.8306241936400753  1.0000
  C   C19       1.0  0.16813811499748066  0.579140038877491  0.7562113125373657  1.0000
  C   C20       1.0  0.08596303051971788  0.566226111840918  0.8305789904325502  1.0000
  N   N4        1.0  0.3323042727952481  0.590910448823218  0.7498134642010479  1.0000
  C   C21       1.0  0.420755217239992  0.591080452257195  0.8168013446300155  1.0000
  H   H12       1.0  0.9441403456808729  0.4879408502984175  0.2700714952236891  1.0000
  H   H13       1.0  0.31087339594960195  0.5635794086782799  0.04340101593059953  1.0000
  H   H14       1.0  0.8764625874365585  0.45416256200539556  0.7352941020277033  1.0000
  H   H15       1.0  0.32945967627831196  0.6004702195731801  0.6369200419752428  1.0000
  H   H16       1.0  0.42716997881380614  0.6836121943107338  0.8860996302554267  1.0000
  H   H17       1.0  0.43101308947658024  0.4879714277565155  0.8825449926998514  1.0000
  H   H18       1.0  0.47332508152908925  0.6019851999974644  0.731890711546848  1.0000
  Zn  Zn1       1.0  0.9878152149552847  0.5617296503970945  0.40734359882331606  1.0000
  Zn  Zn2       1.0  0.18412685138380935  0.5617255120578943  0.40733874794183  1.0000
  C   C22       1.0  0.08592835339182472  0.5587791608497945  0.6705876737220227  1.0000
  C   C23       1.0  0.086015868477475  0.5646778230859781  0.14409481110187272  1.0000
  C   C24       1.0  0.08768145652769443  0.8251173088664803  0.4011134576082549  1.0000
  C   C25       1.0  0.08426268709937706  0.298337942851886  0.4135691072458745  1.0000
  O   O1        1.0  0.16052454452716403  0.5671695914582744  0.19778735677815673  1.0000
  O   O2        1.0  0.16041565999585472  0.5562831589819499  0.616891033452347  1.0000
  O   O3        1.0  0.1618303086200493  0.7713545977596095  0.3992886946309633  1.0000
  O   O4        1.0  0.15910982898524934  0.35209816185221077  0.4153895875172655  1.0000
  O   O5        1.0  0.012832170362327764  0.7713570006056802  0.39929275924195173  1.0000
  O   O6        1.0  0.011417532988844844  0.5562872940483292  0.6168950180271731  1.0000
  O   O7        1.0  0.01152641730378013  0.5671736578422975  0.19778960862642547  1.0000
  O   O8        1.0  0.010111701688069191  0.35210221906754025  0.415391947441881  1.0000
