data_image0
_chemical_formula_structural       NC9NC4H8C7OCH9C6OCH7Zn2C4O8
_chemical_formula_sum              "N2 C32 H24 O10 Zn2"
_cell_length_a       16.32274767691083
_cell_length_b       10.30083208314754
_cell_length_c       9.273891588657152
_cell_angle_alpha    86.0566932857514
_cell_angle_beta     89.15205086511824
_cell_angle_gamma    89.51862078510035

_space_group_name_H-M_alt    "P 1"
_space_group_IT_number       1

loop_
  _space_group_symop_operation_xyz
  'x, y, z'

loop_
  _atom_site_type_symbol
  _atom_site_label
  _atom_site_symmetry_multiplicity
  _atom_site_fract_x
  _atom_site_fract_y
  _atom_site_fract_z
  _atom_site_occupancy
  N   N1        1.0  0.7764771620689327  0.3987947123793514  0.39768762662701884  1.0000
  C   C1        1.0  0.7243442647025519  0.3508666737764119  0.33744397944225946  1.0000
  C   C2        1.0  0.6595423194776318  0.2913396765880427  0.26262088790856253  1.0000
  C   C3        1.0  0.6714393560730323  0.2099173280056852  0.1602714496023636  1.0000
  C   C4        1.0  0.592241742702917  0.17018282230880644  0.11032832721688199  1.0000
  C   C5        1.0  0.5330628318759278  0.22833342337502935  0.1834272552393179  1.0000
  C   C6        1.0  0.4431903185542009  0.21296477420704507  0.1641117818968023  1.0000
  C   C7        1.0  0.3873078300113367  0.2807429881919341  0.24930509721823912  1.0000
  C   C8        1.0  0.3026548447013331  0.26760819961968396  0.2327968695691318  1.0000
  C   C9        1.0  0.2463516238358936  0.3374700335912518  0.3206083321301955  1.0000
  N   N2        1.0  0.2011028256413553  0.39362744861341287  0.3911938753320616  1.0000
  C   C10       1.0  0.2728317708790337  0.18658558455526972  0.13095823899177894  1.0000
  C   C11       1.0  0.3273919602541327  0.11889715086407615  0.04587814724687565  1.0000
  C   C12       1.0  0.4118876457760914  0.13167814752141438  0.06194154572282738  1.0000
  C   C13       1.0  0.5704583508875539  0.3131233654371459  0.2900069459247112  1.0000
  H   H1        1.0  0.7304807805006737  0.17825599567596884  0.12047007339191637  1.0000
  H   H2        1.0  0.5842279085903488  0.10363643661534416  0.026678053812578147  1.0000
  H   H3        1.0  0.4091527539038881  0.3439947992081016  0.32880743500349463  1.0000
  H   H4        1.0  0.2074857728028248  0.17576524189099785  0.11735913284688548  1.0000
  H   H5        1.0  0.3041485642886328  0.056218605878898924  0.9670966403739563  1.0000
  H   H6        1.0  0.4518979071909547  0.0775317612364641  0.9938833866206694  1.0000
  H   H7        1.0  0.5533274857750489  0.279303220122713  0.4026804017713874  1.0000
  H   H8        1.0  0.5537504393853803  0.41697692399315645  0.2653668786910206  1.0000
  C   C14       1.0  0.9888163137493398  0.01487523013423208  0.3945916011036037  1.0000
  C   C15       1.0  0.966472887020088  0.02337090249243734  0.24857444303744922  1.0000
  C   C16       1.0  0.9542646437762585  0.9105167486779856  0.17549886147602312  1.0000
  C   C17       1.0  0.9664149482378599  0.7881095732041224  0.24819449393149948  1.0000
  C   C18       1.0  0.9887715128074102  0.7775369030545185  0.3943022828876187  1.0000
  C   C19       1.0  0.999648622606401  0.8914548860809013  0.4667290922286577  1.0000
  C   C20       1.0  0.9327102066840564  0.9207667991652732  0.018166896599459914  1.0000
  O   O1        1.0  0.005744592325978014  0.925122951716651  0.9346509559899581  1.0000
  C   C21       1.0  0.9863361278718229  0.9347802856375655  0.7866548448643762  1.0000
  H   H9        1.0  0.9584900768161463  0.11768420962294336  0.1910744156490367  1.0000
  H   H10       1.0  0.95839161845994  0.7012738315792474  0.19043364289542225  1.0000
  H   H11       1.0  0.016887814891341613  0.8841396810704525  0.5793395068546121  1.0000
  H   H12       1.0  0.03184552449989187  0.5503582697541759  0.6694702411609408  1.0000
  H   H13       1.0  0.895063478485765  0.010299976322838866  0.9946463275881933  1.0000
  H   H14       1.0  0.8950974216436912  0.835207406669265  0.9943153025038411  1.0000
  H   H15       1.0  0.04425759536953301  0.9380981495050138  0.7224587314749316  1.0000
  H   H16       1.0  0.9515319711020636  0.025867268826583308  0.7571289646035684  1.0000
  H   H17       1.0  0.9515473422794738  0.8483821594378079  0.7567715482473139  1.0000
  C   C22       1.0  0.990136374954792  0.39275054890804806  0.9711523743784056  1.0000
  C   C23       1.0  0.057232588862467626  0.44678279407384247  0.03867912423651698  1.0000
  C   C24       1.0  0.11968065095769166  0.5105683241076195  0.9578898240675783  1.0000
  C   C25       1.0  0.11525580083636555  0.5206442822311579  0.8065130685290465  1.0000
  C   C26       1.0  0.04988101065924109  0.46580480370301736  0.7376180943271586  1.0000
  C   C27       1.0  0.9874514067311055  0.3996615395947236  0.8177414601289444  1.0000
  O   O2        1.0  0.18453934490720036  0.5630289575761283  0.0320843077327837  1.0000
  C   C28       1.0  0.25200687564094637  0.630549307866406  0.9639501766671089  1.0000
  H   H18       1.0  0.7952517413958774  0.31536454785180923  0.08518028499504804  1.0000
  H   H19       1.0  0.16245183452184753  0.5696570825940808  0.7408503136236679  1.0000
  H   H20       1.0  0.04921949770179612  0.47250551873296365  0.6205444894472237  1.0000
  H   H21       1.0  0.8574895512603097  0.3423978305525466  0.5443086767300866  1.0000
  H   H22       1.0  0.23000783706954642  0.7186925663677779  0.8998576083274767  1.0000
  H   H23       1.0  0.2861742146410853  0.5656855307385849  0.8930395019418625  1.0000
  H   H24       1.0  0.29394692023064  0.6610781953416536  0.04814053516255523  1.0000
  Zn  Zn1       1.0  0.8990149361677091  0.3973001343564772  0.3958219960954283  1.0000
  Zn  Zn2       1.0  0.07856502088990336  0.3951114669895399  0.3930713187004419  1.0000
  C   C29       1.0  0.9879574130598937  0.3931820452096984  0.6577200040788111  1.0000
  C   C30       1.0  0.9896245041340546  0.3992311718685142  0.13117342153755218  1.0000
  C   C31       1.0  0.9887939596017469  0.6333307746246353  0.38861291090278494  1.0000
  C   C32       1.0  0.9887878961722799  0.15908088366056194  0.4002805930944533  1.0000
  O   O3        1.0  0.057591037362549426  0.4005698750259716  0.18383408118768796  1.0000
  O   O4        1.0  0.05626524100295916  0.3901812111381901  0.6029712293592369  1.0000
  O   O5        1.0  0.05693983962437633  0.5841043706682445  0.38566536120204  1.0000
  O   O6        1.0  0.05691637781507784  0.20664672464988218  0.4011398422004677  1.0000
  O   O7        1.0  0.9206635179709267  0.5857648774443716  0.3877534735264907  1.0000
  O   O8        1.0  0.9199889194978229  0.39184327745556885  0.6050592642339025  1.0000
  O   O9        1.0  0.9213147214109283  0.4022318819430604  0.1859203830260394  1.0000
  O   O10       1.0  0.9206400615179032  0.20830872316124285  0.40322625211432533  1.0000
