data_image0
_chemical_formula_structural       NC10NC3NH7C13OH12C12IH9Zn2C4O8
_chemical_formula_sum              "N3 C42 H28 O9 I1 Zn2"
_cell_length_a       19.210446455230148
_cell_length_b       10.299150109392551
_cell_length_c       10.29977335064465
_cell_angle_alpha    85.52407015278276
_cell_angle_beta     89.99988081382295
_cell_angle_gamma    89.9285097185194

_space_group_name_H-M_alt    "P 1"
_space_group_IT_number       1

loop_
  _space_group_symop_operation_xyz
  'x, y, z'

loop_
  _atom_site_type_symbol
  _atom_site_label
  _atom_site_symmetry_multiplicity
  _atom_site_fract_x
  _atom_site_fract_y
  _atom_site_fract_z
  _atom_site_occupancy
  N   N1        1.0  0.6550958037495667  0.4207116421419594  0.5668755306810556  1.0000
  C   C1        1.0  0.5948667155339477  0.422919230506116  0.5671059811351665  1.0000
  C   C2        1.0  0.5200616078397639  0.4256562358912798  0.5673914798364275  1.0000
  C   C3        1.0  0.4844226003203155  0.5418896871285722  0.5824665139318663  1.0000
  C   C4        1.0  0.4117570761466111  0.5420412500814591  0.5824138689262788  1.0000
  C   C5        1.0  0.3748946808953677  0.42636522241793057  0.5674777388476044  1.0000
  C   C6        1.0  0.29757288467580734  0.42500870443415106  0.5673275756562007  1.0000
  C   C7        1.0  0.2597851990616856  0.5286052142085562  0.5039333555205989  1.0000
  C   C8        1.0  0.18700719297768462  0.5272029255134683  0.50382472435574  1.0000
  C   C9        1.0  0.1510153896808278  0.42246166898488546  0.5670592354251878  1.0000
  C   C10       1.0  0.0760861901943774  0.4211595443824818  0.5669228182954604  1.0000
  N   N2        1.0  0.0158485956284486  0.42011259197992645  0.566813173812866  1.0000
  C   C11       1.0  0.18807938274039065  0.31899086746391236  0.6304284075191848  1.0000
  C   C12       1.0  0.260859313803697  0.32011885510651755  0.6305873709169055  1.0000
  C   C13       1.0  0.4131431127313092  0.31195205744214544  0.5526902934982447  1.0000
  N   N3        1.0  0.48391244776741654  0.31439714017973713  0.5528550836865386  1.0000
  H   H1        1.0  0.5125018115849331  0.6313254152329074  0.5944866548483172  1.0000
  H   H2        1.0  0.3844664721608947  0.6320584554892399  0.5958285435984321  1.0000
  H   H3        1.0  0.28648578019037074  0.6098793831775633  0.4529172896772115  1.0000
  H   H4        1.0  0.15883444303216282  0.6076489299676489  0.4541393076246816  1.0000
  H   H5        1.0  0.1607390388697947  0.2375814341604798  0.6800146441929472  1.0000
  H   H6        1.0  0.28838731984309346  0.23979160543391131  0.6817104701625549  1.0000
  H   H7        1.0  0.3868997406941805  0.22107188949497322  0.5392296444473288  1.0000
  C   C14       1.0  0.8355411447073112  0.039012332918160426  0.5669884674627471  1.0000
  C   C15       1.0  0.8342708416291872  0.02717057877506646  0.7037990210461911  1.0000
  C   C16       1.0  0.833566180029793  0.9040321351873118  0.772901192458701  1.0000
  C   C17       1.0  0.8341366013315022  0.7919155623289069  0.7034356503126612  1.0000
  C   C18       1.0  0.835409907117786  0.801801880238498  0.5667114949318435  1.0000
  C   C19       1.0  0.83610665220676  0.9258104580360279  0.4992869085523292  1.0000
  C   C20       1.0  0.8322162663059196  0.8924866886028446  0.9175411249002089  1.0000
  C   C21       1.0  0.7894190565399355  0.7996577806976983  0.9855697368531009  1.0000
  C   C22       1.0  0.7881257271589988  0.788874974595316  0.12167577271262617  1.0000
  C   C23       1.0  0.8300627899769194  0.8697610053453995  0.1922136124105166  1.0000
  C   C24       1.0  0.8721940853957814  0.9635444671821064  0.12482768530805609  1.0000
  C   C25       1.0  0.8735035730493338  0.9745030435695994  0.9887213579430896  1.0000
  C   C26       1.0  0.8272093601225227  0.8605309158949553  0.3382999548185971  1.0000
  O   O1        1.0  0.7751855058685987  0.9437810363959529  0.3785494877233333  1.0000
  H   H8        1.0  0.8374866622589389  0.2686577856697301  0.30875221463607994  1.0000
  H   H9        1.0  0.8328615151638952  0.11392959252858836  0.7568076890258701  1.0000
  H   H10       1.0  0.8345383544808305  0.6967756451418122  0.7562689430927148  1.0000
  H   H11       1.0  0.8370868213553421  0.934152282700286  0.39382747673671176  1.0000
  H   H12       1.0  0.835852813047083  0.4781291146369639  0.5141225976903281  1.0000
  H   H13       1.0  0.7561248406947242  0.7367210179262617  0.9334669485895881  1.0000
  H   H14       1.0  0.7542684982926294  0.7175855312593747  0.17205704113684528  1.0000
  H   H15       1.0  0.904206164204819  0.028036091475182493  0.17767689878945833  1.0000
  H   H16       1.0  0.907384194966486  0.046237624228913095  0.9391467264092712  1.0000
  H   H17       1.0  0.8784155788516083  0.8882622814721166  0.3784609936593378  1.0000
  H   H18       1.0  0.8159003748271786  0.7585163550257082  0.37611438239547024  1.0000
  H   H19       1.0  0.7754517347990308  0.9340725785824993  0.47517584347225106  1.0000
  C   C27       1.0  0.8354423211533404  0.4205132715940869  0.18548074134635084  1.0000
  C   C28       1.0  0.8985309297227914  0.48941760345843827  0.1791075605611765  1.0000
  C   C29       1.0  0.930531910674586  0.5242240759277814  0.05874821717929035  1.0000
  C   C30       1.0  0.8985979249204595  0.4892033183865343  0.9438380133931012  1.0000
  C   C31       1.0  0.8355087330385254  0.42030099259909987  0.9482192353490815  1.0000
  C   C32       1.0  0.8042844743794436  0.38634073628703547  0.06950857553737899  1.0000
  C   C33       1.0  0.9972741224522043  0.5971167900421586  0.05305994230688848  1.0000
  C   C34       1.0  0.008206461058593018  0.7001260726057927  0.13283125844962962  1.0000
  C   C35       1.0  0.07106068074977379  0.7686194908089005  0.12727565514702044  1.0000
  C   C36       1.0  0.12368112913145059  0.7351698092649459  0.04228932730345169  1.0000
  C   C37       1.0  0.11342010133827074  0.6330456811515095  0.9626603138581137  1.0000
  C   C38       1.0  0.05063653665783564  0.5643261554327471  0.9678100453743669  1.0000
  I   I1        1.0  0.21844254987216782  0.8386596502018728  0.03421706453571138  1.0000
  H   H20       1.0  0.8113824531308426  0.3943226361370209  0.5153576815362036  1.0000
  H   H21       1.0  0.9234182474120525  0.5146253069822524  0.26807095593367336  1.0000
  H   H22       1.0  0.922565954694135  0.5173535112659258  0.8507108318549275  1.0000
  H   H23       1.0  0.7556140941017937  0.33318531793710776  0.07365683457116834  1.0000
  H   H24       1.0  0.8114797104230798  0.39401030786242974  0.622437938439715  1.0000
  H   H25       1.0  0.9678378697403308  0.7287733276520446  0.19821855720317827  1.0000
  H   H26       1.0  0.07875086889662164  0.8478900814024319  0.1888313979964762  1.0000
  H   H27       1.0  0.15413018122006572  0.606634268393927  0.896981003196156  1.0000
  H   H28       1.0  0.04415610783250435  0.48451262566719494  0.9064151998351742  1.0000
  Zn  Zn1       1.0  0.7592012672059749  0.420535302784365  0.5668650361672823  1.0000
  Zn  Zn2       1.0  0.911743118978946  0.4202783449731533  0.5668343079558129  1.0000
  C   C39       1.0  0.8354955135530872  0.41516702050753546  0.804047176764249  1.0000
  C   C40       1.0  0.8354505381132619  0.4256482631607772  0.3296522938947637  1.0000
  C   C41       1.0  0.8354306796908473  0.6576199039337551  0.5615886549901659  1.0000
  C   C42       1.0  0.8355153201981306  0.18319381937407117  0.5721108854846646  1.0000
  O   O2        1.0  0.893342134544247  0.4272684328889764  0.37802592481488845  1.0000
  O   O3        1.0  0.893379653175625  0.4133508460484547  0.7556498503520785  1.0000
  O   O4        1.0  0.8933265187602804  0.6091346165890377  0.5598628782520398  1.0000
  O   O5        1.0  0.8933952168973139  0.23148467175415127  0.5738127995472908  1.0000
  O   O6        1.0  0.7775491172325584  0.60932897609247  0.5598865445794585  1.0000
  O   O7        1.0  0.777602251370226  0.4135467660014762  0.7556734468673345  1.0000
  O   O8        1.0  0.7775647326569862  0.427464308016853  0.37804795994459983  1.0000
  O   O9        1.0  0.7776178150172823  0.23168053756537318  0.5738349320482933  1.0000
