data_image0
_chemical_formula_structural       NC8NH4C10H6C6FH3Zn2C4O8
_chemical_formula_sum              "N2 C28 H13 F1 Zn2 O8"
_cell_length_a       13.859017124695912
_cell_length_b       9.275150299802176
_cell_length_c       9.275646106892307
_cell_angle_alpha    84.62811981021342
_cell_angle_beta     90.02252343401597
_cell_angle_gamma    89.4839206584006

_space_group_name_H-M_alt    "P 1"
_space_group_IT_number       1

loop_
  _space_group_symop_operation_xyz
  'x, y, z'

loop_
  _atom_site_type_symbol
  _atom_site_label
  _atom_site_symmetry_multiplicity
  _atom_site_fract_x
  _atom_site_fract_y
  _atom_site_fract_z
  _atom_site_occupancy
  N   N1        1.0  0.8985466304789166  0.5961268983054582  0.3988958002889008  1.0000
  C   C1        1.0  0.8263116183733922  0.5738543438035479  0.3427830961019863  1.0000
  C   C2        1.0  0.7364555414157766  0.5461505559635977  0.272986101424199  1.0000
  C   C3        1.0  0.6486954443259563  0.573158965104436  0.3410293857365734  1.0000
  C   C4        1.0  0.5612252139706146  0.5461517886501996  0.272985514343526  1.0000
  C   C5        1.0  0.5616975280391118  0.49212892215385384  0.13687746652082142  1.0000
  C   C6        1.0  0.6492745080704209  0.4652243141720596  0.0690960999386394  1.0000
  C   C7        1.0  0.7365629014745615  0.49212655881606465  0.13687865988111178  1.0000
  C   C8        1.0  0.4710717739019719  0.573855276186255  0.34278259211864687  1.0000
  N   N2        1.0  0.3985977540500601  0.5961272233997648  0.39889558214189036  1.0000
  H   H1        1.0  0.6484710599142134  0.6149747963336469  0.44638027086201415  1.0000
  H   H2        1.0  0.49451615051106274  0.47087236263492144  0.08331994168297507  1.0000
  H   H3        1.0  0.6494984995650169  0.42349391838613665  0.9639585638834868  1.0000
  H   H4        1.0  0.8039723946936271  0.470867886738784  0.08332214761561518  1.0000
  C   C9        1.0  0.15112349675447612  0.17239578025840627  0.40131216178740514  1.0000
  C   C10       1.0  0.201829910868921  0.25561218218201365  0.29210953242090554  1.0000
  C   C11       1.0  0.2442595371975662  0.19068612437795252  0.17735737223044712  1.0000
  C   C12       1.0  0.23641319173351882  0.041593532859419934  0.17032978138250857  1.0000
  C   C13       1.0  0.18781310990272626  0.9569402083055274  0.2788836908959529  1.0000
  C   C14       1.0  0.146030159463298  0.019847104407698653  0.39649179108060933  1.0000
  C   C15       1.0  0.2949768496966667  0.27767128409286945  0.06565793634743389  1.0000
  C   C16       1.0  0.33744005926929355  0.3505233364203814  0.9721422272303584  1.0000
  C   C17       1.0  0.38716250709875927  0.4358379879336187  0.8626394102755941  1.0000
  C   C18       1.0  0.4296175291814204  0.5086843669780884  0.7691416274626555  1.0000
  H   H5        1.0  0.10544510765738724  0.4322757076031649  0.6305242712625629  1.0000
  H   H6        1.0  0.20646666452159157  0.3720367751933482  0.2943394084687705  1.0000
  H   H7        1.0  0.26872868465699473  0.9903951164438344  0.08153571974582086  1.0000
  H   H8        1.0  0.18486020127584715  0.841006588482026  0.2726519097530147  1.0000
  H   H9        1.0  0.08344515419795417  0.8857197309517398  0.7394425625923481  1.0000
  H   H10       1.0  0.46689658012264634  0.5726496695403146  0.6870428517281404  1.0000
  C   C19       1.0  0.1484374030015616  0.6006377576636511  0.9750358416204008  1.0000
  C   C20       1.0  0.23669421745397679  0.615718821223405  0.04701087820347816  1.0000
  C   C21       1.0  0.32383646021389456  0.617251137578603  0.9715563112678218  1.0000
  C   C22       1.0  0.3242531717303634  0.6035844758583031  0.823257793710088  1.0000
  C   C23       1.0  0.23749389167780377  0.5909093268756009  0.749337112481657  1.0000
  C   C24       1.0  0.14871624587838816  0.5916051747687475  0.8227681025791193  1.0000
  F   F1        1.0  0.4082559316821759  0.6302785725803853  0.04291739160299301  1.0000
  H   H11       1.0  0.9254034752403864  0.4834084929469378  0.08885564387746592  1.0000
  H   H12       1.0  0.3919118208998369  0.6041881730473294  0.7649389715820051  1.0000
  H   H13       1.0  0.9976837655562938  0.5186150566084802  0.5483375804323596  1.0000
  Zn  Zn1       1.0  0.042850611949187815  0.5961230507781901  0.39890409906358043  1.0000
  Zn  Zn2       1.0  0.25429383958240326  0.5961191740874954  0.3988991889496471  1.0000
  C   C25       1.0  0.14869596340734348  0.5875641407922902  0.6625612528480718  1.0000
  C   C26       1.0  0.14845078618202945  0.6046799031583519  0.135242166426065  1.0000
  C   C27       1.0  0.1469860742248983  0.8597220730586257  0.39165108109893415  1.0000
  C   C28       1.0  0.1501606136583089  0.3325202364530255  0.4061524249919821  1.0000
  O   O1        1.0  0.22869691847522988  0.6060287178382038  0.18900704497805765  1.0000
  O   O2        1.0  0.22893035483015486  0.5862112996714288  0.6087922383200277  1.0000
  O   O3        1.0  0.22754851648938224  0.8059822559114753  0.39003034938917286  1.0000
  O   O4        1.0  0.23007868456711122  0.38625777307480114  0.4077688256264205  1.0000
  O   O5        1.0  0.0670656948092716  0.8059844517938587  0.3900344623808818  1.0000
  O   O6        1.0  0.06844752270100174  0.5862152299957784  0.6087962644890315  1.0000
  O   O7        1.0  0.06821408614156232  0.6060326163702163  0.1890093360402718  1.0000
  O   O8        1.0  0.06959585232712696  0.386261660133145  0.4077712249652012  1.0000
