data_image0
_chemical_formula_structural       NC12NC2H8C7OC4NC3H8C6SCOC6H10Zn2C4O8
_chemical_formula_sum              "N3 C45 H26 O10 S1 Zn2"
_cell_length_a       19.240039667572717
_cell_length_b       10.299371701877257
_cell_length_c       10.302041481415108
_cell_angle_alpha    85.56120269447774
_cell_angle_beta     89.99620935601246
_cell_angle_gamma    90.00851160782973

_space_group_name_H-M_alt    "P 1"
_space_group_IT_number       1

loop_
  _space_group_symop_operation_xyz
  'x, y, z'

loop_
  _atom_site_type_symbol
  _atom_site_label
  _atom_site_symmetry_multiplicity
  _atom_site_fract_x
  _atom_site_fract_y
  _atom_site_fract_z
  _atom_site_occupancy
  N   N1        1.0  0.6546409015230829  0.42177722278333535  0.56830789397974  1.0000
  C   C1        1.0  0.5944925327153834  0.4217773067933819  0.5683078120928755  1.0000
  C   C2        1.0  0.5196744955884117  0.4217774241272605  0.5683076748630563  1.0000
  C   C3        1.0  0.48319199120006007  0.3572758897920961  0.6716724784566082  1.0000
  C   C4        1.0  0.41052123121642403  0.3571649780219584  0.6717589591581792  1.0000
  C   C5        1.0  0.3733422606665094  0.42177751677206493  0.5683074472662036  1.0000
  C   C6        1.0  0.4105389685117816  0.4863902424412807  0.46485612994536  1.0000
  C   C7        1.0  0.4832096450688021  0.4862790951282505  0.46494273302993927  1.0000
  C   C8        1.0  0.2961371702240093  0.4217774381439196  0.56830735184072  1.0000
  C   C9        1.0  0.2589388718894358  0.3085017038478086  0.6101250319936806  1.0000
  C   C10       1.0  0.1862681952415572  0.30860863625281243  0.6100337677890804  1.0000
  C   C11       1.0  0.14980488328838298  0.4217773089493997  0.5683074126876653  1.0000
  C   C12       1.0  0.07498684611557419  0.42177719511943285  0.5683076612506659  1.0000
  N   N2        1.0  0.014838529252842804  0.42177715422303375  0.5683078696092327  1.0000
  C   C13       1.0  0.186289082199725  0.5349460574922895  0.5265810047363704  1.0000
  C   C14       1.0  0.2589597901739452  0.5350531700755259  0.5264895780422586  1.0000
  H   H1        1.0  0.5109000273464117  0.3073371625336995  0.752376944837976  1.0000
  H   H2        1.0  0.3834211185594633  0.30802394879696043  0.7535790023103995  1.0000
  H   H3        1.0  0.3834525503845672  0.5355312987365393  0.38303603596618535  1.0000
  H   H4        1.0  0.5109313803677866  0.5362177220275612  0.3842385423455824  1.0000
  H   H5        1.0  0.2860239532511089  0.21933516436827305  0.641251259730968  1.0000
  H   H6        1.0  0.15854519433095768  0.22034091890030516  0.6421930893422257  1.0000
  H   H7        1.0  0.1585822596600681  0.6232137503027853  0.4944216977209823  1.0000
  H   H8        1.0  0.28606118763736393  0.6242197887475507  0.495363305573874  1.0000
  C   C15       1.0  0.8347067031718223  0.04040680935286244  0.5681808998791016  1.0000
  C   C16       1.0  0.8380884037006064  0.049795111979276996  0.43154825928531754  1.0000
  C   C17       1.0  0.8390048533548956  0.9373614210425241  0.3625721591505873  1.0000
  C   C18       1.0  0.838096990208991  0.8145266861149729  0.43186558025047317  1.0000
  C   C19       1.0  0.8347794019526148  0.8031375753144193  0.5684460493281827  1.0000
  C   C20       1.0  0.8329205920919059  0.9166795196859873  0.6357976288333184  1.0000
  C   C21       1.0  0.843305625161886  0.9471310427744928  0.21835621488717272  1.0000
  O   O1        1.0  0.8767588611295531  0.8614032788912211  0.1634233084399668  1.0000
  C   C22       1.0  0.8096440850120727  0.05407274165294073  0.1364633673939799  1.0000
  C   C23       1.0  0.8394150253826657  0.09875864710256631  0.016521404730554412  1.0000
  C   C24       1.0  0.8075864215107534  0.1986892028411673  0.9377492239646937  1.0000
  C   C25       1.0  0.838705788177959  0.24455991766944818  0.8156216278795836  1.0000
  N   N3        1.0  0.8637243729751639  0.28143033679336216  0.7174487507819669  1.0000
  C   C26       1.0  0.7454680162096632  0.2538537040577118  0.9779115946945446  1.0000
  C   C27       1.0  0.7151104221355564  0.20895777531824233  0.09611441816588107  1.0000
  C   C28       1.0  0.7467394703102751  0.10932469799648124  0.17487520404279613  1.0000
  H   H9        1.0  0.8407920277687072  0.14473719159605025  0.3786741158277591  1.0000
  H   H10       1.0  0.8393186241412988  0.7277075530451423  0.3788658303778365  1.0000
  H   H11       1.0  0.830313928338645  0.9086379326168804  0.741131655940539  1.0000
  H   H12       1.0  0.8340899192675255  0.4713019689327594  0.6209589236531823  1.0000
  H   H13       1.0  0.8876155606025283  0.056678447212838524  0.9849519586621521  1.0000
  H   H14       1.0  0.7204149236530388  0.3310908357732726  0.9176863263138806  1.0000
  H   H15       1.0  0.6667912510876114  0.2510545605203576  0.12653113018748607  1.0000
  H   H16       1.0  0.721626583135297  0.07458353828998443  0.26501026446908105  1.0000
  C   C29       1.0  0.8347560948876568  0.4219014719672142  0.18702649170476193  1.0000
  C   C30       1.0  0.8666308834730801  0.5450001684646018  0.176156307167495  1.0000
  C   C31       1.0  0.8827998954411489  0.6057264131888345  0.05379210407403434  1.0000
  C   C32       1.0  0.8666968081756625  0.5445963049773945  0.9410507548271748  1.0000
  C   C33       1.0  0.834730029174438  0.4216429125323369  0.9496004927325978  1.0000
  C   C34       1.0  0.8189764253578596  0.3608781122177871  0.07315810888802556  1.0000
  S   S1        1.0  0.9241395883700755  0.7622596715700414  0.04132398101818936  1.0000
  C   C35       1.0  0.00974977274017608  0.6924587939028759  0.04386811366662414  1.0000
  O   O2        1.0  0.036947595726751326  0.6692859806197758  0.9367997879619399  1.0000
  C   C36       1.0  0.04805583555672288  0.6611160314371909  0.16738172013310473  1.0000
  C   C37       1.0  0.10970504905013632  0.5873924818138441  0.1675483535788174  1.0000
  C   C38       1.0  0.14592707607019828  0.5564956568001497  0.28348968097796856  1.0000
  C   C39       1.0  0.12123760683739926  0.5988432828516941  0.40044197840937273  1.0000
  C   C40       1.0  0.060335378683856744  0.6724080211906944  0.4016555564284113  1.0000
  C   C41       1.0  0.023905934997792363  0.7036789817758249  0.28601376511149623  1.0000
  H   H17       1.0  0.7745735469224868  0.18999506902806934  0.4148232910068841  1.0000
  H   H18       1.0  0.8791210762595716  0.5939280585973745  0.26248764839782607  1.0000
  H   H19       1.0  0.8794815608228119  0.5931926640120104  0.8470962806099919  1.0000
  H   H20       1.0  0.7944048487548023  0.2659775718503381  0.08061769156579479  1.0000
  H   H21       1.0  0.8227660256272302  0.37472616804039327  0.625524919551479  1.0000
  H   H22       1.0  0.12977816164037703  0.5529344971320056  0.07821771916681741  1.0000
  H   H23       1.0  0.19316638645279632  0.49951103878169006  0.28262284666591286  1.0000
  H   H24       1.0  0.1493403849985102  0.5747920467503831  0.49009568165480943  1.0000
  H   H25       1.0  0.04134136399237964  0.7054789646040431  0.49233974653208734  1.0000
  H   H26       1.0  0.9771941553446997  0.7616056588431452  0.29010818534772165  1.0000
  Zn  Zn1       1.0  0.7585861647738029  0.42177373324449235  0.5683153725587078  1.0000
  Zn  Zn2       1.0  0.9108932834010209  0.42177004664823814  0.5683109839704168  1.0000
  C   C42       1.0  0.8347328943789447  0.41651810326769845  0.8054558540805165  1.0000
  C   C43       1.0  0.8347482171366982  0.4270273151674648  0.3311706304094002  1.0000
  C   C44       1.0  0.8347622581135477  0.6589669948198896  0.5632218741606464  1.0000
  C   C45       1.0  0.8347188012792383  0.18457686328447037  0.5734046790121012  1.0000
  O   O3        1.0  0.892545330515312  0.4287405301633122  0.3795450527156275  1.0000
  O   O4        1.0  0.8925333598109637  0.4148011106310387  0.7570777268310106  1.0000
  O   O5        1.0  0.8925562921834445  0.6105816563052859  0.5614720746920066  1.0000
  O   O6        1.0  0.8925223461749449  0.2329599938135875  0.57515060750561  1.0000
  O   O7        1.0  0.7769570500249346  0.6105837860818173  0.561475749018183  1.0000
  O   O8        1.0  0.7769341178003667  0.414804800741047  0.7570813324690244  1.0000
  O   O9        1.0  0.7769460886000291  0.42874417554643585  0.37954709727265784  1.0000
  O   O10       1.0  0.7769231042526045  0.2329636298748627  0.5751527494063304  1.0000
