data_image0
_chemical_formula_structural       NC9NC4H8C7OCH10C8NH7Zn2C4O8
_chemical_formula_sum              "N3 C33 H25 O9 Zn2"
_cell_length_a       16.32274767691083
_cell_length_b       10.30083208314754
_cell_length_c       9.274266800404105
_cell_angle_alpha    85.96676049995207
_cell_angle_beta     89.02225532851281
_cell_angle_gamma    89.51862078510035

_space_group_name_H-M_alt    "P 1"
_space_group_IT_number       1

loop_
  _space_group_symop_operation_xyz
  'x, y, z'

loop_
  _atom_site_type_symbol
  _atom_site_label
  _atom_site_symmetry_multiplicity
  _atom_site_fract_x
  _atom_site_fract_y
  _atom_site_fract_z
  _atom_site_occupancy
  N   N1        1.0  0.7785295370538574  0.4010408287266373  0.3975213891178859  1.0000
  C   C1        1.0  0.7264738047624876  0.3531972394751539  0.3372714917449513  1.0000
  C   C2        1.0  0.6617676991777716  0.29377512905658176  0.2624406374275623  1.0000
  C   C3        1.0  0.673795833448252  0.21249625358866497  0.1600805805204164  1.0000
  C   C4        1.0  0.5946621913840795  0.1728317580006069  0.11013227661078152  1.0000
  C   C5        1.0  0.5353896493689455  0.23087988922391497  0.18323878853752773  1.0000
  C   C6        1.0  0.4455418769123389  0.2155383164245288  0.16392131124357934  1.0000
  C   C7        1.0  0.3895502656839394  0.2831971066931662  0.2491234652438963  1.0000
  C   C8        1.0  0.3049184254852362  0.2700854593015025  0.23261352489089296  1.0000
  C   C9        1.0  0.24850272839347207  0.3398241994464133  0.32043409775969156  1.0000
  N   N2        1.0  0.20316351836315683  0.3958826678804423  0.3910269641059567  1.0000
  C   C10       1.0  0.275225795052983  0.18920560130289224  0.13076432870812993  1.0000
  C   C11       1.0  0.3298949620874414  0.12163643261150359  0.04567541003112319  1.0000
  C   C12       1.0  0.4143700722723104  0.13439491164836426  0.06174047506061032  1.0000
  C   C13       1.0  0.5726486522463279  0.3155204282173696  0.2898295367062165  1.0000
  H   H1        1.0  0.7328882387896386  0.1808907147004999  0.12027507497679314  1.0000
  H   H2        1.0  0.5867555035005927  0.10640263299218368  0.02647332461588481  1.0000
  H   H3        1.0  0.4112933563684194  0.3463374715871459  0.3286340512776351  1.0000
  H   H4        1.0  0.2098972158432404  0.17840432182200971  0.11716381167633962  1.0000
  H   H5        1.0  0.30675247602981415  0.059068323290053286  0.9668857296948477  1.0000
  H   H6        1.0  0.4544675082391415  0.08034392907261954  0.9936752550263691  1.0000
  H   H7        1.0  0.5553734655982174  0.2815423376138104  0.4025146822551984  1.0000
  H   H8        1.0  0.5559723017920859  0.41940852714062116  0.2651869131024511  1.0000
  C   C14       1.0  0.9908726543813147  0.017125686480169433  0.39442504238645926  1.0000
  C   C15       1.0  0.9687162585753492  0.02582604522235732  0.24839273525882932  1.0000
  C   C16       1.0  0.9566016166155749  0.9130743285238265  0.17530957221525337  1.0000
  C   C17       1.0  0.9686588064635442  0.7905652485454813  0.24801274673372897  1.0000
  C   C18       1.0  0.9908282240222245  0.7797877649658035  0.39413569415414285  1.0000
  C   C19       1.0  0.0016125635385915134  0.8936042203230838  0.4665700176681855  1.0000
  C   C20       1.0  0.9352487033925061  0.923544926455004  0.01796128438295241  1.0000
  O   O1        1.0  0.008390063198889788  0.9280181513841398  0.9344366791196858  1.0000
  C   C21       1.0  0.9891711644757293  0.9378829457790906  0.7864252136192111  1.0000
  H   H9        1.0  0.00029135455681927517  0.3412079247115358  0.44991154745291806  1.0000
  H   H10       1.0  0.9608070991899406  0.12021995570688682  0.19088674232868666  1.0000
  H   H11       1.0  0.9607094615887835  0.7038104758963821  0.19024590309585832  1.0000
  H   H12       1.0  0.018707515036366907  0.88613115839449  0.5791921154560133  1.0000
  H   H13       1.0  0.03354977770240028  0.5522234021038613  0.6693322006910476  1.0000
  H   H14       1.0  0.8976321022956911  0.013111074670792524  0.994438275147875  1.0000
  H   H15       1.0  0.8976664694580837  0.8380189690471203  0.9941072157201668  1.0000
  H   H16       1.0  0.04717485969597268  0.9412907995524475  0.7222224399791415  1.0000
  H   H17       1.0  0.9544048269096798  0.029011318252385  0.7568962700925442  1.0000
  H   H18       1.0  0.9544206558956928  0.8515267098887118  0.7565388166548779  1.0000
  C   C22       1.0  0.9927350917744622  0.3955945810042791  0.9709418844756259  1.0000
  C   C23       1.0  0.9451261038732097  0.3032126227294587  0.05285486000706397  1.0000
  C   C24       1.0  0.8925584271279633  0.2209902028977908  0.985793330089709  1.0000
  C   C25       1.0  0.8858474651729799  0.22989789717301792  0.8351947491610692  1.0000
  C   C26       1.0  0.9345814667333342  0.3191616368343344  0.7519594970762307  1.0000
  C   C27       1.0  0.988965736313227  0.4013188706215993  0.8176187888215303  1.0000
  C   C28       1.0  0.8300444185108466  0.13987724638641952  0.7630009057249394  1.0000
  C   C29       1.0  0.8744207414499752  0.02061933961693274  0.7311522705974443  1.0000
  N   N3        1.0  0.9094499200894306  0.9264972468286519  0.7060134403341118  1.0000
  H   H19       1.0  0.08297836810119329  0.6802970023682198  0.0488882779806994  1.0000
  H   H20       1.0  0.947218405901973  0.2964618310777538  0.1698394408632704  1.0000
  H   H21       1.0  0.8564034652348643  0.15103061478355895  0.05161703841343513  1.0000
  H   H22       1.0  0.9313904093294098  0.32216333799641217  0.6351161788653781  1.0000
  H   H23       1.0  0.05270089373716978  0.5904416454722745  0.5202318056909734  1.0000
  H   H24       1.0  0.806670610271989  0.18770959556703604  0.6605712678404081  1.0000
  H   H25       1.0  0.7763074514053048  0.11384874659310996  0.8339944814937796  1.0000
  Zn  Zn1       1.0  0.9010697008074218  0.3995488659386603  0.3956555650299219  1.0000
  Zn  Zn2       1.0  0.08062330882605327  0.3973640544624753  0.392904602256275  1.0000
  C   C30       1.0  0.989676716943564  0.3950636490040489  0.6575807445394177  1.0000
  C   C31       1.0  0.9920182526842982  0.4018508869739344  0.13097953357877024  1.0000
  C   C32       1.0  0.9908579582375012  0.6355896118793258  0.3884457319054855  1.0000
  C   C33       1.0  0.9908369498700431  0.16132336519576818  0.40011462460170844  1.0000
  O   O2        1.0  0.059917333759048376  0.4031157705875473  0.18364565669348032  1.0000
  O   O3        1.0  0.05805467167186662  0.39213956158939434  0.6028262897164571  1.0000
  O   O4        1.0  0.059007613726995034  0.5863673397886544  0.38549787640087363  1.0000
  O   O5        1.0  0.05896433091510489  0.20888800169244662  0.4009739628535307  1.0000
  O   O6        1.0  0.922728617445569  0.5880249194556202  0.38758620536385124  1.0000
  O   O7        1.0  0.9217756756379584  0.39379870090618074  0.6049145412216141  1.0000
  O   O8        1.0  0.9236383454984722  0.40477485293340854  0.18573217498252337  1.0000
  O   O9        1.0  0.922685342170543  0.21054707548107984  0.40306058922929255  1.0000
