data_image0
_chemical_formula_structural       NC9NC3NH7C9H10C6NCOCH7Zn2C4O8
_chemical_formula_sum              "N4 C33 H24 O9 Zn2"
_cell_length_a       16.053384444249904
_cell_length_b       9.272676604525723
_cell_length_c       10.300272075376752
_cell_angle_alpha    85.79057383563607
_cell_angle_beta     89.79678474651607
_cell_angle_gamma    89.72820801156413

_space_group_name_H-M_alt    "P 1"
_space_group_IT_number       1

loop_
  _space_group_symop_operation_xyz
  'x, y, z'

loop_
  _atom_site_type_symbol
  _atom_site_label
  _atom_site_symmetry_multiplicity
  _atom_site_fract_x
  _atom_site_fract_y
  _atom_site_fract_z
  _atom_site_occupancy
  N   N1        1.0  0.7931692165215617  0.5593319403949784  0.5707121442919334  1.0000
  C   C1        1.0  0.742290697443167  0.5362526500026615  0.49577945834850334  1.0000
  C   C2        1.0  0.6790626318696744  0.507576373762652  0.4026947715066671  1.0000
  C   C3        1.0  0.6926143775404947  0.49421572134977954  0.2719185938691542  1.0000
  C   C4        1.0  0.6158372364984387  0.46611500413482365  0.21955874076931892  1.0000
  C   C5        1.0  0.5587224913277815  0.46389562687182256  0.32121452697549846  1.0000
  C   C6        1.0  0.4679234588796479  0.4374509563699655  0.3108650176092338  1.0000
  C   C7        1.0  0.4122850767953457  0.4848390411970914  0.404950702896961  1.0000
  C   C8        1.0  0.3265975119031094  0.4597587728045953  0.3950388014810791  1.0000
  C   C9        1.0  0.270189684127885  0.5090832566247585  0.49150380031133833  1.0000
  N   N2        1.0  0.2248544158410018  0.5487331866168854  0.5690465555761415  1.0000
  C   C10       1.0  0.2958216056810994  0.3871660802199342  0.2910544375748554  1.0000
  C   C11       1.0  0.3504521607026349  0.33991072165238057  0.19718092532896536  1.0000
  C   C12       1.0  0.4359327628262306  0.3648071358765552  0.20669555267615403  1.0000
  N   N3        1.0  0.5980453203489537  0.4893594270364048  0.43286118847642335  1.0000
  H   H1        1.0  0.7514058756884227  0.503822465204718  0.22034382411680745  1.0000
  H   H2        1.0  0.6034988135296571  0.4508605736194118  0.11833087198286843  1.0000
  H   H3        1.0  0.4349216370149682  0.5430532196651381  0.48497115976942196  1.0000
  H   H4        1.0  0.2296888189223413  0.367221101650255  0.28254448065100646  1.0000
  H   H5        1.0  0.3265354344087711  0.28351945258105427  0.11693376346727516  1.0000
  H   H6        1.0  0.4768379294265864  0.3254814081560842  0.13329911570411704  1.0000
  H   H7        1.0  0.5718894597032222  0.4919534492646922  0.525623975674117  1.0000
  C   C13       1.0  0.006655671654371755  0.1306024363084719  0.5682295136319044  1.0000
  C   C14       1.0  0.9733061387731893  0.1954935132499176  0.6759072720629296  1.0000
  C   C15       1.0  0.9475776204533881  0.11196067600241855  0.7867294094296149  1.0000
  C   C16       1.0  0.9543683682873424  0.9610429506692363  0.7936027480496386  1.0000
  C   C17       1.0  0.9863531993700794  0.894735962579087  0.6849297393062583  1.0000
  C   C18       1.0  0.011375879303783032  0.9774514212775571  0.5715403382047277  1.0000
  C   C19       1.0  0.925660772775176  0.8781008739394669  0.9184591352639557  1.0000
  C   C20       1.0  0.8835624074423837  0.7330432258509905  0.9056918702864891  1.0000
  C   C21       1.0  0.9715154977792526  0.7383136896896836  0.9602996481894103  1.0000
  H   H8        1.0  0.025165545521743445  0.429026123541806  0.3553594241275104  1.0000
  H   H9        1.0  0.9689109310398502  0.3121239817972827  0.6757993934918269  1.0000
  H   H10       1.0  0.9228964227955497  0.16599311215699353  0.8684187540721718  1.0000
  H   H11       1.0  0.9903269496083718  0.7782377640020488  0.6861202918932752  1.0000
  H   H12       1.0  0.03300858166337584  0.9001827431231192  0.25348628586674127  1.0000
  H   H13       1.0  0.9020761845967192  0.9387828072611818  0.0003133391021337114  1.0000
  H   H14       1.0  0.8797024851342384  0.6939120051050458  0.8067083365502625  1.0000
  H   H15       1.0  0.8352827490210697  0.705427963859103  0.9807957950715349  1.0000
  H   H16       1.0  0.021057000172342025  0.702256120029081  0.8945641978115608  1.0000
  H   H17       1.0  0.9746380451731356  0.713772752921419  0.06733635530496351  1.0000
  C   C22       1.0  0.009023410645210509  0.5541732000377626  0.1885327332430491  1.0000
  C   C23       1.0  0.9239644201491007  0.5903761138855455  0.1855559480104441  1.0000
  C   C24       1.0  0.8813652873756959  0.6105606215096651  0.06664799749203132  1.0000
  C   C25       1.0  0.9239710071443499  0.5900471616732883  0.950420671340794  1.0000
  C   C26       1.0  0.009008137027985088  0.5538806231958442  0.9512371347891913  1.0000
  C   C27       1.0  0.05115917760280487  0.536670244720876  0.07080116614003895  1.0000
  N   N4        1.0  0.7939745984396948  0.6454104506071381  0.062132072072469624  1.0000
  C   C28       1.0  0.7531252453170644  0.736185999316046  0.15009447120823616  1.0000
  O   O1        1.0  0.7949006341996585  0.812291782919448  0.22249923767262292  1.0000
  C   C29       1.0  0.6603309952782127  0.7490711524422202  0.1493817674479454  1.0000
  H   H18       1.0  0.8904818161237325  0.6000538384711862  0.2758630834533444  1.0000
  H   H19       1.0  0.8904493458812555  0.6036817983048568  0.8592311152132139  1.0000
  H   H20       1.0  0.1167678738470075  0.508786951080817  0.07228560396242868  1.0000
  H   H21       1.0  0.7589720848955647  0.6103058853558991  0.9851689809288554  1.0000
  H   H22       1.0  0.632071174214534  0.641992799458439  0.13669143289514074  1.0000
  H   H23       1.0  0.6377227725353138  0.7881467403832334  0.24266549479147748  1.0000
  H   H24       1.0  0.640747318773037  0.8266252082425041  0.06789781412931029  1.0000
  Zn  Zn1       1.0  0.9177442162774555  0.5562695206074113  0.5702389688423493  1.0000
  Zn  Zn2       1.0  0.10027932693505481  0.551783855021792  0.5695302988813211  1.0000
  C   C30       1.0  0.008977126654766243  0.5481917295688019  0.8070471952910694  1.0000
  C   C31       1.0  0.009048419973598737  0.5598634163709069  0.3327221992676417  1.0000
  C   C32       1.0  0.010479452879089024  0.8173810393261485  0.5657395814831274  1.0000
  C   C33       1.0  0.007546021805402206  0.29067237572950433  0.5740298757801154  1.0000
  O   O2        1.0  0.07832790147478041  0.5600645276252876  0.3808445401020313  1.0000
  O   O3        1.0  0.078237564512182  0.5445850142935833  0.7583866122714024  1.0000
  O   O4        1.0  0.07944977810287046  0.7619588087158442  0.5635290163170861  1.0000
  O   O5        1.0  0.0771156256566694  0.3426907450858653  0.5757020389680985  1.0000
  O   O6        1.0  0.9409078552655751  0.7653626320756476  0.5640672289905816  1.0000
  O   O7        1.0  0.9396956513284943  0.5479905700697518  0.7589247624753757  1.0000
  O   O8        1.0  0.939785988097742  0.5634700337516871  0.38138112877715336  1.0000
  O   O9        1.0  0.9385737122167874  0.3460962408617363  0.5762387249664793  1.0000
