data_image0
_chemical_formula_structural       NC5NC3H4C7NH5C6NCH8Zn2C4O8
_chemical_formula_sum              "N4 C26 H17 Zn2 O8"
_cell_length_a       13.859018345313864
_cell_length_b       9.275154477615127
_cell_length_c       9.274690524155613
_cell_angle_alpha    86.28222006600178
_cell_angle_beta     89.6873584993644
_cell_angle_gamma    89.43370600770291

_space_group_name_H-M_alt    "P 1"
_space_group_IT_number       1

loop_
  _space_group_symop_operation_xyz
  'x, y, z'

loop_
  _atom_site_type_symbol
  _atom_site_label
  _atom_site_symmetry_multiplicity
  _atom_site_fract_x
  _atom_site_fract_y
  _atom_site_fract_z
  _atom_site_occupancy
  N   N1        1.0  0.9040272214837759  0.5640761839685692  0.41638729273113695  1.0000
  C   C1        1.0  0.8317446677882449  0.5249891009749956  0.46748012805535594  1.0000
  C   C2        1.0  0.7418294097075415  0.47637000554245135  0.5310328191565785  1.0000
  C   C3        1.0  0.6541269714594434  0.52376793229412  0.4690767293431725  1.0000
  C   C4        1.0  0.5665991076278851  0.47636971406070583  0.5310326924652824  1.0000
  C   C5        1.0  0.4765047892710581  0.5249889874618818  0.4674800303047091  1.0000
  N   N2        1.0  0.4040783194069652  0.5640761494749695  0.41638722357638924  1.0000
  C   C6        1.0  0.5669561866419005  0.3815595526690122  0.6549632830528798  1.0000
  C   C7        1.0  0.6544757473799976  0.3343440826604317  0.7166809511948108  1.0000
  C   C8        1.0  0.7418215274834372  0.38155984954779565  0.6549634878622865  1.0000
  H   H1        1.0  0.6539917890138655  0.5971535835105348  0.3731511189281087  1.0000
  H   H2        1.0  0.4997294130422006  0.3442525318215238  0.7037285264602264  1.0000
  H   H3        1.0  0.6546105918835115  0.26110741926126857  0.8124120068185952  1.0000
  H   H4        1.0  0.8091856696192086  0.344253065381961  0.7037289538297145  1.0000
  C   C9        1.0  0.15685572294412298  0.1406723029951281  0.4147193830397506  1.0000
  C   C10       1.0  0.13084192983252518  0.22274303378347377  0.2876367963291761  1.0000
  C   C11       1.0  0.09695485467975005  0.15565496738911683  0.16728596425538253  1.0000
  C   C12       1.0  0.08852151446833198  0.005580793316380063  0.1726003268911389  1.0000
  C   C13       1.0  0.1154403342668886  0.9222771232306276  0.29678616715121436  1.0000
  C   C14       1.0  0.1512590653061079  0.9874690238469848  0.4180676341055995  1.0000
  C   C15       1.0  0.06966304343488572  0.24129415207652086  0.03867170104210693  1.0000
  N   N3        1.0  0.04772800759466511  0.3101324378488941  0.9352987776658572  1.0000
  H   H5        1.0  0.17425275866064543  0.22042900919959932  0.7685153568916687  1.0000
  H   H6        1.0  0.13479831741378212  0.3396651346746604  0.2833601682465956  1.0000
  H   H7        1.0  0.061963036655792385  0.9526475022959682  0.08010315384049482  1.0000
  H   H8        1.0  0.11037409571579013  0.8058084216273663  0.2966593219116711  1.0000
  H   H9        1.0  0.16707186190451304  0.6907662502394116  0.6551209999479457  1.0000
  C   C16       1.0  0.15562676607014825  0.5603791580018149  0.9931315966930797  1.0000
  C   C17       1.0  0.23360753643886123  0.6227494409892964  0.062115574285421346  1.0000
  C   C18       1.0  0.30655419517904847  0.6960393771227874  0.9819075586802194  1.0000
  C   C19       1.0  0.3007671862041834  0.7066896619123912  0.8310532090022194  1.0000
  C   C20       1.0  0.22485110748097717  0.6434603692305243  0.7608551496153442  1.0000
  C   C21       1.0  0.15248798120667123  0.5677621358447886  0.8396553354687506  1.0000
  N   N4        1.0  0.3864192417130161  0.7614708988083219  0.050888058776769725  1.0000
  C   C22       1.0  0.39954766995769586  0.7563953685184501  0.20714953734754382  1.0000
  H   H10       1.0  0.04664041393263707  0.3865805000371576  0.28544318523605816  1.0000
  H   H11       1.0  0.3559720579980623  0.7631305347142843  0.767217812160723  1.0000
  H   H12       1.0  0.22407050702750997  0.6508994984196499  0.6438118487852855  1.0000
  H   H13       1.0  0.0004543229926168295  0.5001204809531676  0.5639497089341825  1.0000
  H   H14       1.0  0.43856027691350524  0.8154043331152854  0.9864671599418866  1.0000
  H   H15       1.0  0.46669640727785716  0.8135251976245746  0.23305373850151145  1.0000
  H   H16       1.0  0.4057011661341902  0.6424103028650254  0.2509234952794004  1.0000
  H   H17       1.0  0.33765045106830477  0.8104484060755467  0.2585652803061087  1.0000
  Zn  Zn1       1.0  0.048331159750809816  0.5640723765436272  0.41639559018753514  1.0000
  Zn  Zn2       1.0  0.25977439192338436  0.5640682270218826  0.4163907176848438  1.0000
  C   C23       1.0  0.15311711679369422  0.5606226739869586  0.6796215443116683  1.0000
  C   C24       1.0  0.15499073128579566  0.5675197499974151  0.15316491216918893  1.0000
  C   C25       1.0  0.1523332785543181  0.8273563052776883  0.4116910489247194  1.0000
  C   C26       1.0  0.1557745085384714  0.30078438709715427  0.42109547755283705  1.0000
  O   O1        1.0  0.23501891843921352  0.5699083329526095  0.20687168080462714  1.0000
  O   O2        1.0  0.23356945912322202  0.5582298503133147  0.6259106583460337  1.0000
  O   O3        1.0  0.23293541257976336  0.773620643980107  0.4095548936210567  1.0000
  O   O4        1.0  0.23565289316395854  0.35451754865888946  0.4232273375008764  1.0000
  O   O5        1.0  0.07245258635505536  0.7736230549095404  0.4095589703655902  1.0000
  O   O6        1.0  0.07308662173003343  0.5582339928551985  0.6259146650879563  1.0000
  O   O7        1.0  0.07453608786760622  0.5699124101366432  0.20687395442897102  1.0000
  O   O8        1.0  0.07517006225588463  0.3545216164727707  0.423229719148036  1.0000
