data_image0
_chemical_formula_structural       NC9NC3NH7C6NO2H5C6NO2H3Zn2C4O8
_chemical_formula_sum              "N5 C28 H15 O12 Zn2"
_cell_length_a       16.053384444249904
_cell_length_b       9.273392599741053
_cell_length_c       9.273395971720358
_cell_angle_alpha    85.0859035794884
_cell_angle_beta     89.67931749283619
_cell_angle_gamma    88.5803697124526

_space_group_name_H-M_alt    "P 1"
_space_group_IT_number       1

loop_
  _space_group_symop_operation_xyz
  'x, y, z'

loop_
  _atom_site_type_symbol
  _atom_site_label
  _atom_site_symmetry_multiplicity
  _atom_site_fract_x
  _atom_site_fract_y
  _atom_site_fract_z
  _atom_site_occupancy
  N   N1        1.0  0.7767827605744457  0.5759736838716005  0.40776616446733865  1.0000
  C   C1        1.0  0.7262580448490148  0.5537248009721152  0.32451742261434774  1.0000
  C   C2        1.0  0.6634695607201779  0.5260800910655444  0.2211021777290312  1.0000
  C   C3        1.0  0.6773273324210933  0.5141795071801503  0.07575421506935533  1.0000
  C   C4        1.0  0.600935953171356  0.48665423983399403  0.01760933496234829  1.0000
  C   C5        1.0  0.5437291664276293  0.4832948549665252  0.13061940798444405  1.0000
  C   C6        1.0  0.4532480861291939  0.45695554645951364  0.11917158897593949  1.0000
  C   C7        1.0  0.3969524661523633  0.5033083561424827  0.2236591344003307  1.0000
  C   C8        1.0  0.3115665603967208  0.4783290935308224  0.2126948307444898  1.0000
  C   C9        1.0  0.2544763351177376  0.5265924174695731  0.31982314460402383  1.0000
  N   N2        1.0  0.2085925171983589  0.5653893413739199  0.4059375339071292  1.0000
  C   C10       1.0  0.2817509745088586  0.40687248381091856  0.09725794956395784  1.0000
  C   C11       1.0  0.3370369860667283  0.3606500761106526  0.9930059785489959  1.0000
  C   C12       1.0  0.4222185163159671  0.3854498624896312  0.003529051471476971  1.0000
  N   N3        1.0  0.5826280873995753  0.5075178011962631  0.2546759480913813  1.0000
  H   H1        1.0  0.7360674045833849  0.524368033455699  0.0184005449677569  1.0000
  H   H2        1.0  0.5888912497249953  0.4725280105725864  0.9051127337757179  1.0000
  H   H3        1.0  0.41882281751556466  0.5606492131156411  0.3124877148214449  1.0000
  H   H4        1.0  0.2158588076460044  0.38701486185724554  0.08784100956924439  1.0000
  H   H5        1.0  0.313865639937782  0.30513540033842834  0.9039214411749348  1.0000
  H   H6        1.0  0.4636636799590113  0.3469308088340678  0.922023200457785  1.0000
  H   H7        1.0  0.5563347920435078  0.5090733988227076  0.35778974526425633  1.0000
  C   C13       1.0  0.9952325286194467  0.14709997394114693  0.4059332868412081  1.0000
  C   C14       1.0  0.9847612011682733  0.23206932290147697  0.27410864927242073  1.0000
  C   C15       1.0  0.9669317869250279  0.16872730003394287  0.14710011768015366  1.0000
  C   C16       1.0  0.9589827688791215  0.01849325465587625  0.1483738804071566  1.0000
  C   C17       1.0  0.970754849772081  0.9323340837839977  0.2791863560789096  1.0000
  C   C18       1.0  0.9901507589681551  0.9942516348220862  0.4077827854007303  1.0000
  N   N4        1.0  0.9398612951229377  0.9538093340996832  0.017137892988783102  1.0000
  O   O1        1.0  0.9290638550591799  0.03849997154552496  0.8890234115680721  1.0000
  O   O2        1.0  0.9325237852275967  0.820053548863717  0.017399428159556415  1.0000
  H   H8        1.0  0.9778904552603779  0.22033463052552027  0.7603108874158779  1.0000
  H   H9        1.0  0.9884081566267742  0.3488664936545258  0.2698281406226761  1.0000
  H   H10       1.0  0.9585229055794687  0.23787856601298119  0.047919307147086934  1.0000
  H   H11       1.0  0.9667292722088676  0.8158199616131808  0.28023098405177893  1.0000
  H   H12       1.0  0.9813121831523631  0.6939025410590186  0.6472733907960422  1.0000
  C   C19       1.0  0.9931392151672509  0.5750954345387982  0.9829290045396308  1.0000
  C   C20       1.0  0.9186791236400291  0.6098389288544472  0.05390207304844809  1.0000
  C   C21       1.0  0.8440676253255576  0.6309491121958941  0.9778302294885837  1.0000
  C   C22       1.0  0.8418004639912516  0.6177549391876263  0.8285165978971456  1.0000
  C   C23       1.0  0.9162012037736394  0.5854841223668112  0.7561114360195447  1.0000
  C   C24       1.0  0.9922440480359448  0.5662562036369914  0.8307871209125257  1.0000
  N   N5        1.0  0.7644463332559053  0.6384517203922979  0.7507472472164429  1.0000
  O   O3        1.0  0.69185155549787  0.6712258755808687  0.8218961588593294  1.0000
  O   O4        1.0  0.761864119719465  0.626629509199981  0.6177369898890537  1.0000
  H   H13       1.0  0.17642918617923264  0.40903243973791276  0.09822606349156884  1.0000
  H   H14       1.0  0.7878493213285243  0.6562416573098568  0.0365028986098499  1.0000
  H   H15       1.0  0.11718154074830033  0.4586320941275057  0.5585830995233181  1.0000
  Zn  Zn1       1.0  0.901393740744963  0.5729153375342972  0.407246781815861  1.0000
  Zn  Zn2       1.0  0.08398157160447316  0.5684358131939109  0.4064686896827013  1.0000
  C   C25       1.0  0.9924458819780877  0.5621807200443583  0.6705112258103744  1.0000
  C   C26       1.0  0.9929314131576777  0.5791722002834161  0.14320438285640805  1.0000
  C   C27       1.0  0.9911131045786236  0.83418204423846  0.4016805216646868  1.0000
  C   C28       1.0  0.9942641385671345  0.3071691438081079  0.4120351604495909  1.0000
  O   O5        1.0  0.06215284090040351  0.5788341511033079  0.19669896830492206  1.0000
  O   O6        1.0  0.06180440002917997  0.5591178300669069  0.6164256684942755  1.0000
  O   O7        1.0  0.060727229761463615  0.7787623465467955  0.3993429801298598  1.0000
  O   O8        1.0  0.06322994891564271  0.35918964759896044  0.41378154871585826  1.0000
  O   O9        1.0  0.9221453011255266  0.7821615046595394  0.39993392304063935  1.0000
  O   O10       1.0  0.9232224610749836  0.562518721991148  0.6170165382154946  1.0000
  O   O11       1.0  0.9235709041355976  0.5822350108557723  0.19728810226577692  1.0000
  O   O12       1.0  0.9246480120950475  0.3625904959061742  0.41437079088812756  1.0000
