data_image0
_chemical_formula_structural       NC12NC2H8C10IC2H9C6N2CH6Zn2C4O8
_chemical_formula_sum              "N4 C37 H23 I1 Zn2 O8"
_cell_length_a       17.80743265337812
_cell_length_b       10.299770258652044
_cell_length_c       10.299970628315746
_cell_angle_alpha    85.56248405406784
_cell_angle_beta     91.53112130114359
_cell_angle_gamma    89.45364399786216

_space_group_name_H-M_alt    "P 1"
_space_group_IT_number       1

loop_
  _space_group_symop_operation_xyz
  'x, y, z'

loop_
  _atom_site_type_symbol
  _atom_site_label
  _atom_site_symmetry_multiplicity
  _atom_site_fract_x
  _atom_site_fract_y
  _atom_site_fract_z
  _atom_site_occupancy
  N   N1        1.0  0.7077150607285667  0.4066143340538775  0.601490006286594  1.0000
  C   C1        1.0  0.6569023075250712  0.43617023309748704  0.5327968658105289  1.0000
  C   C2        1.0  0.5936862271593455  0.47293562624838875  0.44735124644183655  1.0000
  C   C3        1.0  0.6054258340685077  0.5269509695365999  0.3207417854814052  1.0000
  C   C4        1.0  0.5441167737707164  0.5622128798853055  0.23769192698812547  1.0000
  C   C5        1.0  0.47091386750238773  0.5437228838276482  0.2805916799463528  1.0000
  C   C6        1.0  0.4581974545380371  0.4895887563292421  0.40766924990363845  1.0000
  C   C7        1.0  0.5203638319120116  0.4543300992315368  0.49070259783883285  1.0000
  C   C8        1.0  0.38042606964617026  0.469984752827516  0.45342906969145114  1.0000
  C   C9        1.0  0.3616425231667891  0.49717555394640683  0.5804676937284561  1.0000
  C   C10       1.0  0.2884096777033208  0.478727132201167  0.6234080096374348  1.0000
  C   C11       1.0  0.23301734572961694  0.43283367262604155  0.5401476075376062  1.0000
  C   C12       1.0  0.157647765621122  0.413832485581671  0.5844887392089368  1.0000
  N   N2        1.0  0.09705596056524292  0.39855680911552205  0.6201359586973698  1.0000
  C   C13       1.0  0.2511093573047764  0.40547398186024397  0.4136519123449764  1.0000
  C   C14       1.0  0.32428935544389004  0.4239371791062878  0.3704557249067342  1.0000
  H   H1        1.0  0.6618948949952426  0.5417732272451965  0.28630760322451776  1.0000
  H   H2        1.0  0.5533244613763687  0.6043056573693852  0.1399208444143769  1.0000
  H   H3        1.0  0.4242812188044992  0.5733555097230973  0.2150063118036587  1.0000
  H   H4        1.0  0.5118542805085076  0.41085202604709686  0.5883491640821534  1.0000
  H   H5        1.0  0.4033243436896933  0.5343568699785346  0.6460391406552339  1.0000
  H   H6        1.0  0.2749683304822807  0.5005761739420476  0.7214125151800812  1.0000
  H   H7        1.0  0.2087108777641582  0.3695599475930529  0.3484934675131506  1.0000
  H   H8        1.0  0.3372020260727576  0.4005526213309334  0.27275445119848407  1.0000
  C   C15       1.0  0.9023183086187275  0.0212217187010022  0.6108066471764928  1.0000
  C   C16       1.0  0.9078978908913091  0.030666110902146226  0.47468353704439553  1.0000
  C   C17       1.0  0.9107971021388676  0.9183108854129051  0.4057214597993361  1.0000
  C   C18       1.0  0.9080410165818237  0.7953753542793225  0.47470800694364507  1.0000
  C   C19       1.0  0.902459891982515  0.7839392810892823  0.6108308752102165  1.0000
  C   C20       1.0  0.8996302039292335  0.897418778791721  0.6781180049367865  1.0000
  C   C21       1.0  0.9167002790456183  0.9293555900464637  0.26171640795240014  1.0000
  C   C22       1.0  0.9647749768528734  0.8455240466904979  0.20007461557372208  1.0000
  C   C23       1.0  0.9702554645694444  0.8561329108299464  0.0645222261016396  1.0000
  C   C24       1.0  0.9278797873940938  0.9502720641420385  0.9889777964778393  1.0000
  I   I1        1.0  0.9362601837408332  0.965951763548173  0.7845193195362697  1.0000
  C   C25       1.0  0.8799430329768185  0.03400645314709427  0.04910747935467197  1.0000
  C   C26       1.0  0.8743120047524691  0.023826051588968774  0.18463413035915321  1.0000
  H   H9        1.0  0.9001581078174874  0.3450774001568573  0.6626700866672683  1.0000
  H   H10       1.0  0.9110385386763368  0.12561012220211754  0.4221449875890451  1.0000
  H   H11       1.0  0.9092217662180195  0.7085161788783632  0.42183500120546386  1.0000
  H   H12       1.0  0.8953251292507406  0.8893646454467181  0.7831306344346365  1.0000
  H   H13       1.0  0.9003665764563019  0.45212700251159643  0.6627055836531905  1.0000
  H   H14       1.0  0.9988286108210593  0.7729532150470337  0.2567819493664021  1.0000
  H   H15       1.0  0.007595553430162387  0.7913521899885905  0.01831541167317252  1.0000
  H   H16       1.0  0.8468834233941175  0.10679589933113552  0.9908846490708036  1.0000
  H   H17       1.0  0.8361149458984752  0.08864490874082122  0.22900959668273968  1.0000
  C   C27       1.0  0.9024006374759659  0.40257709348614207  0.22946588593793216  1.0000
  C   C28       1.0  0.8244306920277725  0.42554920412210756  0.22304147964847276  1.0000
  C   C29       1.0  0.7852542416302388  0.4370918305892388  0.10314507883946256  1.0000
  C   C30       1.0  0.8243846360707185  0.4255628936175548  0.9878225599493797  1.0000
  C   C31       1.0  0.902377574718845  0.4025838858539844  0.9921715883386137  1.0000
  C   C32       1.0  0.9409008739059181  0.39123387311737545  0.11347089134082335  1.0000
  N   N3        1.0  0.7057500237229617  0.46051609845004826  0.10135846631335643  1.0000
  N   N4        1.0  0.6665123339636626  0.4720765185741096  0.9960206060581055  1.0000
  C   C33       1.0  0.5860556917370043  0.4957814834632774  0.9985947568550668  1.0000
  H   H18       1.0  0.7936665367965885  0.4346131551455176  0.3112907633197757  1.0000
  H   H19       1.0  0.7941217736989409  0.43447922802429456  0.8949229067337164  1.0000
  H   H20       1.0  0.0009908815553032458  0.37352969172188044  0.11761192425994715  1.0000
  H   H21       1.0  0.5588468656707017  0.41432931056384903  0.05587842245611219  1.0000
  H   H22       1.0  0.5624083563912915  0.5027488132991974  0.8975258604272663  1.0000
  H   H23       1.0  0.5747917900930878  0.5885686497450875  0.04313446120515318  1.0000
  Zn  Zn1       1.0  0.8200704366637079  0.40428563924245675  0.60687831188484  1.0000
  Zn  Zn2       1.0  0.9847005798492817  0.40087491070522313  0.6147582453681437  1.0000
  C   C34       1.0  0.9023792945961505  0.39740906517272817  0.8480036542106851  1.0000
  C   C35       1.0  0.902393519973222  0.4077530861285894  0.3736331166040139  1.0000
  C   C36       1.0  0.9024294267438078  0.6397694808678661  0.605651137403056  1.0000
  C   C37       1.0  0.9023433313570556  0.16539111131632178  0.6159856999089728  1.0000
  O   O1        1.0  0.9648674115842186  0.40819017717273853  0.42500734970996473  1.0000
  O   O2        1.0  0.9648558722102224  0.39438233037502823  0.8026097344279214  1.0000
  O   O3        1.0  0.9648955123024717  0.5900914485752575  0.6069083221518272  1.0000
  O   O4        1.0  0.9648277153195227  0.21248106942558387  0.6207086619268967  1.0000
  O   O5        1.0  0.8399432450132792  0.5926794816874243  0.600927892630222  1.0000
  O   O6        1.0  0.8399036052093515  0.3969719237696523  0.7966292357131202  1.0000
  O   O7        1.0  0.8399151446721286  0.4107797252969713  0.41902528966115016  1.0000
  O   O8        1.0  0.8398754483996917  0.2150706082620699  0.6147266992413791  1.0000
