data_image0
_chemical_formula_structural       NC12NC2H8C6NCH9C6H6Zn2C4O8
_chemical_formula_sum              "N3 C31 H23 Zn2 O8"
_cell_length_a       19.240039667572717
_cell_length_b       9.273386996610926
_cell_length_c       10.681121600428288
_cell_angle_alpha    85.46621756597041
_cell_angle_beta     89.99986269578453
_cell_angle_gamma    89.39858615406628

_space_group_name_H-M_alt    "P 1"
_space_group_IT_number       1

loop_
  _space_group_symop_operation_xyz
  'x, y, z'

loop_
  _atom_site_type_symbol
  _atom_site_label
  _atom_site_symmetry_multiplicity
  _atom_site_fract_x
  _atom_site_fract_y
  _atom_site_fract_z
  _atom_site_occupancy
  N   N1        1.0  0.6464912420043323  0.5788741582482004  0.6164059965883792  1.0000
  C   C1        1.0  0.5863428727151728  0.5788742515418193  0.6164059174473226  1.0000
  C   C2        1.0  0.5115248349150255  0.5788743818331261  0.6164057848644319  1.0000
  C   C3        1.0  0.4754132930934087  0.5072603259842889  0.7162242151391439  1.0000
  C   C4        1.0  0.4027431680460783  0.507137149706623  0.7163078389222018  1.0000
  C   C5        1.0  0.36519259945775157  0.5788744846639751  0.6164055651718007  1.0000
  C   C6        1.0  0.4020177082055269  0.6506120273379457  0.5165034787204015  1.0000
  C   C7        1.0  0.4746890210452896  0.6504885894482197  0.5165872209955447  1.0000
  C   C8        1.0  0.2879875094603213  0.5788743972821744  0.6164054732876243  1.0000
  C   C9        1.0  0.2514361812320041  0.4530552329915373  0.6569570859651754  1.0000
  C   C10       1.0  0.17876489217425698  0.45317398689945143  0.6568688562715599  1.0000
  C   C11       1.0  0.14165522326300858  0.5788742537864344  0.6164055322234457  1.0000
  C   C12       1.0  0.0668371867469935  0.578874127429464  0.6164057721785661  1.0000
  N   N2        1.0  0.006688870124070198  0.5788740820772562  0.616405973216072  1.0000
  C   C13       1.0  0.17749306478228208  0.7045746049090928  0.5759421570557597  1.0000
  C   C14       1.0  0.25016315931445854  0.7046935589108738  0.5758537702951143  1.0000
  H   H1        1.0  0.5034085597049708  0.45181515873488354  0.7941589512497154  1.0000
  H   H2        1.0  0.3759257752867348  0.4525785436022592  0.7953169870415558  1.0000
  H   H3        1.0  0.3746485700247678  0.7051706634947768  0.4374942815269193  1.0000
  H   H4        1.0  0.5021235264599538  0.7059336453153091  0.4386527509843347  1.0000
  H   H5        1.0  0.2790304761993759  0.3540142868079861  0.6871503262068241  1.0000
  H   H6        1.0  0.1515460152797978  0.3551319067822482  0.688056759435353  1.0000
  H   H7        1.0  0.1492821183668322  0.8026166577687235  0.5447542679608739  1.0000
  H   H8        1.0  0.2767553427193745  0.8037345930503463  0.545660486757851  1.0000
  C   C15       1.0  0.8287306838704572  0.1552201457214603  0.6170213458172649  1.0000
  C   C16       1.0  0.8409344725172528  0.23869574245572966  0.5037916735869514  1.0000
  C   C17       1.0  0.8465941521555006  0.1741928514879718  0.3905550030007976  1.0000
  C   C18       1.0  0.8401356585156426  0.02389218777177727  0.3876528060399402  1.0000
  C   C19       1.0  0.8291566985734206  0.9394536764856811  0.5004891435749124  1.0000
  C   C20       1.0  0.8244561432973587  0.0025170027715062356  0.6158014608180826  1.0000
  N   N3        1.0  0.8452077889390899  0.9543528722081469  0.27207825249190143  1.0000
  C   C21       1.0  0.8567861708466239  0.03224936656464993  0.14987311685641957  1.0000
  H   H9        1.0  0.8429303201813345  0.41736486534446215  0.8226193250075853  1.0000
  H   H10       1.0  0.844479472217517  0.35534163531220675  0.5022552838122935  1.0000
  H   H11       1.0  0.8553591717667168  0.2427949680490489  0.3054912593368739  1.0000
  H   H12       1.0  0.8258761106262129  0.8230526073419249  0.49851358650545435  1.0000
  H   H13       1.0  0.8500467042509711  0.8711550510889847  0.9208139438691179  1.0000
  H   H14       1.0  0.8402940191239581  0.8419857503090523  0.27467508616921904  1.0000
  H   H15       1.0  0.8136992817686907  0.11082293391503328  0.1281148059681958  1.0000
  H   H16       1.0  0.9070925795290262  0.08980110809695407  0.1500751875857862  1.0000
  H   H17       1.0  0.858538275626437  0.9548127716845296  0.07573595485877904  1.0000
  C   C22       1.0  0.8265934361944625  0.5788685638061599  0.2486661630558253  1.0000
  C   C23       1.0  0.7772509144125608  0.4986321691342321  0.18735920040177678  1.0000
  C   C24       1.0  0.7772508705517682  0.49863226163995744  0.05647706031570299  1.0000
  C   C25       1.0  0.8265933811992549  0.5788686345260355  0.9841565986303569  1.0000
  C   C26       1.0  0.8758951784375365  0.6590385372555891  0.04546307667365591  1.0000
  C   C27       1.0  0.8758951696580536  0.6590385148848686  0.17635537536891133  1.0000
  H   H18       1.0  0.8764918016460413  0.6600096053023295  0.5418070779644991  1.0000
  H   H19       1.0  0.7385739164698191  0.43573909084861  0.24048658943020018  1.0000
  H   H20       1.0  0.7385739016115964  0.43573915875787317  0.011982560106896136  1.0000
  H   H21       1.0  0.914577226730828  0.7219399032297166  0.9923800110802301  1.0000
  H   H22       1.0  0.9145771919676915  0.7219398526558072  0.22080437863745445  1.0000
  H   H23       1.0  0.8764920211027634  0.6600091026676327  0.6798780529747125  1.0000
  Zn  Zn1       1.0  0.7504365253849752  0.5788702846319114  0.6164132163050144  1.0000
  Zn  Zn2       1.0  0.9027436648827064  0.5788661876398584  0.6164089907167596  1.0000
  C   C28       1.0  0.8266208542527174  0.5731212740641429  0.8451414483810582  1.0000
  C   C29       1.0  0.8265609900209341  0.5846170184678132  0.38768087888670955  1.0000
  C   C30       1.0  0.8252605568332867  0.842359874881622  0.6110417264558932  1.0000
  C   C31       1.0  0.827921244212924  0.3153766843473802  0.6217806700740811  1.0000
  O   O1        1.0  0.8843498982250544  0.586538403635696  0.4343338929077547  1.0000
  O   O2        1.0  0.8844295462706954  0.5711956910228098  0.7984848683121851  1.0000
  O   O3        1.0  0.8833303097326534  0.7886092661907871  0.6094476844250967  1.0000
  O   O4        1.0  0.885449082738926  0.36912483878940616  0.6233709828852853  1.0000
  O   O5        1.0  0.767731055553796  0.7886116334853324  0.6094512241313415  1.0000
  O   O6        1.0  0.768830283344319  0.5711997916232777  0.7984883387510772  1.0000
  O   O7        1.0  0.7687506355985928  0.5865424539622696  0.43433585779644257  1.0000
  O   O8        1.0  0.7698498201616752  0.3691288787972604  0.6233730416783846  1.0000
