data_image0
_chemical_formula_structural       NC5NC4H6C7NH5C6NH7Zn2C4O8
_chemical_formula_sum              "N4 C26 H18 Zn2 O8"
_cell_length_a       13.854160002989762
_cell_length_b       9.275154477615127
_cell_length_c       9.274774538082514
_cell_angle_alpha    85.29330631285735
_cell_angle_beta     90.34967120186236
_cell_angle_gamma    89.43370676253429

_space_group_name_H-M_alt    "P 1"
_space_group_IT_number       1

loop_
  _space_group_symop_operation_xyz
  'x, y, z'

loop_
  _atom_site_type_symbol
  _atom_site_label
  _atom_site_symmetry_multiplicity
  _atom_site_fract_x
  _atom_site_fract_y
  _atom_site_fract_z
  _atom_site_occupancy
  N   N1        1.0  0.891898552601034  0.5916841319195489  0.414367687224043  1.0000
  C   C1        1.0  0.8191545942287506  0.6174021297276926  0.3553549449276592  1.0000
  C   C2        1.0  0.7286600778921839  0.6493960222978461  0.2819408328137436  1.0000
  C   C3        1.0  0.6415809068203351  0.6192976544560641  0.3536277195311255  1.0000
  C   C4        1.0  0.5535176653302646  0.6493960368244212  0.2819408096719833  1.0000
  C   C5        1.0  0.4640464542164812  0.617401981658984  0.3553550360674169  1.0000
  N   N2        1.0  0.3921249824218292  0.5916840684444709  0.41436768688496883  1.0000
  C   C6        1.0  0.5525623068390845  0.7101988096832026  0.1385884388736025  1.0000
  C   C7        1.0  0.6395941286545672  0.74244748881513  0.06680654012680387  1.0000
  C   C8        1.0  0.6385568765092757  0.8035914252830002  0.9119531824325687  1.0000
  C   C9        1.0  0.7276393955090357  0.7101988091449354  0.13858834848837742  1.0000
  H   H1        1.0  0.6423463753861147  0.5721262310877058  0.4645793803153959  1.0000
  H   H2        1.0  0.4843147544657343  0.7324629268108069  0.08296272342452093  1.0000
  H   H3        1.0  0.702862727315809  0.8719366611956848  0.888410591631791  1.0000
  H   H4        1.0  0.5731542499147144  0.8719366625048165  0.8884106567974258  1.0000
  H   H5        1.0  0.638857440312307  0.7137206181380897  0.839958668308797  1.0000
  H   H6        1.0  0.7951377124511786  0.7324630400013443  0.08296263834888551  1.0000
  C   C10       1.0  0.14480260727140748  0.16830933062996367  0.412697684712493  1.0000
  C   C11       1.0  0.11778094329939946  0.2525955577297523  0.2854530142172491  1.0000
  C   C12       1.0  0.08293614149520342  0.18760562941583303  0.16494868291974019  1.0000
  C   C13       1.0  0.07454160973817234  0.03743880723595328  0.1702698223083503  1.0000
  C   C14       1.0  0.1024458520950835  0.9519701413271546  0.29461405198612384  1.0000
  C   C15       1.0  0.139230301080965  0.015047679639784045  0.4160502053524249  1.0000
  C   C16       1.0  0.05462397369495075  0.27548701291332534  0.03617038225829505  1.0000
  N   N3        1.0  0.031868832752961485  0.34612745219495444  0.9326656147916124  1.0000
  H   H7        1.0  0.16498624397220094  0.24189812858797113  0.7669448898458591  1.0000
  H   H8        1.0  0.12170510806510992  0.36959221532623454  0.28117093229171797  1.0000
  H   H9        1.0  0.04724687854936115  0.9861180670989875  0.07765467539380899  1.0000
  H   H10       1.0  0.09737684004246348  0.8355036510395354  0.2944870442793279  1.0000
  H   H11       1.0  0.1569116571195639  0.7142122321026458  0.6534059095539889  1.0000
  C   C17       1.0  0.14025993996306996  0.5953659437879242  0.9905722080815248  1.0000
  C   C18       1.0  0.20809429289968961  0.680445417543242  0.05764557367611612  1.0000
  C   C19       1.0  0.2803371099180871  0.7536487271126333  0.9771704921381881  1.0000
  C   C20       1.0  0.28533239321307735  0.7421045663122343  0.8281473706053313  1.0000
  C   C21       1.0  0.21778681369408615  0.6602010889790622  0.7593840171241948  1.0000
  C   C22       1.0  0.14377295464958695  0.5879910047772074  0.8381756351694444  1.0000
  N   N4        1.0  0.34928087226033755  0.8385276240215307  0.04724830878909625  1.0000
  H   H12       1.0  0.9978365708605819  0.31353220216072164  0.11537665729316449  1.0000
  H   H13       1.0  0.2063118353757351  0.6872831704888529  0.17369277552731632  1.0000
  H   H14       1.0  0.3411146426156042  0.7978074022980621  0.764837145392411  1.0000
  H   H15       1.0  0.22211734868067667  0.656190734540149  0.6431950896633571  1.0000
  H   H16       1.0  0.044852525882181235  0.4025551266461335  0.5713596567613202  1.0000
  H   H17       1.0  0.3464184537415673  0.8475686900650918  0.15865402765891393  1.0000
  H   H18       1.0  0.4036774071164808  0.8930967065399653  0.9882222793112972  1.0000
  Zn  Zn1       1.0  0.036253160295995894  0.5916801810682399  0.4143760149085718  1.0000
  Zn  Zn2       1.0  0.24777050266706402  0.591676118289949  0.4143711649775159  1.0000
  C   C23       1.0  0.14314456938817544  0.5836415250561344  0.6779376998409963  1.0000
  C   C24       1.0  0.14088139195339977  0.5997165921301693  0.1508096288434171  1.0000
  C   C25       1.0  0.1402547771307674  0.8550461273906399  0.4096654876656034  1.0000
  C   C26       1.0  0.1437711237528292  0.3283102569658436  0.41908191110477344  1.0000
  O   O1        1.0  0.22135972740889853  0.6011688778611322  0.2045849056113911  1.0000
  O   O2        1.0  0.22320300804992801  0.5821850717513606  0.6241583223395137  1.0000
  O   O3        1.0  0.22086838840090964  0.8013477074801107  0.40752661889760855  1.0000
  O   O4        1.0  0.22369427436501477  0.3820062533887738  0.4212165008867794  1.0000
  O   O5        1.0  0.06032931641751513  0.8013500459724379  0.4075306789933789  1.0000
  O   O6        1.0  0.0626639243439826  0.5821891430765294  0.6241623123433901  1.0000
  O   O7        1.0  0.06082063690626868  0.6011729140427864  0.20458716028728463  1.0000
  O   O8        1.0  0.06315518437475709  0.38201027831705825  0.4212188637232598  1.0000
