data_image0
_chemical_formula_structural       NC6NCNCH5C9H10C7ONH5Zn2C4O8
_chemical_formula_sum              "N4 C28 H20 O9 Zn2"
_cell_length_a       14.933214217465613
_cell_length_b       10.297183801781406
_cell_length_c       9.273042158839658
_cell_angle_alpha    86.13565984305119
_cell_angle_beta     90.05893816914777
_cell_angle_gamma    90.03175022610812

_space_group_name_H-M_alt    "P 1"
_space_group_IT_number       1

loop_
  _space_group_symop_operation_xyz
  'x, y, z'

loop_
  _atom_site_type_symbol
  _atom_site_label
  _atom_site_symmetry_multiplicity
  _atom_site_fract_x
  _atom_site_fract_y
  _atom_site_fract_z
  _atom_site_occupancy
  N   N1        1.0  0.8415841753169236  0.4073760073627213  0.40853721250199376  1.0000
  C   C1        1.0  0.7640928863861475  0.4082644512641151  0.4075463313541505  1.0000
  C   C2        1.0  0.6676931627244825  0.40937211262162804  0.406310825085219  1.0000
  C   C3        1.0  0.619967650553189  0.3240090211955151  0.5015357345965532  1.0000
  C   C4        1.0  0.5264331076585724  0.32497429407808576  0.5004589756075264  1.0000
  C   C5        1.0  0.4797217796347144  0.41125374967251616  0.4042118733333645  1.0000
  C   C6        1.0  0.38314842958476314  0.40937403577123144  0.40630875342974937  1.0000
  N   N2        1.0  0.3056646039686584  0.40780593555527545  0.40805764152612856  1.0000
  C   C7        1.0  0.5275448092675822  0.4976947453858249  0.3077846608923393  1.0000
  N   N3        1.0  0.4821292534318434  0.5873722468126692  0.20774718096557487  1.0000
  C   C8        1.0  0.6215607079294636  0.495868263702562  0.3098222696622859  1.0000
  H   H1        1.0  0.6550431981152316  0.25670596406742807  0.5766141287259687  1.0000
  H   H2        1.0  0.4904269934372458  0.2582373995388451  0.5749056704902651  1.0000
  H   H3        1.0  0.5184114612112634  0.6507111137963686  0.13709086697485318  1.0000
  H   H4        1.0  0.41238225041991466  0.5921438552486731  0.2024243908091991  1.0000
  H   H5        1.0  0.6586920362142668  0.5619336737371265  0.2361244684976766  1.0000
  C   C9        1.0  0.07363201115646989  0.02611733839771513  0.4085016656528577  1.0000
  C   C10       1.0  0.07086807473460222  0.0345360935049439  0.25683136088913017  1.0000
  C   C11       1.0  0.06945182215024293  0.9222327803526176  0.17912622866366454  1.0000
  C   C12       1.0  0.0708569894660509  0.7993594143415768  0.2562435096313813  1.0000
  C   C13       1.0  0.07362535583906427  0.7890547024545569  0.40810565420193823  1.0000
  C   C14       1.0  0.07499394528143122  0.9029003721339036  0.4832434117193174  1.0000
  C   C15       1.0  0.06646218198334286  0.9407704530414258  0.01508408464834598  1.0000
  C   C16       1.0  0.013946428180160236  0.8412438275725669  0.9349023617615434  1.0000
  C   C17       1.0  0.11596063943909685  0.8416031083912253  0.9302181592906256  1.0000
  H   H6        1.0  0.0747055474156868  0.35041178388709904  0.4669450901427498  1.0000
  H   H7        1.0  0.06980123082960726  0.12920856296858108  0.19827825516654407  1.0000
  H   H8        1.0  0.0698175991312151  0.7112187645394381  0.19931641457038865  1.0000
  H   H9        1.0  0.07712593144143164  0.8956776824995883  0.6002602372760169  1.0000
  H   H10       1.0  0.07884212503212806  0.562375542318712  0.6949304966693304  1.0000
  H   H11       1.0  0.06550208120034129  0.04098499560457068  0.9623580549429791  1.0000
  H   H12       1.0  0.9841312325582604  0.7582008783788917  0.0005270450152190572  1.0000
  H   H13       1.0  0.9822511973221763  0.8811201468768036  0.8329573780324737  1.0000
  H   H14       1.0  0.14811359973471871  0.7587792098529668  0.9929981935207016  1.0000
  H   H15       1.0  0.14388822426878112  0.8816870315794049  0.8255341354773794  1.0000
  C   C18       1.0  0.07320050646546972  0.40357084352530026  0.9850412958941867  1.0000
  C   C19       1.0  0.9909525817299479  0.41176680175920155  0.057802798157980055  1.0000
  C   C20       1.0  0.9103216275815956  0.43252946921279917  0.9816191387373139  1.0000
  C   C21       1.0  0.9124350691945182  0.4435275807474828  0.8301125471082338  1.0000
  C   C22       1.0  0.9932170437843842  0.433423007467872  0.7563441189200975  1.0000
  C   C23       1.0  0.07405687205054612  0.41160115986866197  0.8315660820937216  1.0000
  C   C24       1.0  0.8247508207811047  0.44141804238134896  0.06156292646753191  1.0000
  O   O1        1.0  0.8187687883954402  0.3911422300057852  0.18896582165216236  1.0000
  N   N4        1.0  0.7485797796852022  0.5072512006932686  0.9980709669311467  1.0000
  H   H16       1.0  0.2904615816551961  0.453391598887904  0.08475109757444872  1.0000
  H   H17       1.0  0.8515397423623103  0.4563151894911883  0.7675456720925931  1.0000
  H   H18       1.0  0.22049791583251097  0.4391307509742381  0.5484787596686176  1.0000
  H   H19       1.0  0.7528918078814739  0.5633512259558249  0.9003715671688192  1.0000
  H   H20       1.0  0.6880546715924343  0.5070489190934757  0.054376045967775344  1.0000
  Zn  Zn1       1.0  0.9755077714022238  0.40749666874295243  0.4084071526487498  1.0000
  Zn  Zn2       1.0  0.17174100528789968  0.4076747294257155  0.40819954334309616  1.0000
  C   C25       1.0  0.0738930248222121  0.40490818385756944  0.67155743585119  1.0000
  C   C26       1.0  0.07335789485750005  0.41026485666721824  0.14504939849152482  1.0000
  C   C27       1.0  0.07361618168221586  0.6447888072813811  0.40243687206222867  1.0000
  C   C28       1.0  0.07363467112819146  0.17038267318043476  0.41417004000589314  1.0000
  O   O2        1.0  0.14788020547070002  0.41257333443161043  0.1986707957071856  1.0000
  O   O3        1.0  0.14830719778913215  0.4027338661037571  0.61777805357182  1.0000
  O   O4        1.0  0.1480826410841809  0.5964405165293494  0.4004612946006349  1.0000
  O   O5        1.0  0.14810469510513577  0.21886669221284058  0.4159874466730924  1.0000
  O   O6        1.0  0.9991440146202079  0.5963047058964062  0.4006192493820182  1.0000
  O   O7        1.0  0.9993685712296846  0.4025996154743643  0.6179359306910608  1.0000
  O   O8        1.0  0.998941577218195  0.4124390220949441  0.19882693992894418  1.0000
  O   O9        1.0  0.9991660669583661  0.21873237160993098  0.4161436989633937  1.0000
