data_image0
_chemical_formula_structural       NC8NH4C6NH5C7NH4Zn2C4O8
_chemical_formula_sum              "N4 C25 H13 Zn2 O8"
_cell_length_a       14.927258825633057
_cell_length_b       9.274771166103582
_cell_length_c       9.275157849593905
_cell_angle_alpha    86.00874675488272
_cell_angle_beta     89.74087939768596
_cell_angle_gamma    90.59705077502286

_space_group_name_H-M_alt    "P 1"
_space_group_IT_number       1

loop_
  _space_group_symop_operation_xyz
  'x, y, z'

loop_
  _atom_site_type_symbol
  _atom_site_label
  _atom_site_symmetry_multiplicity
  _atom_site_fract_x
  _atom_site_fract_y
  _atom_site_fract_z
  _atom_site_occupancy
  N   N1        1.0  0.8581652175333185  0.5633170822087882  0.4075130074649399  1.0000
  C   C1        1.0  0.7806387929878167  0.5633170558439344  0.4075130171633319  1.0000
  C   C2        1.0  0.6842061510888571  0.5633170560846936  0.4075130722329512  1.0000
  C   C3        1.0  0.6368279800952338  0.4741171882490269  0.31795604218100726  1.0000
  C   C4        1.0  0.5431166680352839  0.47411709812210784  0.3179560138873163  1.0000
  C   C5        1.0  0.496390154265119  0.5633171082943387  0.40751298433775673  1.0000
  C   C6        1.0  0.5437683256261694  0.6525169854061647  0.4970699063254146  1.0000
  C   C7        1.0  0.6374797046776202  0.6525170755301741  0.49706993462503385  1.0000
  C   C8        1.0  0.3999575120397909  0.5633170101222742  0.40751292959077384  1.0000
  N   N2        1.0  0.3224310881880848  0.5633170914464034  0.4075129410414817  1.0000
  H   H1        1.0  0.6722705754171048  0.40471446130251637  0.2482756659123555  1.0000
  H   H2        1.0  0.5071669191137336  0.40471443855943035  0.24827576316451877  1.0000
  H   H3        1.0  0.5083257303042986  0.7219197123526758  0.5667502825940659  1.0000
  H   H4        1.0  0.6734293862402427  0.7219197258196013  0.5667502934061894  1.0000
  C   C9        1.0  0.08754996636209356  0.13972808063344933  0.40829848930880047  1.0000
  C   C10       1.0  0.0672895381490839  0.22179518838955325  0.27942624570552343  1.0000
  C   C11       1.0  0.055395472187226284  0.1554962806836695  0.1497363629702846  1.0000
  C   C12       1.0  0.06381137910055368  0.005743741803850401  0.1479793678917718  1.0000
  C   C13       1.0  0.0824201094646011  0.9223401495070598  0.27508128375751406  1.0000
  C   C14       1.0  0.09305483656524838  0.9868951034916418  0.4067400064992174  1.0000
  N   N3        1.0  0.035689332501577464  0.24064923997734344  0.019447738679694966  1.0000
  H   H5        1.0  0.18750296788537657  0.22242707660921468  0.7236885135370772  1.0000
  H   H6        1.0  0.05508409232431654  0.9532951379671178  0.048196087541830364  1.0000
  H   H7        1.0  0.1567403848879949  0.6918961699155565  0.6213168926875983  1.0000
  H   H8        1.0  0.029517235215857033  0.35272269069162143  0.01940093229037365  1.0000
  H   H9        1.0  0.027039872561608558  0.1922406778264829  0.922034429971422  1.0000
  C   C15       1.0  0.09146459710570065  0.5592342687327339  0.9843289633400621  1.0000
  C   C16       1.0  0.16898416098386226  0.6062582511450993  0.05393848135191681  1.0000
  C   C17       1.0  0.24198202226840726  0.6646247931506641  0.9739529356802334  1.0000
  C   C18       1.0  0.23831292004696156  0.6768952601465803  0.8232714151342406  1.0000
  C   C19       1.0  0.16262756460356176  0.6287032190496087  0.7523225039907153  1.0000
  C   C20       1.0  0.08914021695670615  0.5673888400553813  0.8307095322881594  1.0000
  C   C21       1.0  0.32039266467812766  0.713657589664762  0.04686635020367103  1.0000
  N   N4        1.0  0.3834147395919382  0.7530667367690356  0.1054764443344458  1.0000
  H   H10       1.0  0.8731810354000186  0.5105989419004417  0.09225606029965695  1.0000
  H   H11       1.0  0.29439329063913466  0.7225224090720549  0.7603646756696221  1.0000
  H   H12       1.0  0.1624786622826557  0.636286875086933  0.6352441127716176  1.0000
  H   H13       1.0  0.9430705686818008  0.52858694899763  0.5533744230611863  1.0000
  Zn  Zn1       1.0  0.992142279683827  0.5633132922872772  0.4075213259524347  1.0000
  Zn  Zn2       1.0  0.1884539296853165  0.5633091535734052  0.40751647800531965  1.0000
  C   C22       1.0  0.08954021469305462  0.5601010417177879  0.6707360282012174  1.0000
  C   C23       1.0  0.09105814983120974  0.5665232254863413  0.1443019137999071  1.0000
  C   C24       1.0  0.0920254480277034  0.8267071430929216  0.40129188113929803  1.0000
  C   C25       1.0  0.08857283803689975  0.2999153918142241  0.41374614088312933  1.0000
  O   O1        1.0  0.1654209496102392  0.5689616023605879  0.19798846915155946  1.0000
  O   O2        1.0  0.1641734089910747  0.5576584314741826  0.6170453805293645  1.0000
  O   O3        1.0  0.1661792579381538  0.7729462444873487  0.3994673226803849  1.0000
  O   O4        1.0  0.16341503403908675  0.3536737986264913  0.41556641893032387  1.0000
  O   O5        1.0  0.01718110833855602  0.7729486472371017  0.3994713850215015  1.0000
  O   O6        1.0  0.015175270859637768  0.5576625665238271  0.6170493628432493  1.0000
  O   O7        1.0  0.016422815970045027  0.5689656704508239  0.19799071893223252  1.0000
  O   O8        1.0  0.014416900031465564  0.35367785744056746  0.4155687767752836  1.0000
