data_image0
_chemical_formula_structural       NC6NC2H4C6H4C12H9Zn2C4O8
_chemical_formula_sum              "N2 C30 H17 Zn2 O8"
_cell_length_a       14.927258858638513
_cell_length_b       10.681118228259553
_cell_length_c       14.994061290378351
_cell_angle_alpha    85.558233291821
_cell_angle_beta     89.99162049170323
_cell_angle_gamma    89.99830799242187

_space_group_name_H-M_alt    "P 1"
_space_group_IT_number       1

loop_
  _space_group_symop_operation_xyz
  'x, y, z'

loop_
  _atom_site_type_symbol
  _atom_site_label
  _atom_site_symmetry_multiplicity
  _atom_site_fract_x
  _atom_site_fract_y
  _atom_site_fract_z
  _atom_site_occupancy
  N   N1        1.0  0.8436841233840325  0.37059100985656374  0.016003523406259438  1.0000
  C   C1        1.0  0.7661576322159246  0.3705909850985809  0.016003529958714357  1.0000
  C   C2        1.0  0.6697251246740595  0.37059108505086735  0.016003499104399244  1.0000
  C   C3        1.0  0.6226847004704703  0.3500229500552598  0.9376056930718956  1.0000
  C   C4        1.0  0.5289733891385918  0.35002297232226876  0.9376056104835584  1.0000
  C   C5        1.0  0.4819090606839243  0.37059093086707295  0.016003510631526385  1.0000
  C   C6        1.0  0.3854764861505236  0.3705910308219338  0.016003479773545215  1.0000
  N   N2        1.0  0.3079499949824158  0.37059100606395123  0.01600348632600013  1.0000
  C   C7        1.0  0.5289494178959782  0.3911590658652551  0.09440131666036433  1.0000
  C   C8        1.0  0.6226607292278564  0.39115904359824616  0.09440139924870128  1.0000
  H   H1        1.0  0.6583901953841338  0.3340197813842343  0.8766077005124282  1.0000
  H   H2        1.0  0.4932865398698607  0.33401995292456044  0.8766076974597987  1.0000
  H   H3        1.0  0.49324398996051494  0.4071622255725435  0.1553993761065851  1.0000
  H   H4        1.0  0.6583475784825902  0.40716214751143665  0.15539938036290202  1.0000
  C   C9        1.0  0.07582136579319634  0.00284099371199642  0.01600734984218622  1.0000
  C   C10       1.0  0.11513772835313052  0.9283234198316046  0.08685357794251825  1.0000
  C   C11       1.0  0.11513771466280254  0.797441181658289  0.08685353715685785  1.0000
  C   C12       1.0  0.07582135074690854  0.7383313976664764  0.01600738840578953  1.0000
  C   C13       1.0  0.036537534416931194  0.8128375682047873  0.9452197057922991  1.0000
  C   C14       1.0  0.03653754806306564  0.9437298263014313  0.9452197419986434  1.0000
  H   H5        1.0  0.1459558013192206  0.9710956634434106  0.14238616748132604  1.0000
  H   H6        1.0  0.14595569118005391  0.742591634848629  0.1423861517233315  1.0000
  H   H7        1.0  0.005715443203663684  0.7701108680864337  0.8896798654127163  1.0000
  H   H8        1.0  0.0057154197226678685  0.9985353071207699  0.8896798581589457  1.0000
  C   C15       1.0  0.07585923601973542  0.37060209541231004  0.7540406716403167  1.0000
  C   C16       1.0  0.12471068695463886  0.27983827454925175  0.7114456770163687  1.0000
  C   C17       1.0  0.12466414622226864  0.27978931478797997  0.6182275579194587  1.0000
  C   C18       1.0  0.07584347213002013  0.3705363668065156  0.5655470513880964  1.0000
  C   C19       1.0  0.027042378886970916  0.46129345252084164  0.6082419240574752  1.0000
  C   C20       1.0  0.027027822215257583  0.46127976506488344  0.7014670694860037  1.0000
  C   C21       1.0  0.07582215211474891  0.3705273878918931  0.4664736852132392  1.0000
  C   C22       1.0  0.08090107764403559  0.4839531781631834  0.41252070029040055  1.0000
  C   C23       1.0  0.08091878284125259  0.4839531014128815  0.3192962482406563  1.0000
  C   C24       1.0  0.07578347782447908  0.3705702375126696  0.27797409623185376  1.0000
  C   C25       1.0  0.07066511387581498  0.2571000426873489  0.3318300941246935  1.0000
  C   C26       1.0  0.07072290883153846  0.25709504051131543  0.42505120180092537  1.0000
  H   H9        1.0  0.16322688973018795  0.20891441938712904  0.7501163287634981  1.0000
  H   H10       1.0  0.16386324329462376  0.20965400927755895  0.587289611612771  1.0000
  H   H11       1.0  0.9878291975353406  0.5314185043017385  0.5695824230219988  1.0000
  H   H12       1.0  0.9885198952109427  0.5322224539077705  0.7322948843081016  1.0000
  H   H13       1.0  0.08608245670065705  0.5727560833059551  0.4424172393372867  1.0000
  H   H14       1.0  0.08519052258732557  0.5728941660804908  0.2796528834419876  1.0000
  H   H15       1.0  0.08085241970904744  0.48531999264427483  0.05885064932295106  1.0000
  H   H16       1.0  0.06637913628787522  0.16816825152082024  0.3019734790928448  1.0000
  H   H17       1.0  0.06555728880618994  0.16829428731411114  0.4647524745370392  1.0000
  Zn  Zn1       1.0  0.977661232466995  0.3705876527959313  0.016008667370013944  1.0000
  Zn  Zn2       1.0  0.1739728957240042  0.37058410499196714  0.016005660218622264  1.0000
  C   C27       1.0  0.07579579138509618  0.3655873578940436  0.1789394353228618  1.0000
  C   C28       1.0  0.07584048051044318  0.37558597995327747  0.853074979791191  1.0000
  C   C29       1.0  0.07581724769980319  0.599308245907751  0.012452495685406519  1.0000
  C   C30       1.0  0.07581895720146231  0.14186358735466365  0.01956196699040604  1.0000
  O   O1        1.0  0.15033343910958785  0.37725180734610486  0.8863106570976376  1.0000
  O   O2        1.0  0.1502988428925052  0.36391789307968186  0.14570121885889625  1.0000
  O   O3        1.0  0.1503151647182766  0.5526504659165965  0.011261837194383343  1.0000
  O   O4        1.0  0.1503170503056156  0.18851924347292703  0.020749971875396855  1.0000
  O   O5        1.0  0.0013170108938473943  0.5526525143175454  0.011264355709573405  1.0000
  O   O6        1.0  0.0013006890708144832  0.36392144606811144  0.14570368980866005  1.0000
  O   O7        1.0  0.0013352855025809934  0.3772553167598473  0.8863120555032951  1.0000
  O   O8        1.0  0.0013188966852739647  0.18852274392550708  0.020751437164141514  1.0000
