data_image0
_chemical_formula_structural       NC8NC6H8C12ClH7C12BrH8Zn2C4O8
_chemical_formula_sum              "N2 C42 H23 Cl1 Br1 Zn2 O8"
_cell_length_a       17.457602349358154
_cell_length_b       10.299768534541528
_cell_length_c       10.299148005577399
_cell_angle_alpha    85.55407396339785
_cell_angle_beta     92.84953389996222
_cell_angle_gamma    91.7063886151948

_space_group_name_H-M_alt    "P 1"
_space_group_IT_number       1

loop_
  _space_group_symop_operation_xyz
  'x, y, z'

loop_
  _atom_site_type_symbol
  _atom_site_label
  _atom_site_symmetry_multiplicity
  _atom_site_fract_x
  _atom_site_fract_y
  _atom_site_fract_z
  _atom_site_occupancy
  N   N1        1.0  0.7230772219706505  0.4530291148897391  0.6265177511275648  1.0000
  C   C1        1.0  0.6619934871888891  0.40710581657477496  0.6159000740513303  1.0000
  C   C2        1.0  0.5860027365549301  0.34998294637461336  0.6027012262113438  1.0000
  C   C3        1.0  0.5274611899724337  0.39013324416131206  0.6776025275741666  1.0000
  C   C4        1.0  0.45290875547160225  0.33512852941773685  0.6650182115061933  1.0000
  C   C5        1.0  0.39077552564747214  0.3775212946137639  0.7443415258203332  1.0000
  C   C6        1.0  0.31624765613545985  0.3959979645765945  0.6885770493412859  1.0000
  C   C7        1.0  0.2577060422157179  0.4359643219166532  0.7635863009566188  1.0000
  C   C8        1.0  0.18174073980649255  0.4550471743162324  0.7056063205286436  1.0000
  N   N2        1.0  0.12067755192504093  0.4703834079700904  0.658990567088513  1.0000
  C   C9        1.0  0.2732000417953689  0.4576970725075731  0.8948685701898448  1.0000
  C   C10       1.0  0.34694317481282977  0.43960932815599274  0.9510206700132886  1.0000
  C   C11       1.0  0.4054730924635506  0.39982295495598397  0.8764691595089513  1.0000
  C   C12       1.0  0.4381867777818909  0.23929631793959663  0.5760996083270338  1.0000
  C   C13       1.0  0.496716549405416  0.19942463797211718  0.5015983319259469  1.0000
  C   C14       1.0  0.5704840887691756  0.254541644723723  0.5147326178630776  1.0000
  H   H1        1.0  0.5398012251818887  0.46531702241359035  0.7442378737226434  1.0000
  H   H2        1.0  0.3039277903672154  0.3810431572001856  0.5865490561241153  1.0000
  H   H3        1.0  0.22832879589062902  0.48857076767912266  0.9537072282198847  1.0000
  H   H4        1.0  0.3587497274156679  0.45612184137437356  0.0526754475368828  1.0000
  H   H5        1.0  0.46194322012346484  0.3848243049920195  0.9225764212264842  1.0000
  H   H6        1.0  0.3816964427966564  0.1939626891203177  0.5654458344040765  1.0000
  H   H7        1.0  0.4848908643829052  0.12535749401674723  0.4337646695233892  1.0000
  H   H8        1.0  0.6153550734371982  0.22279818065223436  0.4564050685903575  1.0000
  C   C15       1.0  0.9218086948282849  0.08033785367837142  0.6427464273034582  1.0000
  C   C16       1.0  0.9268990697846843  0.09014555459240257  0.5066866651662145  1.0000
  C   C17       1.0  0.9295521568420982  0.9779790455183109  0.4377575144285677  1.0000
  C   C18       1.0  0.9270455932745213  0.8548642302751384  0.5067141227339018  1.0000
  C   C19       1.0  0.9219534135189604  0.8430649215576227  0.6427736754169051  1.0000
  C   C20       1.0  0.9193640457743902  0.9563602278155385  0.7100279394480231  1.0000
  C   C21       1.0  0.9349383692643619  0.9894084878076169  0.2938177118948724  1.0000
  C   C22       1.0  0.8913130281212613  0.0810552440996708  0.21578735142013494  1.0000
  C   C23       1.0  0.8964510389439666  0.09162014832049169  0.08032068649168567  1.0000
  C   C24       1.0  0.9451407677608609  0.011057463288437484  0.021186429728845102  1.0000
  C   C25       1.0  0.988753951427716  0.9197226402702354  0.09770450392926544  1.0000
  C   C26       1.0  0.9837521789750737  0.9087714291460107  0.23319693968599697  1.0000
  Cl  Cl1       1.0  0.9515016839028467  0.024555018851456955  0.851212724529982  1.0000
  H   H9        1.0  0.9298714032713944  0.18529531680174083  0.45419429065842354  1.0000
  H   H10       1.0  0.9280158421872536  0.7680804820224105  0.453844668417416  1.0000
  H   H11       1.0  0.9154362788380296  0.9480258154067941  0.814991719264018  1.0000
  H   H12       1.0  0.8525098580035748  0.14333071395055597  0.2593639385557751  1.0000
  H   H13       1.0  0.8624034564267195  0.16225612459682814  0.021425488992556026  1.0000
  H   H14       1.0  0.026701985396176978  0.8573634761532855  0.05236851673004783  1.0000
  H   H15       1.0  0.018773705007157915  0.8384714891640878  0.29067730392217417  1.0000
  C   C27       1.0  0.9219856312466491  0.461758013817889  0.2613804218603262  1.0000
  C   C28       1.0  0.8498335975824086  0.5193880626671115  0.25005181789370545  1.0000
  C   C29       1.0  0.8131429392214321  0.5485497490331288  0.1271608831381592  1.0000
  C   C30       1.0  0.8495775317640677  0.5193040816408139  0.014753868094032006  1.0000
  C   C31       1.0  0.9217764559411525  0.46164481290001363  0.02413968940261513  1.0000
  C   C32       1.0  0.957535783408616  0.43322484382300464  0.14784040308798452  1.0000
  C   C33       1.0  0.7368153442307326  0.6095173414446962  0.1162215484521083  1.0000
  C   C34       1.0  0.7207193683824911  0.7101317014055737  0.19498702322484607  1.0000
  C   C35       1.0  0.6488451559783556  0.7674030224841167  0.18449326379928754  1.0000
  C   C36       1.0  0.59225001812435  0.7249894147045535  0.09550556786608144  1.0000
  C   C37       1.0  0.6075755893249912  0.6251282874259083  0.016824723198545444  1.0000
  C   C38       1.0  0.6793845341560896  0.5676321540181697  0.026920609128443736  1.0000
  Br  Br1       1.0  0.49411503013104985  0.8033760290706027  0.08144212301199727  1.0000
  H   H16       1.0  0.8215278936216325  0.5400986425319745  0.3370799897002035  1.0000
  H   H17       1.0  0.8220298358512578  0.5431964410146062  0.9196880260832566  1.0000
  H   H18       1.0  0.013189559087748886  0.3887773357082636  0.1558624870837182  1.0000
  H   H19       1.0  0.05826249700848196  0.3535605552827894  0.8345235599261449  1.0000
  H   H20       1.0  0.7640145620497841  0.7456382546657057  0.26343129014550515  1.0000
  H   H21       1.0  0.6372744705930262  0.8449636651849441  0.2453543481490872  1.0000
  H   H22       1.0  0.5638269630297796  0.5917539110097128  0.9480364661219832  1.0000
  H   H23       1.0  0.6896713314216263  0.48932618736963773  0.9661557471149704  1.0000
  Zn  Zn1       1.0  0.8378160858708884  0.45803370518728054  0.6358962029174775  1.0000
  Zn  Zn2       1.0  0.005938668838981753  0.46536816828478855  0.6496227477443952  1.0000
  C   C39       1.0  0.9218133110429937  0.4564924553043499  0.8799615594748696  1.0000
  C   C40       1.0  0.921943279836192  0.4669111368589123  0.4055576686091215  1.0000
  C   C41       1.0  0.9219235224053477  0.6988939009079858  0.637592921515356  1.0000
  C   C42       1.0  0.9218330107903315  0.22450812844118473  0.6479263710694712  1.0000
  O   O1        1.0  0.9857307092991945  0.4714182968115151  0.4591540217160162  1.0000
  O   O2        1.0  0.9856270318776439  0.45755100346876176  0.8367829623893597  1.0000
  O   O3        1.0  0.9857151684995694  0.6532931986565178  0.6410685022641676  1.0000
  O   O4        1.0  0.9856425153368851  0.2756761084256696  0.6548683797801915  1.0000
  O   O5        1.0  0.8581121820010006  0.647725762544922  0.6306505661906538  1.0000
  O   O6        1.0  0.8580240456905973  0.4519851276697792  0.8263649571239828  1.0000
  O   O7        1.0  0.8581277235827629  0.4658523759905872  0.44873445500854015  1.0000
  O   O8        1.0  0.8580395295888531  0.27011017830135353  0.6444489104427049  1.0000
