data_image0
_chemical_formula_structural       NC8NH4C6ClH5C7F3H5Zn2C4O8
_chemical_formula_sum              "N2 C25 H14 Cl1 F3 Zn2 O8"
_cell_length_a       11.048855714531884
_cell_length_b       9.276545438789551
_cell_length_c       9.272721663655245
_cell_angle_alpha    85.91497059500672
_cell_angle_beta     90.51618364395259
_cell_angle_gamma    89.40961225544244

_space_group_name_H-M_alt    "P 1"
_space_group_IT_number       1

loop_
  _space_group_symop_operation_xyz
  'x, y, z'

loop_
  _atom_site_type_symbol
  _atom_site_label
  _atom_site_symmetry_multiplicity
  _atom_site_fract_x
  _atom_site_fract_y
  _atom_site_fract_z
  _atom_site_occupancy
  N   N1        1.0  0.11408564601066452  0.5692790146638611  0.4103711769422693  1.0000
  C   C1        1.0  0.05943657623786437  0.5108671510961389  0.32531618945422935  1.0000
  C   C2        1.0  0.9912513734441941  0.4379857966994356  0.2191915723825186  1.0000
  C   C3        1.0  0.8635346204697149  0.4379856067057162  0.21919167403304327  1.0000
  C   C4        1.0  0.8005943372459834  0.3659391368438407  0.11428304726634496  1.0000
  C   C5        1.0  0.8638514263995267  0.2944625545753887  0.01020416732072671  1.0000
  C   C6        1.0  0.9902576399415728  0.294462444586977  0.010204189928825212  1.0000
  C   C7        1.0  0.05385187500319623  0.3659392351169264  0.11428301959725752  1.0000
  C   C8        1.0  0.7956931544130768  0.5108672259494162  0.3253161763606791  1.0000
  N   N2        1.0  0.7413195319972028  0.5692790574901496  0.41037120576996244  1.0000
  H   H1        1.0  0.7025299640156373  0.36503694421934885  0.1129686969349255  1.0000
  H   H2        1.0  0.8148228501781473  0.23902365171301082  0.929478780976404  1.0000
  H   H3        1.0  0.0390248904545596  0.23902376112166213  0.9294787804317792  1.0000
  H   H4        1.0  0.1519119782698  0.36503689669776745  0.11296897213273581  1.0000
  C   C9        1.0  0.43135936612764847  0.1458425631348825  0.41013348579292286  1.0000
  C   C10       1.0  0.43080595291972174  0.22875895632683527  0.27704022397268546  1.0000
  C   C11       1.0  0.4192633978111203  0.16296048840825694  0.14684376021014667  1.0000
  C   C12       1.0  0.40800913856592264  0.013374281926681327  0.14773751761651766  1.0000
  C   C13       1.0  0.41041126190151994  0.9289059811259409  0.2783878510192632  1.0000
  C   C14       1.0  0.42405764624736786  0.992704485272329  0.41062136767513513  1.0000
  Cl  Cl1       1.0  0.417074492419751  0.2686726914065942  0.9822223866581793  1.0000
  H   H5        1.0  0.49498206285308444  0.4100536809416613  0.6368389929713687  1.0000
  H   H6        1.0  0.4364553826431429  0.3454637543720549  0.27418532251210914  1.0000
  H   H7        1.0  0.39854982341762135  0.9620963624275874  0.047009758997140313  1.0000
  H   H8        1.0  0.4044740860184069  0.8126308710162037  0.2757363073386163  1.0000
  H   H9        1.0  0.38525764885212643  0.6952567153529908  0.6437910321220446  1.0000
  C   C15       1.0  0.4245263790907497  0.5669347673564638  0.9869328476205905  1.0000
  C   C16       1.0  0.4770539272581644  0.4489923421935204  0.06958724200701782  1.0000
  C   C17       1.0  0.5401154683363404  0.339626888587502  0.003619234636901726  1.0000
  C   C18       1.0  0.5469579620345868  0.3462668727003637  0.8524732413132905  1.0000
  C   C19       1.0  0.4937390082203065  0.46120715271708157  0.7688488154146818  1.0000
  C   C20       1.0  0.43089063215630596  0.5716122623244063  0.8338219705491596  1.0000
  C   C21       1.0  0.593011583631578  0.2121482013921825  0.0938931521184485  1.0000
  F   F1        1.0  0.6334094841536182  0.2540564270624506  0.22615024642620815  1.0000
  F   F2        1.0  0.6900006490902264  0.15250546504334395  0.024738880424197914  1.0000
  F   F3        1.0  0.5050505869243446  0.10835714143678188  0.1168690633426288  1.0000
  H   H10       1.0  0.34484772960851795  0.9103015586801182  0.06335004765479857  1.0000
  H   H11       1.0  0.4710548297475246  0.44386956470405514  0.1864299240964935  1.0000
  H   H12       1.0  0.5924227101810108  0.2615622901290924  0.7985165853948595  1.0000
  H   H13       1.0  0.49892129886528314  0.46166832715285516  0.6521944638450061  1.0000
  H   H14       1.0  0.21160035309217756  0.8148178600909649  0.7126712227552434  1.0000
  Zn  Zn1       1.0  0.29509190678265085  0.5692752046486509  0.4103795071074521  1.0000
  Zn  Zn2       1.0  0.5603134890079733  0.5692711059027067  0.41037466984854837  1.0000
  C   C22       1.0  0.4297344560993311  0.5649837274378651  0.6737385006056031  1.0000
  C   C23       1.0  0.4256738212794553  0.5735644032208133  0.14701581887526194  1.0000
  C   C24       1.0  0.42538839210895923  0.8325977856700111  0.4047829990575673  1.0000
  C   C25       1.0  0.43001981028305447  0.3059486130001745  0.41597139630450886  1.0000
  O   O1        1.0  0.5267091758399126  0.5757815234156616  0.2007392870657707  1.0000
  O   O2        1.0  0.5299961518979599  0.5627624063045678  0.620010945329138  1.0000
  O   O3        1.0  0.5264853047167755  0.7788641510708652  0.40282747581278744  1.0000
  O   O4        1.0  0.5302199316175136  0.35967978836861114  0.41792264847189675  1.0000
  O   O5        1.0  0.3251853736659307  0.778866522185673  0.4028315284781707  1.0000
  O   O6        1.0  0.3286962053267073  0.5627665094107945  0.620014922107377  1.0000
  O   O7        1.0  0.32540921675419443  0.5757855666986279  0.2007415301482087  1.0000
  O   O8        1.0  0.3289199734281991  0.3596838219352567  0.4179249996586263  1.0000
