data_image0
_chemical_formula_structural       NC8NC6H8C7OC6OCH11C7OC3NC3H11Zn2C4O8
_chemical_formula_sum              "N3 C45 H30 O11 Zn2"
_cell_length_a       17.457602349358154
_cell_length_b       10.299359160628079
_cell_length_c       10.298749378158432
_cell_angle_alpha    85.56206142688012
_cell_angle_beta     92.88501269270333
_cell_angle_gamma    91.71072845926622

_space_group_name_H-M_alt    "P 1"
_space_group_IT_number       1

loop_
  _space_group_symop_operation_xyz
  'x, y, z'

loop_
  _atom_site_type_symbol
  _atom_site_label
  _atom_site_symmetry_multiplicity
  _atom_site_fract_x
  _atom_site_fract_y
  _atom_site_fract_z
  _atom_site_occupancy
  N   N1        1.0  0.7226414634542422  0.4529726603247628  0.6265477274196921  1.0000
  C   C1        1.0  0.6615516736852306  0.40704687574158704  0.6159256611228912  1.0000
  C   C2        1.0  0.585553394417607  0.34992091358293687  0.6027213541623053  1.0000
  C   C3        1.0  0.5270412228213055  0.3900785718601903  0.6776306732342835  1.0000
  C   C4        1.0  0.4524815847674139  0.335070889699288  0.6650411084438363  1.0000
  C   C5        1.0  0.3903794581536161  0.3774714453457635  0.7443729034734278  1.0000
  C   C6        1.0  0.3158319921503346  0.39594437008402783  0.6886063682916206  1.0000
  C   C7        1.0  0.2573197841879399  0.43591808985064806  0.7636236296218905  1.0000
  C   C8        1.0  0.1813341007145317  0.4549970436424997  0.7056414983599542  1.0000
  N   N2        1.0  0.12025452621297883  0.47033014259886535  0.6590240151431419  1.0000
  C   C9        1.0  0.2728629842689496  0.4576619970073204  0.8949160193209378  1.0000
  C   C10       1.0  0.3466258743106409  0.4395780424682749  0.9510702339848395  1.0000
  C   C11       1.0  0.4051265624489871  0.39978434947859104  0.8765107574776168  1.0000
  C   C12       1.0  0.43772247082075194  0.23922821275648998  0.5761090927935609  1.0000
  C   C13       1.0  0.4962230273577535  0.19934921391061033  0.5015998466928835  1.0000
  C   C14       1.0  0.5699979773848406  0.25446923557888446  0.5147394254672399  1.0000
  H   H1        1.0  0.5394092461048777  0.4652703136703311  0.7442763428978252  1.0000
  H   H2        1.0  0.3034739804235115  0.38098096161613926  0.586570666253496  1.0000
  H   H3        1.0  0.2280147825429892  0.48854145030871243  0.9537609217837228  1.0000
  H   H4        1.0  0.3584705091194711  0.45609918314326636  0.052732822491158404  1.0000
  H   H5        1.0  0.4616129059851754  0.3847888061257998  0.9226197438711031  1.0000
  H   H6        1.0  0.38122609531599666  0.19389211596372968  0.5654509750241761  1.0000
  H   H7        1.0  0.48436896697569415  0.12527405172420947  0.4337558747136936  1.0000
  H   H8        1.0  0.6148460645652828  0.2227200225843724  0.45640559400301406  1.0000
  C   C15       1.0  0.9213613753149418  0.08026931565090555  0.642747306040434  1.0000
  C   C16       1.0  0.8578953067692303  0.08278600758489188  0.5531599231510465  1.0000
  C   C17       1.0  0.8264346484716283  0.9670948438948445  0.5069261889275487  1.0000
  C   C18       1.0  0.8580780814667431  0.8475324542754312  0.5534299781748857  1.0000
  C   C19       1.0  0.9215419537071041  0.8430237403765287  0.6428363076015378  1.0000
  C   C20       1.0  0.9529240501455017  0.959967205474743  0.6867779213749925  1.0000
  C   C21       1.0  0.7588879910318305  0.9718653708643015  0.41346869754305154  1.0000
  O   O1        1.0  0.7101335009725117  0.05860885221399492  0.42105396331234  1.0000
  C   C22       1.0  0.7466485529480488  0.8783007160980665  0.31141356057764163  1.0000
  C   C23       1.0  0.809046436408065  0.8276806042678265  0.25244989702871257  1.0000
  C   C24       1.0  0.7967059759790167  0.7407624574672799  0.1553525908719391  1.0000
  C   C25       1.0  0.7221694484888217  0.7035969118886864  0.11449915189536708  1.0000
  C   C26       1.0  0.6595132007670513  0.7552406191932616  0.17212985065382916  1.0000
  C   C27       1.0  0.6717835095274929  0.8422145894554666  0.26926785209307225  1.0000
  O   O2        1.0  0.712868121381678  0.6159711069882385  0.016833518779431737  1.0000
  C   C28       1.0  0.6405631559866319  0.5699736181049755  0.9660561775453065  1.0000
  H   H9        1.0  0.04092129834990921  0.28274942781489876  0.8122005701701698  1.0000
  H   H10       1.0  0.8332180492143112  0.1750392695328582  0.5181569531919072  1.0000
  H   H11       1.0  0.8326057690347819  0.7577856000439719  0.5208955936037052  1.0000
  H   H12       1.0  0.001879662096587301  0.9572213297884885  0.7557503606254503  1.0000
  H   H13       1.0  0.8673778425858165  0.8563132757239351  0.2803472355890717  1.0000
  H   H14       1.0  0.8453925514804077  0.7024437590066751  0.11114416903678914  1.0000
  H   H15       1.0  0.6011495805238571  0.7288836555485231  0.1425851359809245  1.0000
  H   H16       1.0  0.6226680481480587  0.8804688505401908  0.3123903995051645  1.0000
  H   H17       1.0  0.6501332796082636  0.5020017182952178  0.8903570193594268  1.0000
  H   H18       1.0  0.6068468551814763  0.6528532072238917  0.9207889242960193  1.0000
  H   H19       1.0  0.6083644540779535  0.5169925035660721  0.044968380944707446  1.0000
  C   C29       1.0  0.9214162818907896  0.4616730102149516  0.2613878425848086  1.0000
  C   C30       1.0  0.9633517959893536  0.5803711494787411  0.2548047448419539  1.0000
  C   C31       1.0  0.9837873168067423  0.6411604377552327  0.13417438091900147  1.0000
  C   C32       1.0  0.9633548567130172  0.5804201456569713  0.019560970169733467  1.0000
  C   C33       1.0  0.9214870163966477  0.4616200644226443  0.02419572434382889  1.0000
  C   C34       1.0  0.9006072144565982  0.4031732657140871  0.14553874588524573  1.0000
  C   C35       1.0  0.028692918036097526  0.7658915705170608  0.127173997442551  1.0000
  O   O3        1.0  0.07663653080056876  0.7863277342165785  0.03974481299699329  1.0000
  C   C36       1.0  0.019210723093082683  0.8674308234660779  0.21929911624086884  1.0000
  C   C37       1.0  0.9474400970833055  0.8868722746240183  0.2701434904942648  1.0000
  C   C38       1.0  0.9388811866247475  0.9840029442207531  0.35615417648273273  1.0000
  N   N3        1.0  0.8658413415528572  0.0026665953903446376  0.4078626985050531  1.0000
  C   C39       1.0  0.00220757790760584  0.06302028900774115  0.3907316513418085  1.0000
  C   C40       1.0  0.07337408288669955  0.04550316214471284  0.3393787892980511  1.0000
  C   C41       1.0  0.08188885344820607  0.9486822434372308  0.2537413330071083  1.0000
  H   H20       1.0  0.843195361756385  0.23642263276264064  0.48135000511058257  1.0000
  H   H21       1.0  0.98088357083514  0.6249833133830536  0.34378712431549796  1.0000
  H   H22       1.0  0.9795460278037912  0.6266499801051264  0.9264815513890242  1.0000
  H   H23       1.0  0.8682861524321434  0.3116761857467416  0.14986163422683463  1.0000
  H   H24       1.0  0.8426555406529704  0.2369220357412893  0.8256914601910262  1.0000
  H   H25       1.0  0.897923687742549  0.8277021266052264  0.2420505387994141  1.0000
  H   H26       1.0  0.8182534924920606  0.9443158308205148  0.38274233288396564  1.0000
  H   H27       1.0  0.8588289544354144  0.07488054766231  0.4717847193425387  1.0000
  H   H28       1.0  0.9963301558661525  0.13837981798705945  0.45699201727067257  1.0000
  H   H29       1.0  0.12207145310877143  0.1070974290963691  0.36599843876024685  1.0000
  H   H30       1.0  0.1376220951563536  0.936470193575512  0.2152916322743803  1.0000
  Zn  Zn1       1.0  0.837384004354911  0.45797817142250596  0.6359271812813085  1.0000
  Zn  Zn2       1.0  0.005511969527943318  0.4653139825718667  0.6496551935436827  1.0000
  C   C42       1.0  0.921470726201263  0.4564561582845484  0.8800079615551677  1.0000
  C   C43       1.0  0.9214270840334972  0.4668377144845854  0.4055746908485683  1.0000
  C   C44       1.0  0.9215033841499872  0.6988471395021287  0.6376434810794467  1.0000
  C   C45       1.0  0.921394368351484  0.22444517040196255  0.6479392357028834  1.0000
  O   O4        1.0  0.9852343945668628  0.47134927257874587  0.4591748227376265  1.0000
  O   O5        1.0  0.9852686507513047  0.45751133138287864  0.8368266993340284  1.0000
  O   O6        1.0  0.9852941624789716  0.6532450765463942  0.6411155965080833  1.0000
  O   O7        1.0  0.9852088254616764  0.27561553420931717  0.654885823496603  1.0000
  O   O8        1.0  0.8576870910473544  0.6476766172831179  0.6306965466368601  1.0000
  O   O9        1.0  0.8576615796791532  0.4519444324827053  0.8264075803926825  1.0000
  O   O10       1.0  0.8576273233901789  0.46578232853158896  0.44875414225106836  1.0000
  O   O11       1.0  0.8576017542886885  0.27004858086613526  0.6444652403854857  1.0000
