data_image0
_chemical_formula_structural       NC12NC2H8C6NCH9C7OH5Zn2C4O8
_chemical_formula_sum              "N3 C32 H22 O9 Zn2"
_cell_length_a       19.240039667572717
_cell_length_b       9.273386996610926
_cell_length_c       9.274074313596557
_cell_angle_alpha    86.02935137670892
_cell_angle_beta     90.2336027468708
_cell_angle_gamma    89.39858615406628

_space_group_name_H-M_alt    "P 1"
_space_group_IT_number       1

loop_
  _space_group_symop_operation_xyz
  'x, y, z'

loop_
  _atom_site_type_symbol
  _atom_site_label
  _atom_site_symmetry_multiplicity
  _atom_site_fract_x
  _atom_site_fract_y
  _atom_site_fract_z
  _atom_site_occupancy
  N   N1        1.0  0.6434390885852516  0.5632413910408911  0.4076355475118561  1.0000
  C   C1        1.0  0.5832907191215095  0.5632414834403214  0.4076354564292082  1.0000
  C   C2        1.0  0.5084726810288898  0.5632416122336181  0.40763530384089  1.0000
  C   C3        1.0  0.47258133469995295  0.4927553715383856  0.5225153334454495  1.0000
  C   C4        1.0  0.39991139412336674  0.4926331400979555  0.5226115752181046  1.0000
  C   C5        1.0  0.3621404450869826  0.5632417125822338  0.40763505099884556  1.0000
  C   C6        1.0  0.398745173799875  0.6338504948993595  0.29265874234012745  1.0000
  C   C7        1.0  0.47141667137177057  0.6337280031856714  0.292755120484135  1.0000
  C   C8        1.0  0.2849353548868596  0.5632416241622642  0.40763494525026955  1.0000
  C   C9        1.0  0.24847348190551363  0.437880639019055  0.4543053892964115  1.0000
  C   C10       1.0  0.1758019982165666  0.4379983960490861  0.45420384662752084  1.0000
  C   C11       1.0  0.138603068819557  0.5632414813324207  0.4076350130789148  1.0000
  C   C12       1.0  0.06378503283287339  0.5632413576866233  0.4076352892408535  1.0000
  N   N2        1.0  0.0036367166534309  0.5632413146058708  0.4076355206129022  1.0000
  C   C13       1.0  0.1743516497403016  0.6884846502738475  0.3610661206973058  1.0000
  C   C14       1.0  0.24702154929479458  0.6886026056230978  0.36096439726154705  1.0000
  H   H1        1.0  0.5007485222440273  0.4381907628805723  0.6122096390658229  1.0000
  H   H2        1.0  0.3732682924067546  0.43896723200814824  0.6135424108363635  1.0000
  H   H3        1.0  0.37120174446812926  0.6875164324871617  0.2017278502429482  1.0000
  H   H4        1.0  0.498679256440927  0.6882925034677373  0.20306112111484587  1.0000
  H   H5        1.0  0.2761343819616681  0.33918083618735984  0.48905448646486177  1.0000
  H   H6        1.0  0.14865192059779136  0.34030869764836996  0.4900976913704226  1.0000
  H   H7        1.0  0.1460719040802032  0.7861743215759507  0.32517229214616816  1.0000
  H   H8        1.0  0.2735471275154192  0.7873024959215311  0.3262152502646083  1.0000
  C   C15       1.0  0.8256798878873352  0.13959433113986483  0.4083437467636071  1.0000
  C   C16       1.0  0.8376338963743533  0.22179058357040726  0.27802885339037053  1.0000
  C   C17       1.0  0.8430437804147287  0.1560082692268332  0.14770590567963368  1.0000
  C   C18       1.0  0.8365788846436424  0.005674814555078454  0.14436579632443802  1.0000
  C   C19       1.0  0.825848837180482  0.922511203415167  0.2742280047443949  1.0000
  C   C20       1.0  0.8214026562963788  0.9868774051161447  0.40693979336106867  1.0000
  N   N3        1.0  0.841396062192257  0.9348296606557439  0.011352202576349502  1.0000
  C   C21       1.0  0.8527048644242223  0.011345399940877483  0.8707075384497295  1.0000
  H   H9        1.0  0.8403330651745353  0.4040620337615286  0.6449643975895023  1.0000
  H   H10       1.0  0.8411755068597958  0.33841911727121565  0.2762606378182455  1.0000
  H   H11       1.0  0.8516211527859139  0.22364927891754083  0.04980689681431594  1.0000
  H   H12       1.0  0.8225638912328422  0.8060878131109431  0.2719543559402595  1.0000
  H   H13       1.0  0.8476660626733673  0.8589616877560496  0.7579755989355436  1.0000
  H   H14       1.0  0.8364880208890787  0.8224918795143095  0.01434087239320969  1.0000
  H   H15       1.0  0.8095699773766483  0.08967312739306754  0.8456661168194234  1.0000
  H   H16       1.0  0.9030117188666279  0.06889942460296128  0.870940099624133  1.0000
  H   H17       1.0  0.8542934255691872  0.933071153992552  0.7853838227626814  1.0000
  C   C22       1.0  0.8227300633081959  0.559080826863297  0.9844074638129867  1.0000
  C   C23       1.0  0.7619145430750769  0.6016722594166664  0.054225751346098416  1.0000
  C   C24       1.0  0.7044630486445492  0.6558577516009731  0.9749537417998946  1.0000
  C   C25       1.0  0.7064823005120954  0.668893071663865  0.823652139699564  1.0000
  C   C26       1.0  0.7663681827624446  0.6245599203561187  0.7526968524946827  1.0000
  C   C27       1.0  0.8243524717768745  0.5673908826369074  0.8308760993779787  1.0000
  C   C28       1.0  0.6464029915374065  0.7270458518947103  0.7381650811478653  1.0000
  O   O1        1.0  0.5917354894767688  0.7672418254151592  0.7988047613179092  1.0000
  H   H18       1.0  0.992737475407233  0.5223254092617419  0.09125690973430851  1.0000
  H   H19       1.0  0.6586932163470427  0.6888833956534033  0.032300677681593504  1.0000
  H   H20       1.0  0.7671382608826685  0.6315512330926722  0.6355286044780115  1.0000
  H   H21       1.0  0.938655935626094  0.537406310899681  0.5534599405272354  1.0000
  H   H22       1.0  0.648826815835604  0.7358026098643143  0.6212810530512596  1.0000
  Zn  Zn1       1.0  0.7473843878923023  0.5632375989977726  0.4076438566112728  1.0000
  Zn  Zn2       1.0  0.8996915180685535  0.5632334542622068  0.40763899342415943  1.0000
  C   C29       1.0  0.8240732821555651  0.5600729124419381  0.6708848833432997  1.0000
  C   C30       1.0  0.8230042780765184  0.5663999624368473  0.14439810508203998  1.0000
  C   C31       1.0  0.822196570047347  0.8266664985751031  0.4014618628533127  1.0000
  C   C32       1.0  0.8248809471100856  0.29980464378329863  0.4138212052852046  1.0000
  O   O2        1.0  0.8808961009766434  0.5688484644510825  0.1980905906994712  1.0000
  O   O3        1.0  0.8817790516109785  0.557620172262667  0.6171882935972126  1.0000
  O   O4        1.0  0.8802628065533046  0.7728978793349854  0.39962729587820744  1.0000
  O   O5        1.0  0.8824122938029864  0.35357076663939924  0.41565148033890864  1.0000
  O   O6        1.0  0.7646635601828985  0.7729002866234911  0.3996313696905996  1.0000
  O   O7        1.0  0.7661797963402525  0.5576243120744666  0.6171922876905029  1.0000
  O   O8        1.0  0.7652968426846485  0.5688525369782778  0.19809285207014282  1.0000
  O   O9        1.0  0.7668130357673514  0.35357482990886985  0.4156538497832243  1.0000
