data_image0
_chemical_formula_structural       NC9NC5H8C6NH7C6ClH5Zn2C4O8
_chemical_formula_sum              "N3 C30 H20 Cl1 Zn2 O8"
_cell_length_a       17.807436237873137
_cell_length_b       9.274771166103582
_cell_length_c       10.302974078461048
_cell_angle_alpha    85.4557754151483
_cell_angle_beta     89.39214410348853
_cell_angle_gamma    88.98784114054227

_space_group_name_H-M_alt    "P 1"
_space_group_IT_number       1

loop_
  _space_group_symop_operation_xyz
  'x, y, z'

loop_
  _atom_site_type_symbol
  _atom_site_label
  _atom_site_symmetry_multiplicity
  _atom_site_fract_x
  _atom_site_fract_y
  _atom_site_fract_z
  _atom_site_occupancy
  N   N1        1.0  0.7158025374468436  0.5409827775761546  0.5549296720451804  1.0000
  C   C1        1.0  0.6550022593655193  0.501907959048695  0.5439772557822404  1.0000
  C   C2        1.0  0.579373395994047  0.453303187944774  0.5303536390468726  1.0000
  C   C3        1.0  0.5608502802162584  0.3740041985850655  0.42552317963464376  1.0000
  C   C4        1.0  0.487417888990171  0.3266889057527631  0.41221313866190235  1.0000
  C   C5        1.0  0.43145761253213266  0.3582533911686103  0.5037018442178678  1.0000
  C   C6        1.0  0.3534186048704221  0.3080970243207921  0.48963854335856016  1.0000
  C   C7        1.0  0.2917365293479331  0.3988794099656021  0.5154112289361854  1.0000
  C   C8        1.0  0.21816060569158682  0.3513386622410739  0.5021152561188811  1.0000
  C   C9        1.0  0.1554447120079166  0.445109539792166  0.528246534291041  1.0000
  N   N2        1.0  0.1050340864565999  0.5204948378917689  0.5492553669606974  1.0000
  C   C10       1.0  0.20568165298542032  0.2127290664623553  0.4630217538453172  1.0000
  C   C11       1.0  0.26650627494097556  0.12193129919842581  0.4372407080528884  1.0000
  C   C12       1.0  0.3399603813620711  0.1690339474783202  0.45033497019873736  1.0000
  C   C13       1.0  0.4506751215618301  0.4381013265519129  0.6087505075343309  1.0000
  C   C14       1.0  0.5241592331163503  0.4852052053453923  0.6219053162894086  1.0000
  H   H1        1.0  0.6031093055548972  0.3490369726522833  0.35387745610529153  1.0000
  H   H2        1.0  0.4741808332148023  0.2670803593730813  0.32942357731390404  1.0000
  H   H3        1.0  0.3008232425428419  0.5071048169411458  0.5440907639284944  1.0000
  H   H4        1.0  0.1490108551657437  0.1749353026710567  0.45249601051888827  1.0000
  H   H5        1.0  0.2567261761799619  0.014616544240888103  0.407359576348955  1.0000
  H   H6        1.0  0.38620373681937925  0.09603039212652242  0.4314196542428715  1.0000
  H   H7        1.0  0.4091297165946149  0.46246997964921377  0.681691341787054  1.0000
  H   H8        1.0  0.5379320187386548  0.5461691049388566  0.7036512406490465  1.0000
  C   C15       1.0  0.908116079805163  0.10726345659001589  0.552833740186675  1.0000
  C   C16       1.0  0.8908334110558248  0.19148191648833726  0.4369876130162647  1.0000
  C   C17       1.0  0.8805630559456489  0.12697313356199524  0.32030266754750736  1.0000
  C   C18       1.0  0.8876147440800027  0.9768663452174438  0.3186170308282741  1.0000
  C   C19       1.0  0.9035085852844801  0.8914015607176585  0.4328885563688316  1.0000
  C   C20       1.0  0.9127276681609708  0.9542027561873216  0.5513625105309676  1.0000
  N   N3        1.0  0.8637418308684663  0.21426680256937033  0.20317382826992006  1.0000
  H   H9        1.0  0.992640901650455  0.18247464632933627  0.8357292369939004  1.0000
  H   H10       1.0  0.8870465001684065  0.3082739554357192  0.43654412102062684  1.0000
  H   H11       1.0  0.8800682128683746  0.9257763509769902  0.22883455556780888  1.0000
  H   H12       1.0  0.906818487350081  0.7750633228912448  0.429122151475799  1.0000
  H   H13       1.0  0.9666144451199495  0.6543000096029867  0.7438843857164539  1.0000
  H   H14       1.0  0.8585671561924734  0.3266130820832902  0.20320709807445536  1.0000
  H   H15       1.0  0.8562660048370606  0.16719029428813115  0.11552537584197897  1.0000
  C   C21       1.0  0.9104218751003339  0.5307331074796788  0.1708556183483123  1.0000
  C   C22       1.0  0.896541956544487  0.3816428305951238  0.18053992737545843  1.0000
  C   C23       1.0  0.8896551580179611  0.30766829392631306  0.06838822563153979  1.0000
  C   C24       1.0  0.8965419905785992  0.3816429102689278  0.9454320277731871  1.0000
  C   C25       1.0  0.9104218727792744  0.5307330331422198  0.9333406375789703  1.0000
  C   C26       1.0  0.9172941872893228  0.6045514495863549  0.04670729304655796  1.0000
  Cl  Cl1       1.0  0.8723158447922218  0.12141911927490122  0.08198977098486004  1.0000
  H   H16       1.0  0.9156506339178028  0.586892818691358  0.4945106390640046  1.0000
  H   H17       1.0  0.8910215990261187  0.3223461453789201  0.27491683279052337  1.0000
  H   H18       1.0  0.8910216513969531  0.32234612203918744  0.859715865987261  1.0000
  H   H19       1.0  0.9279987633883254  0.7195343477886279  0.03831013871484723  1.0000
  H   H20       1.0  0.9156504909337861  0.5868928134525735  0.6014830106882201  1.0000
  Zn  Zn1       1.0  0.8281263324820727  0.5350665528645866  0.5532997051564357  1.0000
  Zn  Zn2       1.0  0.9927102092182603  0.5263993076282323  0.550896027342267  1.0000
  C   C27       1.0  0.9103889065774902  0.5249882685127156  0.7892246196311983  1.0000
  C   C28       1.0  0.9104494422810182  0.5364793168706844  0.3149712108828131  1.0000
  C   C29       1.0  0.9118521048685377  0.7941133737780821  0.5464671822433274  1.0000
  C   C30       1.0  0.9089861783951518  0.2673524819900466  0.5577287213163005  1.0000
  O   O1        1.0  0.9729173833079887  0.5351123315513291  0.3624255479748639  1.0000
  O   O2        1.0  0.9728363138580519  0.5197759273521922  0.7399455748632315  1.0000
  O   O3        1.0  0.9740170230092491  0.7370978977450389  0.543917236315469  1.0000
  O   O4        1.0  0.971736618051635  0.3177903744319699  0.5584537899825299  1.0000
  O   O5        1.0  0.8490998674843065  0.7436754890201238  0.5457419433295978  1.0000
  O   O6        1.0  0.847919167763537  0.5263552512018237  0.7417702096451699  1.0000
  O   O7        1.0  0.8480002369898286  0.541691605145816  0.36424862196027696  1.0000
  O   O8        1.0  0.8468194716742403  0.3243696377122445  0.560276961321466  1.0000
