data_image0
_chemical_formula_structural       NC8NC6H8C6NCOC6H10C7OC4NC2H8Zn2C4O8
_chemical_formula_sum              "N4 C44 H26 O10 Zn2"
_cell_length_a       17.457602349358154
_cell_length_b       10.29965916528486
_cell_length_c       10.299375074045738
_cell_angle_alpha    85.55751919023885
_cell_angle_beta     92.86983099302365
_cell_angle_gamma    91.70433465767697

_space_group_name_H-M_alt    "P 1"
_space_group_IT_number       1

loop_
  _space_group_symop_operation_xyz
  'x, y, z'

loop_
  _atom_site_type_symbol
  _atom_site_label
  _atom_site_symmetry_multiplicity
  _atom_site_fract_x
  _atom_site_fract_y
  _atom_site_fract_z
  _atom_site_occupancy
  N   N1        1.0  0.7227759958724966  0.45332311642064815  0.6269303214076807  1.0000
  C   C1        1.0  0.6616906644193471  0.40740283468623395  0.6162989039994629  1.0000
  C   C2        1.0  0.5856979294165463  0.35028371486394383  0.6030829650024698  1.0000
  C   C3        1.0  0.5271712809297169  0.3904164259139695  0.6779971307558039  1.0000
  C   C4        1.0  0.45261696138528146  0.33541529397887815  0.665396358905926  1.0000
  C   C5        1.0  0.39049951084676277  0.3777894358195526  0.7447332592064271  1.0000
  C   C6        1.0  0.3159599301900489  0.39627856976000997  0.6889735320515842  1.0000
  C   C7        1.0  0.25743323893423103  0.43622731816359034  0.7639955949744658  1.0000
  C   C8        1.0  0.18145576173823272  0.4553231313947573  0.7060205146786303  1.0000
  N   N2        1.0  0.12038278544094992  0.47066978560587397  0.6594086990570238  1.0000
  C   C9        1.0  0.2729539738511317  0.45792987681992786  0.8952860047848099  1.0000
  C   C10       1.0  0.3467088927929953  0.4398295751198871  0.9514334755137461  1.0000
  C   C11       1.0  0.4052239796632155  0.40006070423018103  0.8768692129523891  1.0000
  C   C12       1.0  0.4378779143664635  0.23960458732575196  0.5764482163746845  1.0000
  C   C13       1.0  0.4963928666385007  0.19975039933424685  0.5019341633002892  1.0000
  C   C14       1.0  0.5701624027738673  0.2548636965202884  0.5150849454159063  1.0000
  H   H1        1.0  0.5395240647218655  0.4655840446899526  0.7446556110389826  1.0000
  H   H2        1.0  0.3036192618700544  0.38134720131729677  0.5869397854509082  1.0000
  H   H3        1.0  0.22809443966694412  0.48878976541591285  0.9541345710555118  1.0000
  H   H4        1.0  0.35853615120352894  0.45631871416021275  0.05309446297431619  1.0000
  H   H5        1.0  0.46170378678461527  0.3850517451618354  0.9229726302470715  1.0000
  H   H6        1.0  0.3813859677308399  0.19427397563695428  0.5657808763127306  1.0000
  H   H7        1.0  0.4845541721586479  0.12569967332759968  0.43407768196512464  1.0000
  H   H8        1.0  0.6150217920294628  0.22313393390094396  0.45674723690645175  1.0000
  C   C15       1.0  0.9215155808324348  0.08063300802199458  0.6430488162211052  1.0000
  C   C16       1.0  0.9220465061836763  0.08998909254174414  0.5062718078641428  1.0000
  C   C17       1.0  0.9234452844267417  0.9779157074817075  0.43754826567145066  1.0000
  C   C18       1.0  0.9221910378793102  0.8548049927152882  0.5065800076859618  1.0000
  C   C19       1.0  0.9216505173703343  0.843350151784605  0.6433020069248983  1.0000
  C   C20       1.0  0.9215858090721576  0.9568842243586255  0.7107867498009814  1.0000
  N   N3        1.0  0.9228094841415491  0.9910139766316661  0.29742571136420826  1.0000
  C   C21       1.0  0.9587778380162228  0.9014846169447533  0.22063510960805363  1.0000
  O   O1        1.0  0.011700417072732837  0.8309569984913131  0.27193761830982116  1.0000
  C   C22       1.0  0.9364873645582955  0.8943681241283546  0.0804436648383886  1.0000
  C   C23       1.0  0.8655482283219111  0.9411481372810508  0.02830177688138091  1.0000
  C   C24       1.0  0.8449988922595113  0.9332878835324706  0.8960964154020642  1.0000
  C   C25       1.0  0.8946741471619436  0.8784006161040588  0.8146947801893853  1.0000
  C   C26       1.0  0.9649380067173863  0.8308041444581423  0.8654052453575591  1.0000
  C   C27       1.0  0.9857802377123505  0.8383208837262425  0.9975300539584543  1.0000
  H   H9        1.0  0.9197818098111008  0.27021633619932084  0.9009942829640377  1.0000
  H   H10       1.0  0.9219619676785243  0.18461517723220178  0.4524402083865995  1.0000
  H   H11       1.0  0.9202894043024452  0.767951512528189  0.453617672214575  1.0000
  H   H12       1.0  0.9211867842447565  0.9488067985681534  0.8162272264210232  1.0000
  H   H13       1.0  0.9009221189676134  0.07620949881492466  0.24969597838815671  1.0000
  H   H14       1.0  0.8253403925920336  0.982066247604293  0.08950179071926567  1.0000
  H   H15       1.0  0.7903245850090442  0.9693491282473131  0.8568435294463095  1.0000
  H   H16       1.0  0.8786144682037744  0.8723810884376808  0.71242229100549  1.0000
  H   H17       1.0  0.0033307171789060926  0.788011741636716  0.8022931891103616  1.0000
  H   H18       1.0  0.04064682022639367  0.8010827521417416  0.03457986819545056  1.0000
  C   C28       1.0  0.9216091598932367  0.46213508841208717  0.2617908402676439  1.0000
  C   C29       1.0  0.9806806042776808  0.5578209379357089  0.2582021332788462  1.0000
  C   C30       1.0  0.009878766166351536  0.6071364376698416  0.13908632960716158  1.0000
  C   C31       1.0  0.9805563451687785  0.5575777868394018  0.022966591517606046  1.0000
  C   C32       1.0  0.9215569255659634  0.4618481320214707  0.024560039195434365  1.0000
  C   C33       1.0  0.8922872102034293  0.4149260112715463  0.1444670330813873  1.0000
  C   C34       1.0  0.07280484713237301  0.707198283108899  0.13527977870516916  1.0000
  O   O2        1.0  0.12183198973636244  0.7046523141168233  0.04964812077571468  1.0000
  C   C35       1.0  0.08010130294034501  0.8101596506541864  0.22853487981629184  1.0000
  C   C36       1.0  0.15306678742592691  0.8599028658113133  0.2662663829893437  1.0000
  C   C37       1.0  0.16051856819231758  0.9582374365924328  0.35312293444321274  1.0000
  C   C38       1.0  0.23544847579744954  0.007857031617835906  0.39204594337142046  1.0000
  N   N4        1.0  0.29568367899459447  0.0477399789142221  0.42333189428492335  1.0000
  C   C39       1.0  0.09501219085556906  0.008229358296446778  0.40198228034536987  1.0000
  C   C40       1.0  0.022302644420681982  0.9605089112053945  0.3637713688899315  1.0000
  H   H19       1.0  0.8109409866070407  0.2801362675453736  0.4760634573457654  1.0000
  H   H20       1.0  0.00463879524001509  0.5930666693285167  0.34835326014407686  1.0000
  H   H21       1.0  0.0033991644357991286  0.5948093560120895  0.9310988449807245  1.0000
  H   H22       1.0  0.8467476976561323  0.3411585547090894  0.14642986574540684  1.0000
  H   H23       1.0  0.20406367325336716  0.8214085925706338  0.2290384535594776  1.0000
  H   H24       1.0  0.10014355515744966  0.084329406322611  0.46910472072616044  1.0000
  H   H25       1.0  0.9716881615502034  0.9999985422832046  0.4008820268701192  1.0000
  H   H26       1.0  0.9577072107067878  0.8285584866256008  0.24720941814108155  1.0000
  Zn  Zn1       1.0  0.8375167254653927  0.4583255049637358  0.6363103772461013  1.0000
  Zn  Zn2       1.0  0.0056420389864249056  0.46565674539129814  0.6500392726479765  1.0000
  C   C41       1.0  0.9215641911439273  0.45672867145212376  0.8803784438521489  1.0000
  C   C42       1.0  0.9215964095122808  0.46725529750853334  0.40597148397672583  1.0000
  C   C43       1.0  0.921621426622041  0.6991821796603337  0.6380784611427732  1.0000
  C   C44       1.0  0.921539116383946  0.22480022649187537  0.6482715307248659  1.0000
  O   O3        1.0  0.9853948096543175  0.4717501883279924  0.45956986748726547  1.0000
  O   O4        1.0  0.985369013661654  0.4577970429156884  0.837199600099968  1.0000
  O   O5        1.0  0.9854143718509908  0.653581279023892  0.6415405799629628  1.0000
  O   O6        1.0  0.9853493941035093  0.2759659590448629  0.6552287855639447  1.0000
  O   O7        1.0  0.8578093129753908  0.6480162888097953  0.6311208596383038  1.0000
  O   O8        1.0  0.8577639550633577  0.4522336130096629  0.8267798110447162  1.0000
  O   O9        1.0  0.857789751205918  0.4661867137563398  0.44914851695631963  1.0000
  O   O10       1.0  0.8577443356436644  0.2704024751477601  0.6448075324014961  1.0000
