data_image0
_chemical_formula_structural       NC8NH4C7NH5C10H3Zn2C4O8
_chemical_formula_sum              "N3 C29 H12 Zn2 O8"
_cell_length_a       14.927258825633057
_cell_length_b       9.275154477615127
_cell_length_c       9.275153671780863
_cell_angle_alpha    85.92749838792564
_cell_angle_beta     89.40940107803101
_cell_angle_gamma    89.43370909507247

_space_group_name_H-M_alt    "P 1"
_space_group_IT_number       1

loop_
  _space_group_symop_operation_xyz
  'x, y, z'

loop_
  _atom_site_type_symbol
  _atom_site_label
  _atom_site_symmetry_multiplicity
  _atom_site_fract_x
  _atom_site_fract_y
  _atom_site_fract_z
  _atom_site_occupancy
  N   N1        1.0  0.8440501722394944  0.5738336270651592  0.4157436880250147  1.0000
  C   C1        1.0  0.7665237479930295  0.5738336006442504  0.4157436975756783  1.0000
  C   C2        1.0  0.670091105895274  0.5738336004955743  0.4157437526753227  1.0000
  C   C3        1.0  0.6241596375901051  0.48530918630557823  0.32562329546603763  1.0000
  C   C4        1.0  0.5304483267708182  0.4853090964214455  0.3256232666353986  1.0000
  C   C5        1.0  0.4822751087235247  0.5738336533018333  0.41574366503696014  1.0000
  C   C6        1.0  0.5282065776629044  0.6623580775275602  0.5058640141795268  1.0000
  C   C7        1.0  0.6219179554737073  0.6623581674087432  0.5058640430160807  1.0000
  C   C8        1.0  0.38584246793466026  0.5738335555633858  0.4157436096926581  1.0000
  N   N2        1.0  0.3083160430135149  0.5738336367679794  0.41574362162055034  1.0000
  H   H1        1.0  0.6607278515567909  0.4164320001733824  0.25550453996211586  1.0000
  H   H2        1.0  0.4956241951954234  0.4164319767535525  0.2555046371330565  1.0000
  H   H3        1.0  0.4916383636962184  0.7312352636597563  0.5759827696834487  1.0000
  H   H4        1.0  0.6567420194233753  0.731235277043855  0.575982780579227  1.0000
  C   C9        1.0  0.07879045867581635  0.15044004320938573  0.41407510050948604  1.0000
  C   C10       1.0  0.05501689824514755  0.233293786496247  0.28694086545371666  1.0000
  C   C11       1.0  0.02391343670474977  0.16694725451277015  0.16654112092332363  1.0000
  C   C12       1.0  0.016067779616382394  0.016840335514975546  0.17185764339741927  1.0000
  C   C13       1.0  0.04069023026150287  0.9327715011982056  0.2960939547199939  1.0000
  C   C14       1.0  0.07358433990339774  0.9972161334872746  0.4174247123557852  1.0000
  C   C15       1.0  0.998957880230006  0.2533788889631372  0.03787458686748058  1.0000
  N   N3        1.0  0.9789005526003698  0.32285410136079923  0.9344596511228632  1.0000
  H   H5        1.0  0.09388847648017616  0.22801685018778284  0.7680148625541394  1.0000
  H   H6        1.0  0.058702895554196166  0.3502422379895242  0.2826624992835556  1.0000
  H   H7        1.0  0.991685476574717  0.9644769602198043  0.07932287805186222  1.0000
  H   H8        1.0  0.0359869251997229  0.8163035807392603  0.2959670579277631  1.0000
  H   H9        1.0  0.08755929238529347  0.6990527657278598  0.6545744203778334  1.0000
  C   C16       1.0  0.07890544840008373  0.5727444954545131  0.9923159743250043  1.0000
  C   C17       1.0  0.10167600620885597  0.700165130817632  0.056563711825929675  1.0000
  C   C18       1.0  0.11606815888069066  0.8289428648693759  0.9720807203120229  1.0000
  C   C19       1.0  0.10777312095813141  0.8319039213812824  0.8221519140803218  1.0000
  C   C20       1.0  0.08672376601453946  0.7060914412164514  0.7562921349586267  1.0000
  C   C21       1.0  0.07346937048593524  0.5749116359997495  0.8391838241138019  1.0000
  C   C22       1.0  0.13835033453756074  0.9587352736425571  0.03970320110305247  1.0000
  C   C23       1.0  0.15700715984940805  0.0673996211501775  0.09634472844604747  1.0000
  C   C24       1.0  0.1788533715822371  0.19464078629869253  0.1626775199627426  1.0000
  C   C25       1.0  0.1975065902502875  0.3032843577489164  0.21931631401387056  1.0000
  H   H10       1.0  0.10619438274177283  0.700238128715559  0.17317939259401127  1.0000
  H   H11       1.0  0.11845617668385765  0.9313073021749846  0.7558384468437378  1.0000
  H   H12       1.0  0.2138856402582645  0.39868232120837493  0.26905012811402873  1.0000
  Zn  Zn1       1.0  0.9780272527629835  0.5738297801333316  0.41575198887663783  1.0000
  Zn  Zn2       1.0  0.17433897235101714  0.5738256776561416  0.415747114427401  1.0000
  C   C26       1.0  0.07453019942007288  0.5687582291665374  0.6790849221418664  1.0000
  C   C27       1.0  0.07783815731867127  0.578899048126339  0.15241432983104763  1.0000
  C   C28       1.0  0.07460067634049537  0.8371427040949517  0.4110455356316185  1.0000
  C   C29       1.0  0.0777676235674094  0.31051284115710676  0.4204537863664424  1.0000
  O   O1        1.0  0.15197927785090015  0.5809567252833049  0.20614292574586823  1.0000
  O   O2        1.0  0.14938514106286283  0.5666963495798183  0.6253522072490922  1.0000
  O   O3        1.0  0.14944103815726392  0.7834202111272679  0.40890851217404767  1.0000
  O   O4        1.0  0.15192331439919315  0.36423287377453684  0.4225865127482795  1.0000
  O   O5        1.0  0.00044284372329084156  0.783422584017887  0.4089125905498443  1.0000
  O   O6        1.0  0.0003869364682127483  0.5667004545142056  0.6253562155938273  1.0000
  O   O7        1.0  0.0029810847529796445  0.5809607755383808  0.20614520026865835  1.0000
  O   O8        1.0  0.0029251206670619645  0.3642369139938817  0.42258889533778876  1.0000
