data_image0
_chemical_formula_structural       NC9NC3NH7C8NH7C6SCNH5Zn2C4O8
_chemical_formula_sum              "N5 C31 H19 S1 Zn2 O8"
_cell_length_a       16.053384444249904
_cell_length_b       9.274263428431858
_cell_length_c       10.302218930750287
_cell_angle_alpha    85.51116070618167
_cell_angle_beta     89.81672032337951
_cell_angle_gamma    89.79185309571561

_space_group_name_H-M_alt    "P 1"
_space_group_IT_number       1

loop_
  _space_group_symop_operation_xyz
  'x, y, z'

loop_
  _atom_site_type_symbol
  _atom_site_label
  _atom_site_symmetry_multiplicity
  _atom_site_fract_x
  _atom_site_fract_y
  _atom_site_fract_z
  _atom_site_occupancy
  N   N1        1.0  0.7938645749074078  0.5593694542524248  0.5638773945152264  1.0000
  C   C1        1.0  0.7429543504038494  0.5362702487970641  0.48906550418641204  1.0000
  C   C2        1.0  0.6796868949452443  0.5075692319008861  0.39613090315593086  1.0000
  C   C3        1.0  0.6932008092395716  0.49417944161013067  0.2654425147079642  1.0000
  C   C4        1.0  0.6163937283085894  0.4660623091929832  0.21322179443075884  1.0000
  C   C5        1.0  0.5593001946724294  0.46386295045845843  0.31486695003743526  1.0000
  C   C6        1.0  0.4684816613520686  0.43741067475242934  0.3046404194954031  1.0000
  C   C7        1.0  0.4128950587193562  0.4848276077548553  0.3984902931810035  1.0000
  C   C8        1.0  0.3271889776177358  0.4597401071286627  0.3886950452406239  1.0000
  C   C9        1.0  0.2708347185918251  0.5090943227095754  0.4849148960393328  1.0000
  N   N2        1.0  0.2255425116912551  0.548768152542443  0.5622605871607638  1.0000
  C   C10       1.0  0.2963426978356071  0.38711131084500305  0.2850637119956607  1.0000
  C   C11       1.0  0.3509216069886584  0.33982717455596667  0.19142536137509825  1.0000
  C   C12       1.0  0.4364205172441362  0.36473070259327045  0.20082425672751114  1.0000
  N   N3        1.0  0.5986644614584924  0.4893545606189554  0.4263744148806035  1.0000
  H   H1        1.0  0.7519870599916488  0.5037777993637403  0.21383437759029023  1.0000
  H   H2        1.0  0.6040228276337989  0.4507842989464115  0.11208433181430301  1.0000
  H   H3        1.0  0.43558730303950144  0.5430700603104521  0.4782283327586643  1.0000
  H   H4        1.0  0.2301950462836456  0.3671604544300311  0.27664665150684775  1.0000
  H   H5        1.0  0.3269503313342805  0.28340796622775666  0.11145233163608648  1.0000
  H   H6        1.0  0.4772837572868076  0.3253819781126621  0.12762255481957796  1.0000
  H   H7        1.0  0.5725309601812308  0.49196781432987535  0.5191063894693755  1.0000
  C   C13       1.0  0.007071715239087121  0.1305499584945209  0.5633547543772879  1.0000
  C   C14       1.0  0.9962828734010545  0.2141967304156991  0.4447359173754351  1.0000
  C   C15       1.0  0.9936640168245372  0.14937161060042908  0.32716060958288784  1.0000
  C   C16       1.0  0.002446327337431111  0.9993744438377936  0.3252934032245105  1.0000
  C   C17       1.0  0.0109995861304939  0.9142781192016656  0.4431247228155224  1.0000
  C   C18       1.0  0.012343262457908734  0.9775764383865787  0.5627944319523641  1.0000
  C   C19       1.0  0.9983801017914908  0.9295100690943119  0.19862750444544527  1.0000
  C   C20       1.0  0.9119506768231611  0.8927016519376748  0.17009505476123699  1.0000
  N   N4        1.0  0.8437337763103772  0.8636482055291218  0.14758358649673808  1.0000
  H   H8        1.0  0.07901046739492901  0.20699427498987055  0.8624251533923026  1.0000
  H   H9        1.0  0.9916778838091156  0.3309291166309547  0.44262667046505144  1.0000
  H   H10       1.0  0.985563227466314  0.2165151861523209  0.2372128756472254  1.0000
  H   H11       1.0  0.014595839999254064  0.7977005564586891  0.44140102054451336  1.0000
  H   H12       1.0  0.05753589740010389  0.6789338113719686  0.7659211034321654  1.0000
  H   H13       1.0  0.03686479100888307  0.829448734263579  0.20350792040921561  1.0000
  H   H14       1.0  0.02296346459847955  0.0037343753108660628  0.11773628969657435  1.0000
  C   C21       1.0  0.009630243898961057  0.5541326348728032  0.1817996624600453  1.0000
  C   C22       1.0  0.08766264374061872  0.48500693895783153  0.1853289755842198  1.0000
  C   C23       1.0  0.12645162576675273  0.45015753520169044  0.0701083519106307  1.0000
  C   C24       1.0  0.08786463091196753  0.48482333158393376  0.9501740862123951  1.0000
  C   C25       1.0  0.009784713193738083  0.5539937047623282  0.9443495009767  1.0000
  C   C26       1.0  0.9710817992332664  0.5882161574348288  0.060729674246638325  1.0000
  S   S1        1.0  0.22620703940560127  0.3624753380875576  0.0760511434221971  1.0000
  C   C27       1.0  0.18155072761871982  0.1883061190229958  0.0885930525477292  1.0000
  N   N5        1.0  0.1522495901511931  0.0741307763567256  0.09681541667017601  1.0000
  H   H15       1.0  0.9799450084195073  0.5805073321280918  0.5077865180426642  1.0000
  H   H16       1.0  0.11858349424455827  0.45770359954838535  0.27730194371058636  1.0000
  H   H17       1.0  0.11892392855618406  0.45739407291827505  0.8618793934467099  1.0000
  H   H18       1.0  0.9108980698408857  0.6415088559603102  0.05716101510455984  1.0000
  H   H19       1.0  0.862652949806576  0.6845106529530056  0.7261431439085007  1.0000
  Zn  Zn1       1.0  0.9184374780165679  0.5563062998900286  0.563418312373563  1.0000
  Zn  Zn2       1.0  0.10096951414635626  0.5518195551984675  0.5627302887074097  1.0000
  C   C28       1.0  0.00971791027142777  0.5482745352758771  0.8002150643310384  1.0000
  C   C29       1.0  0.00969108648667993  0.5598530905182084  0.32593365546795394  1.0000
  C   C30       1.0  0.01134148759297804  0.817471415550433  0.5577264495406593  1.0000
  C   C31       1.0  0.00806743610980254  0.2906544790109321  0.5684223408609554  1.0000
  O   O1        1.0  0.07898142309409018  0.5600639395289071  0.37404524296841446  1.0000
  O   O2        1.0  0.07896515873570542  0.5446572629246944  0.751580909753613  1.0000
  O   O3        1.0  0.08027528443715369  0.7620371709128217  0.55576964019098  1.0000
  O   O4        1.0  0.07767123515130891  0.34268404340653724  0.5698564154083297  1.0000
  O   O5        1.0  0.9417356947223982  0.7654418132146361  0.5562921859006009  1.0000
  O   O6        1.0  0.9404255797870599  0.548063637991906  0.7521033850885703  1.0000
  O   O7        1.0  0.9404418435718153  0.5634702646213663  0.37456615732055254  1.0000
  O   O8        1.0  0.9391316555811499  0.34609035816591593  0.5703774271111437  1.0000
