data_image0
_chemical_formula_structural       NC6NC2H4C7NH5C10H3Zn2C4O8
_chemical_formula_sum              "N3 C29 H12 Zn2 O8"
_cell_length_a       14.927258858638513
_cell_length_b       9.275154477615127
_cell_length_c       9.275153671780862
_cell_angle_alpha    85.92749838792564
_cell_angle_beta     89.40940071634567
_cell_angle_gamma    89.43371000992973

_space_group_name_H-M_alt    "P 1"
_space_group_IT_number       1

loop_
  _space_group_symop_operation_xyz
  'x, y, z'

loop_
  _atom_site_type_symbol
  _atom_site_label
  _atom_site_symmetry_multiplicity
  _atom_site_fract_x
  _atom_site_fract_y
  _atom_site_fract_z
  _atom_site_occupancy
  N   N1        1.0  0.8440501703006962  0.5738336494770774  0.41574367785998056  1.0000
  C   C1        1.0  0.7665236792407947  0.5738336210005714  0.4157436883383936  1.0000
  C   C2        1.0  0.6700911713071096  0.5738337359466725  0.41574363892173083  1.0000
  C   C3        1.0  0.6239984543779673  0.5498237114573987  0.2889304450528227  1.0000
  C   C4        1.0  0.530287143733467  0.5498237367461988  0.2889303116612745  1.0000
  C   C5        1.0  0.4822751082904109  0.5738335584820988  0.4157436568516133  1.0000
  C   C6        1.0  0.38584253336520924  0.5738336734311482  0.4157436074290366  1.0000
  N   N2        1.0  0.3083160423053075  0.5738336449546421  0.4157436179074496  1.0000
  C   C7        1.0  0.5283677582280365  0.5978435829743209  0.5425568507146072  1.0000
  C   C8        1.0  0.622079068872537  0.597843557685521  0.5425569841061557  1.0000
  H   H1        1.0  0.6604413197953293  0.531142558370636  0.19026250215888085  1.0000
  H   H2        1.0  0.4953376630980569  0.5311427558535731  0.19026249800592998  1.0000
  H   H3        1.0  0.4919249591679808  0.6165247260224043  0.6412249016811808  1.0000
  H   H4        1.0  0.6570285481990557  0.6165246361679182  0.6412249082054464  1.0000
  C   C9        1.0  0.07879045619781588  0.1504400718543224  0.4140750875174364  1.0000
  C   C10       1.0  0.05501689582175495  0.23329381450992792  0.28694085274797576  1.0000
  C   C11       1.0  0.023913434352802923  0.16694728170056644  0.16654110859216686  1.0000
  C   C12       1.0  0.016067777282456456  0.016840362494448202  0.1718576311607487  1.0000
  C   C13       1.0  0.04069022787101885  0.9327715288314735  0.2960939421867914  1.0000
  C   C14       1.0  0.07358433743735593  0.9972161619939741  0.4174246994264337  1.0000
  C   C15       1.0  0.9989578779353826  0.25337891548829355  0.037874574836867625  1.0000
  N   N3        1.0  0.9789005503518184  0.3228541273533763  0.9344596393338037  1.0000
  H   H5        1.0  0.09388847396749506  0.22801687923361455  0.7680148493802617  1.0000
  H   H6        1.0  0.05870289312233702  0.3502422661010792  0.2826624865334242  1.0000
  H   H7        1.0  0.9916854742967984  0.9644769865518578  0.07932286610883232  1.0000
  H   H8        1.0  0.035986922820042705  0.816303608247642  0.29596704545120334  1.0000
  H   H9        1.0  0.08755928988715092  0.6990527946056336  0.6545744072801793  1.0000
  C   C16       1.0  0.07890544592181908  0.5727445241025027  0.9923159613315701  1.0000
  C   C17       1.0  0.10167600367828693  0.7001651600702448  0.05656369855826538  1.0000
  C   C18       1.0  0.11606815631706228  0.8289428945041406  0.9720807068710324  1.0000
  C   C19       1.0  0.10777311841355756  0.8319039507957913  0.8221519007392288  1.0000
  C   C20       1.0  0.08672376351831558  0.7060914700720398  0.7562921218710343  1.0000
  C   C21       1.0  0.07346936802015726  0.5749116645033963  0.8391838111858352  1.0000
  C   C22       1.0  0.13835033192274993  0.9587353038689774  0.03970318739371347  1.0000
  C   C23       1.0  0.1570071571917425  0.06739965187198838  0.09634471451202109  1.0000
  C   C24       1.0  0.17885336887439007  0.19464081760058294  0.16267750576561868  1.0000
  C   C25       1.0  0.1975065874995936  0.30328438954610304  0.21931629959210364  1.0000
  H   H10       1.0  0.10619438020082497  0.7002381580881477  0.17317937927193205  1.0000
  H   H11       1.0  0.1184561741147441  0.9313073318731582  0.7558384333739867  1.0000
  H   H12       1.0  0.21388563746994804  0.39868235344047115  0.26905011349500585  1.0000
  Zn  Zn1       1.0  0.9780272505164382  0.57382980610272  0.41575197709809575  1.0000
  Zn  Zn2       1.0  0.17433896965353976  0.5738257088381615  0.4157471002846449  1.0000
  C   C26       1.0  0.07453019695185817  0.5687582576983519  0.679084909201124  1.0000
  C   C27       1.0  0.07783815484285794  0.5788990767459892  0.15241431685046702  1.0000
  C   C28       1.0  0.07460067387211904  0.8371427326286378  0.41104552269002737  1.0000
  C   C29       1.0  0.07776762109175793  0.31051286977488385  0.4204537733867111  1.0000
  O   O1        1.0  0.15197927520478327  0.5809567558716119  0.20614291187239364  1.0000
  O   O2        1.0  0.14938513842270484  0.5666963800992435  0.6253521934068595  1.0000
  O   O3        1.0  0.14944103551697774  0.7834202416481777  0.40890849833114196  1.0000
  O   O4        1.0  0.1519233117532054  0.36423290436135725  0.4225864988754795  1.0000
  O   O5        1.0  0.0004428414252561941  0.7834226105824736  0.40891257850134766  1.0000
  O   O6        1.0  0.0003869341703062163  0.5667004810773073  0.6253562035460041  1.0000
  O   O7        1.0  0.0029810824491145493  0.5809608021703645  0.2061451881895937  1.0000
  O   O8        1.0  0.002925118363325651  0.3642369406243793  0.4225888832593976  1.0000
