data_image0
_chemical_formula_structural       NC9NC5H8C7NC2NH8C6NCOCH9Zn2C4O8
_chemical_formula_sum              "N5 C35 H25 O9 Zn2"
_cell_length_a       17.807436237873137
_cell_length_b       9.273995741505848
_cell_length_c       10.300272075376752
_cell_angle_alpha    85.68415599440686
_cell_angle_beta     89.39000598542044
_cell_angle_gamma    88.97465214434487

_space_group_name_H-M_alt    "P 1"
_space_group_IT_number       1

loop_
  _space_group_symop_operation_xyz
  'x, y, z'

loop_
  _atom_site_type_symbol
  _atom_site_label
  _atom_site_symmetry_multiplicity
  _atom_site_fract_x
  _atom_site_fract_y
  _atom_site_fract_z
  _atom_site_occupancy
  N   N1        1.0  0.7156117206249718  0.5411542888676664  0.560541984617805  1.0000
  C   C1        1.0  0.6548171464098316  0.5020933566199632  0.5494335225446478  1.0000
  C   C2        1.0  0.5791953780200597  0.4535058585253531  0.5356158020011157  1.0000
  C   C3        1.0  0.5606853395305845  0.37426669833265414  0.43044482512045684  1.0000
  C   C4        1.0  0.4872598559273236  0.3269682385945931  0.41694581607887177  1.0000
  C   C5        1.0  0.4312934694375761  0.35848984404679785  0.5085844216644211  1.0000
  C   C6        1.0  0.3532617833354995  0.30835130344138917  0.49432081929872274  1.0000
  C   C7        1.0  0.291566450096549  0.3991013018667602  0.5204561398987748  1.0000
  C   C8        1.0  0.2179974655686782  0.3515774377563483  0.5069703209499803  1.0000
  C   C9        1.0  0.1552678866392362  0.4453150495923799  0.5334760304897219  1.0000
  N   N2        1.0  0.1048462590772508  0.5206736039398097  0.5547858803895873  1.0000
  C   C10       1.0  0.2055387505151  0.2130171933686278  0.46732320953148215  1.0000
  C   C11       1.0  0.2663766325060276  0.12225182034165537  0.4411794661215984  1.0000
  C   C12       1.0  0.3398238651840216  0.1693377709324586  0.4544618020716051  1.0000
  C   C13       1.0  0.4504978198779921  0.43827773053045793  0.6139758132378217  1.0000
  C   C14       1.0  0.5239750564152851  0.4853648881322621  0.6273187180828146  1.0000
  H   H1        1.0  0.6029491847410344  0.34933311381912624  0.3586807400646512  1.0000
  H   H2        1.0  0.4740327027920487  0.26740619380455105  0.3338991388064001  1.0000
  H   H3        1.0  0.3006373954055779  0.5072888822710464  0.5495673968393753  1.0000
  H   H4        1.0  0.14887346833324036  0.17523683469962958  0.4566465558110559  1.0000
  H   H5        1.0  0.2566121951867009  0.014975126497535967  0.41086982878563116  1.0000
  H   H6        1.0  0.3860778490577292  0.0963595665955468  0.435255391870516  1.0000
  H   H7        1.0  0.4089476558182269  0.4626123944464507  0.6870330407360923  1.0000
  H   H8        1.0  0.5377377674333129  0.5462823498785272  0.7093267602160556  1.0000
  C   C15       1.0  0.9079864021803824  0.10754332760629914  0.5567484636752671  1.0000
  C   C16       1.0  0.9211767919296566  0.19012877575756337  0.4391131837972575  1.0000
  C   C17       1.0  0.9410875483082348  0.12400816143742244  0.32624937405648136  1.0000
  C   C18       1.0  0.9486384298682414  0.9731641673245028  0.3277930892016194  1.0000
  C   C19       1.0  0.9338709526853339  0.8893845016184933  0.44437591842362784  1.0000
  C   C20       1.0  0.9124786928636424  0.9542730712217938  0.5585905184460684  1.0000
  C   C21       1.0  0.9706559016166961  0.9050527583154805  0.2067910029113358  1.0000
  N   N3        1.0  0.9733952864547184  0.9792366358274118  0.08874872092019404  1.0000
  C   C22       1.0  0.9959258167344234  0.880193730728687  0.0067418047167771035  1.0000
  C   C23       1.0  0.006640491548705719  0.7486901066986618  0.07552298168376281  1.0000
  N   N4        1.0  0.9907805416164633  0.7644772111604945  0.2013177393404266  1.0000
  H   H9        1.0  0.8470732594558652  0.37528130172656704  0.744547421434151  1.0000
  H   H10       1.0  0.9179089220134697  0.30714614494605685  0.43497310798970235  1.0000
  H   H11       1.0  0.9516902476047275  0.1916827067078195  0.23787549945694544  1.0000
  H   H12       1.0  0.9364141119884432  0.7726879210348636  0.4461379528263673  1.0000
  H   H13       1.0  0.9134550978271382  0.6561113836676212  0.7745309430694078  1.0000
  H   H14       1.0  0.004238378514459516  0.9028161110424444  0.9030826349322547  1.0000
  H   H15       1.0  0.025087728062355815  0.6486221443295819  0.03675338734735977  1.0000
  H   H16       1.0  0.9948601867522658  0.6836938473354883  0.2771660851127018  1.0000
  C   C24       1.0  0.9102394849227236  0.5310543121799616  0.1763170000798957  1.0000
  C   C25       1.0  0.8335544633601035  0.5692039079461331  0.17408883850316714  1.0000
  C   C26       1.0  0.7951497436379095  0.5903633232342536  0.05555236030620936  1.0000
  C   C27       1.0  0.8335603108864538  0.5688748092766447  0.93895405221383  1.0000
  C   C28       1.0  0.9102256315431433  0.5307620888319615  0.9390220388920674  1.0000
  C   C29       1.0  0.9482271497682431  0.5125870211967285  0.05821386193151378  1.0000
  N   N5        1.0  0.7163619225874001  0.6272132289834313  0.05180952385409921  1.0000
  C   C30       1.0  0.6795546191641118  0.7189227001633345  0.1400080581914167  1.0000
  O   O1        1.0  0.7172434561341343  0.7940711652686201  0.21188729882238655  1.0000
  C   C31       1.0  0.5958884428576908  0.733931916723414  0.1401567973776201  1.0000
  H   H17       1.0  0.9391373958712416  0.5144873216920782  0.5047329597587216  1.0000
  H   H18       1.0  0.8033669110062499  0.5796479842288205  0.26469835090875904  1.0000
  H   H19       1.0  0.8033386456662649  0.5832766395970261  0.8480605919906735  1.0000
  H   H20       1.0  0.007376749752474376  0.48320218952967214  0.059120793387189334  1.0000
  H   H21       1.0  0.9390156460446464  0.5142225708954251  0.6117865445050881  1.0000
  H   H22       1.0  0.6847914207843832  0.5929103986403919  0.9752385668859413  1.0000
  H   H23       1.0  0.5703775444760752  0.6275018935541512  0.1279154375505791  1.0000
  H   H24       1.0  0.5755141926254966  0.7735245344493451  0.23358998543556653  1.0000
  H   H25       1.0  0.5782520689471309  0.8119332581656247  0.058728826814919095  1.0000
  Zn  Zn1       1.0  0.8279363787541886  0.5352401557971025  0.558888399376297  1.0000
  Zn  Zn2       1.0  0.9925215202065153  0.526575980853313  0.5564501162167161  1.0000
  C   C32       1.0  0.9101960833892208  0.5250739799963726  0.7948419592554435  1.0000
  C   C33       1.0  0.9102636224848791  0.5367438810793213  0.32049666113002484  1.0000
  C   C34       1.0  0.9116257816121573  0.7942253542647746  0.5530674598794341  1.0000
  C   C35       1.0  0.9088338589094589  0.26759077759658423  0.5622712268053796  1.0000
  O   O2        1.0  0.9727308933398241  0.5353590534095487  0.36795934304062095  1.0000
  O   O3        1.0  0.9726451208921133  0.5198818118795251  0.7455283006486602  1.0000
  O   O4        1.0  0.9737987782836317  0.7372249942916282  0.5502936975429904  1.0000
  O   O5        1.0  0.9715771798430343  0.3180158843046299  0.5631938496302715  1.0000
  O   O6        1.0  0.8488806629528469  0.7438002553040155  0.5521446667879806  1.0000
  O   O7        1.0  0.847727014748989  0.5264588050644783  0.7473792044195438  1.0000
  O   O8        1.0  0.8478127870085103  0.5419359969498128  0.3698086853679694  1.0000
  O   O9        1.0  0.8466590734521691  0.3245928174959394  0.565043289298879  1.0000
