data_image0
_chemical_formula_structural       NC6NC2H4C9H10C6NH7Zn2C4O8
_chemical_formula_sum              "N3 C27 H21 Zn2 O8"
_cell_length_a       14.927258858638513
_cell_length_b       10.297183801781406
_cell_length_c       9.274774538082514
_cell_angle_alpha    85.03689992379437
_cell_angle_beta     90.34966586359073
_cell_angle_gamma    89.99762792032334

_space_group_name_H-M_alt    "P 1"
_space_group_IT_number       1

loop_
  _space_group_symop_operation_xyz
  'x, y, z'

loop_
  _atom_site_type_symbol
  _atom_site_label
  _atom_site_symmetry_multiplicity
  _atom_site_fract_x
  _atom_site_fract_y
  _atom_site_fract_z
  _atom_site_occupancy
  N   N1        1.0  0.8374883695537044  0.43416951358888584  0.4073202768158408  1.0000
  C   C1        1.0  0.7599618784270191  0.4341694878240627  0.40732028742995974  1.0000
  C   C2        1.0  0.663529370690278  0.4341695918966788  0.4073202374589764  1.0000
  C   C3        1.0  0.6159966807056948  0.4138230866955428  0.2804968701697308  1.0000
  C   C4        1.0  0.5222853688547754  0.4138231108359858  0.2804967365436932  1.0000
  C   C5        1.0  0.47571330677417983  0.43416943181214934  0.40732025619106293  1.0000
  C   C6        1.0  0.37928073204588064  0.4341695358874822  0.4073202062141472  1.0000
  N   N2        1.0  0.30175424091919534  0.4341695101226591  0.40732021682826614  1.0000
  C   C7        1.0  0.5232459297672042  0.4545159370160023  0.5341436234743762  1.0000
  C   C8        1.0  0.616957241618124  0.4545159128755593  0.5341437571004133  1.0000
  H   H1        1.0  0.6513191645890357  0.39799235950162215  0.18182101166485554  1.0000
  H   H2        1.0  0.48621550905377864  0.39799253748360774  0.18182100663372247  1.0000
  H   H3        1.0  0.4879235132823304  0.47034665406748105  0.6328195901955957  1.0000
  H   H4        1.0  0.6530271018319663  0.4703465730388501  0.6328195971236898  1.0000
  C   C9        1.0  0.06962951167383968  0.052692339413040294  0.40752475480649264  1.0000
  C   C10       1.0  0.06644183773902634  0.06374292845829999  0.25565263525833415  1.0000
  C   C11       1.0  0.0648084919526102  0.9527879809872754  0.17784410720310517  1.0000
  C   C12       1.0  0.0664291099776868  0.8285764502387959  0.25506400141132346  1.0000
  C   C13       1.0  0.06962175020293948  0.8156365746631864  0.4071282169975263  1.0000
  C   C14       1.0  0.07120025974567756  0.9281784294354357  0.48236595324996134  1.0000
  C   C15       1.0  0.06136054964569637  0.9741721681473554  0.01358368599198578  1.0000
  C   C16       1.0  0.008600232804128137  0.8760850933344175  0.9332424521849717  1.0000
  C   C17       1.0  0.11064245505877635  0.8764292439714139  0.928657646764402  1.0000
  H   H5        1.0  0.07086633098640555  0.3759726469926523  0.466045953791455  1.0000
  H   H6        1.0  0.06521140785092007  0.1594314308502376  0.19702161808881002  1.0000
  H   H7        1.0  0.06523067554261487  0.74142362033967  0.1980611562445469  1.0000
  H   H8        1.0  0.07365916811572597  0.9189252250670916  0.5995384826870742  1.0000
  H   H9        1.0  0.07563984848308758  0.5839803433412772  0.6943347024243169  1.0000
  H   H10       1.0  0.06025314282675765  0.07530162974010302  0.9607874990081324  1.0000
  H   H11       1.0  0.9789558970837445  0.7919326862491478  0.9989223732461708  1.0000
  H   H12       1.0  0.9766081770110678  0.9177585714828823  0.8311309497708272  1.0000
  H   H13       1.0  0.1429832925285589  0.7924866837244219  0.991553298160249  1.0000
  H   H14       1.0  0.13828958244144784  0.918301506133444  0.8238651957218561  1.0000
  C   C18       1.0  0.06801787311029298  0.43748699122395346  0.9835084595807683  1.0000
  C   C19       1.0  0.13149458214652543  0.5141469188077559  0.05020512059467296  1.0000
  C   C20       1.0  0.19899040880504149  0.5801059599925158  0.9694059162686379  1.0000
  C   C21       1.0  0.20355618483127103  0.5697042216342134  0.8204339064764881  1.0000
  C   C22       1.0  0.14036685896040685  0.4959059906305967  0.7520331956150899  1.0000
  C   C23       1.0  0.07123336522392698  0.4308418840567494  0.8311445391437209  1.0000
  N   N3        1.0  0.2634955501778349  0.6565851601172847  0.0391079162414194  1.0000
  H   H15       1.0  0.9341143107269799  0.1835437936473634  0.1095607659291753  1.0000
  H   H16       1.0  0.1298819638630007  0.5203080005453073  0.1662220481396457  1.0000
  H   H17       1.0  0.2556680410420413  0.6198946526363103  0.7568770453209677  1.0000
  H   H18       1.0  0.1443616204103506  0.49229250536239005  0.6358620236047599  1.0000
  H   H19       1.0  0.9782932757775085  0.2637569222130218  0.565149604019163  1.0000
  H   H20       1.0  0.2608940449255324  0.6647315127320526  0.15047360566090395  1.0000
  H   H21       1.0  0.3143143944893356  0.7057540349384963  0.9798402707882747  1.0000
  Zn  Zn1       1.0  0.9714655109856084  0.43416596630133203  0.40732860069366983  1.0000
  Zn  Zn2       1.0  0.16777715538956062  0.4341623240178094  0.40732373754170315  1.0000
  C   C24       1.0  0.07062362776681574  0.42692283326025704  0.6709258614953828  1.0000
  C   C25       1.0  0.06862118284606211  0.44140709499306197  0.14372661748943139  1.0000
  C   C26       1.0  0.06959677645433263  0.6714689572104602  0.40145198927584724  1.0000
  C   C27       1.0  0.06964796747890395  0.1968594096956522  0.4132005674671497  1.0000
  O   O1        1.0  0.14332290512702506  0.44271566805217466  0.19749545229906507  1.0000
  O   O2        1.0  0.14491789968015756  0.4256105190487762  0.6171529207174355  1.0000
  O   O3        1.0  0.14408770566639595  0.6230845951003479  0.3995508616506962  1.0000
  O   O4        1.0  0.14415303174231942  0.24524160214304458  0.41509740314945964  1.0000
  O   O5        1.0  0.9950895676412912  0.6230866881788135  0.39955493507998074  1.0000
  O   O6        1.0  0.9959197613431355  0.42561417347716574  0.6171569163826047  1.0000
  O   O7        1.0  0.9943247602675955  0.44271929081488715  0.1974977127918518  1.0000
  O   O8        1.0  0.9951548872897983  0.24524521476603223  0.4150997718526588  1.0000
