data_image0
_chemical_formula_structural       NC12NC2H8C12ClH9C12BrH9Zn2C4O8
_chemical_formula_sum              "N2 C42 H26 Cl1 Br1 Zn2 O8"
_cell_length_a       19.240039667572717
_cell_length_b       10.299768534541528
_cell_length_c       10.299148005577397
_cell_angle_alpha    85.55407396339785
_cell_angle_beta     89.97327996829169
_cell_angle_gamma    90.01670575511149

_space_group_name_H-M_alt    "P 1"
_space_group_IT_number       1

loop_
  _space_group_symop_operation_xyz
  'x, y, z'

loop_
  _atom_site_type_symbol
  _atom_site_label
  _atom_site_symmetry_multiplicity
  _atom_site_fract_x
  _atom_site_fract_y
  _atom_site_fract_z
  _atom_site_occupancy
  N   N1        1.0  0.6550566066415094  0.4214685154216032  0.5674624773936532  1.0000
  C   C1        1.0  0.5949082378577926  0.4214685994139573  0.5674623954575533  1.0000
  C   C2        1.0  0.520090200769215  0.4214687167184956  0.5674622581529032  1.0000
  C   C3        1.0  0.48358060717806456  0.3569889679693079  0.6708756077666573  1.0000
  C   C4        1.0  0.41090982016558353  0.35687807517611303  0.670962147731089  1.0000
  C   C5        1.0  0.37375796590317517  0.42146880931598063  0.5674620304653271  1.0000
  C   C6        1.0  0.4109817900085933  0.48605973041190564  0.46396210776111674  1.0000
  C   C7        1.0  0.48365243949249587  0.4859486021037085  0.46404877021815505  1.0000
  C   C8        1.0  0.2965528754750933  0.4214687306695426  0.5674619350402708  1.0000
  C   C9        1.0  0.2593369360418089  0.30820295811164566  0.6093278017911254  1.0000
  C   C10       1.0  0.1866662871426376  0.30830987062322857  0.6092364783574813  1.0000
  C   C11       1.0  0.1502205885165289  0.42146860148904874  0.5674619959456637  1.0000
  C   C12       1.0  0.075402551281742  0.42146848771092627  0.567462244611888  1.0000
  N   N2        1.0  0.015254234371235801  0.42146844685726825  0.5674624530391295  1.0000
  C   C13       1.0  0.1867224007720725  0.5346274081894677  0.5256874606451092  1.0000
  C   C14       1.0  0.2593931365436223  0.534734500843999  0.5255959746198424  1.0000
  H   H1        1.0  0.5112675251708217  0.30706724475038616  0.7516178392865109  1.0000
  H   H2        1.0  0.3837884114836972  0.3077542654418799  0.7528199908151332  1.0000
  H   H3        1.0  0.3839166679192686  0.5351835672057481  0.3821042138277688  1.0000
  H   H4        1.0  0.5113952928783155  0.5358702250207076  0.3833068145013243  1.0000
  H   H5        1.0  0.2864085147164969  0.2190438973633213  0.6404914850304861  1.0000
  H   H6        1.0  0.15892963109590497  0.2200498294149018  0.6414332352087841  1.0000
  H   H7        1.0  0.159029233363553  0.6228874248590515  0.49349071834345737  1.0000
  H   H8        1.0  0.2865080367096793  0.6238936407747089  0.49443224661158575  1.0000
  C   C15       1.0  0.8350932061739936  0.04010309849630134  0.5674603262491036  1.0000
  C   C16       1.0  0.8397047243412845  0.049688616661021756  0.43098482222797213  1.0000
  C   C17       1.0  0.8421082327801449  0.9374063066524946  0.3618389881574051  1.0000
  C   C18       1.0  0.8398374642162655  0.8144008969422222  0.43100031290673235  1.0000
  C   C19       1.0  0.8352243110291196  0.8028238497492042  0.5674757548754574  1.0000
  C   C20       1.0  0.8328785277620403  0.9162321757452327  0.634941498146008  1.0000
  C   C21       1.0  0.846987758679692  0.9486006535913397  0.21745928205695228  1.0000
  C   C22       1.0  0.8074662980881182  0.04215155217503685  0.1429918971326265  1.0000
  C   C23       1.0  0.8121209709669513  0.05249219445437858  0.007105599796512822  1.0000
  C   C24       1.0  0.856230407093518  0.9698043186643938  0.9439947480367022  1.0000
  C   C25       1.0  0.8957408538750969  0.8765658839994462  0.016950839613974814  1.0000
  C   C26       1.0  0.8912096032832287  0.8658329883361596  0.15285178089732288  1.0000
  Cl  Cl1       1.0  0.8619929453349314  0.98302423537985  0.7735015331194455  1.0000
  H   H9        1.0  0.833300330087158  0.3639042949946749  0.6194609581944637  1.0000
  H   H10       1.0  0.8423974473706517  0.1447086435892453  0.378249690843941  1.0000
  H   H11       1.0  0.8407164408194002  0.7275747996341118  0.37805161627228956  1.0000
  H   H12       1.0  0.8293202498868235  0.9080692010132895  0.740226067145429  1.0000
  H   H13       1.0  0.8334941555819477  0.47095870626055836  0.619484188167603  1.0000
  H   H14       1.0  0.7723133819515112  0.10612068803138763  0.18973762272736283  1.0000
  H   H15       1.0  0.7812762794313629  0.12461426665800279  0.9509911416768569  1.0000
  H   H16       1.0  0.9301190773964373  0.8125503785343099  0.9685155547663494  1.0000
  H   H17       1.0  0.9229366184690504  0.7940044421109794  0.20747186168995932  1.0000
  C   C27       1.0  0.8352534980021459  0.42151553578235074  0.18607987002768378  1.0000
  C   C28       1.0  0.7698888800909767  0.4822948491445426  0.18064407801673066  1.0000
  C   C29       1.0  0.736649749565081  0.5130579954066372  0.060749748336199845  1.0000
  C   C30       1.0  0.7696569026466002  0.4822220447816554  0.9453670416638325  1.0000
  C   C31       1.0  0.8350640000320144  0.42141146486862324  0.9488562213675927  1.0000
  C   C32       1.0  0.8674594109160404  0.3914306862720231  0.06963639377747288  1.0000
  C   C33       1.0  0.6675023696608301  0.5773571056432332  0.056044252690662155  1.0000
  C   C34       1.0  0.6529205587568758  0.6786740166337375  0.13612432047068923  1.0000
  C   C35       1.0  0.5878076271751429  0.7390824759885941  0.13150068274024873  1.0000
  C   C36       1.0  0.536536451941583  0.6991391112527632  0.04713523358293692  1.0000
  C   C37       1.0  0.5504203309526997  0.5986090592734257  0.9672027165146088  1.0000
  C   C38       1.0  0.615474134748881  0.5379786363635686  0.9714338112926209  1.0000
  Br  Br1       1.0  0.4476331228441747  0.7818090842363409  0.04108668451415243  1.0000
  H   H18       1.0  0.8604097483058183  0.39818987737366185  0.5156421991892028  1.0000
  H   H19       1.0  0.744245922711387  0.5042409056061303  0.2699840376169018  1.0000
  H   H20       1.0  0.7447006467210472  0.5073167955053024  0.8525510792972204  1.0000
  H   H21       1.0  0.9178777788792899  0.3445540233315898  0.07311311407318666  1.0000
  H   H22       1.0  0.9587106593360291  0.3073699164611039  0.7480929830192351  1.0000
  H   H23       1.0  0.6921429291840486  0.7122908377536359  0.20103257569619815  1.0000
  H   H24       1.0  0.5773254080224314  0.8171481515627058  0.19330676988083884  1.0000
  H   H25       1.0  0.5107871827696249  0.5671442062522856  0.9019875039523044  1.0000
  H   H26       1.0  0.6247932424530438  0.4592236755019114  0.9098288043957198  1.0000
  Zn  Zn1       1.0  0.7590018680225165  0.42146502744347286  0.5674699590995136  1.0000
  Zn  Zn2       1.0  0.9113089873074257  0.4214613400068741  0.5674655705539563  1.0000
  C   C39       1.0  0.8350973881366537  0.4162574986354963  0.8046750814043196  1.0000
  C   C40       1.0  0.835215130632275  0.4266705073616237  0.33026057570736667  1.0000
  C   C41       1.0  0.8351972318031989  0.6586541337755214  0.5622974422455225  1.0000
  C   C42       1.0  0.8351152347085699  0.18427231192525473  0.5726382840781359  1.0000
  O   O1        1.0  0.8930020112320279  0.42839349786286807  0.37864727209536553  1.0000
  O   O2        1.0  0.8929080868517784  0.4145307297927636  0.7562846803269772  1.0000
  O   O3        1.0  0.892987932371351  0.6102690780267799  0.5605630218940862  1.0000
  O   O4        1.0  0.8929221137661401  0.23265515893353372  0.5743688331503518  1.0000
  O   O5        1.0  0.7773886895888594  0.6102712085194864  0.5605666964977842  1.0000
  O   O6        1.0  0.7773088443515038  0.41453442058448586  0.7562882857133693  1.0000
  O   O7        1.0  0.7774027691580974  0.42839714361210396  0.3786493160012216  1.0000
  O   O8        1.0  0.7773228716635818  0.2326587953807608  0.574370974428779  1.0000
