data_image0
_chemical_formula_structural       NC8NC6H8C6BrH3C6NCH6Zn2C4O8
_chemical_formula_sum              "N3 C31 H17 Br1 Zn2 O8"
_cell_length_a       17.457602349358154
_cell_length_b       10.302969083221269
_cell_length_c       9.273390368590327
_cell_angle_alpha    86.16778746315522
_cell_angle_beta     92.8511133753594
_cell_angle_gamma    91.68807063265206

_space_group_name_H-M_alt    "P 1"
_space_group_IT_number       1

loop_
  _space_group_symop_operation_xyz
  'x, y, z'

loop_
  _atom_site_type_symbol
  _atom_site_label
  _atom_site_symmetry_multiplicity
  _atom_site_fract_x
  _atom_site_fract_y
  _atom_site_fract_z
  _atom_site_occupancy
  N   N1        1.0  0.7225530244365538  0.43778911993160735  0.47569688401716576  1.0000
  C   C1        1.0  0.6614760808451086  0.39176617152865695  0.46391556530668465  1.0000
  C   C2        1.0  0.5854937790947726  0.3345194374775482  0.44927019449137146  1.0000
  C   C3        1.0  0.526958168710265  0.37546289281876133  0.5323915869627318  1.0000
  C   C4        1.0  0.4524138924412136  0.32034025332168325  0.518428118869573  1.0000
  C   C5        1.0  0.3902869735443096  0.36357304305038857  0.6064568260190935  1.0000
  C   C6        1.0  0.3157455080760823  0.3814438322490092  0.5445705153438996  1.0000
  C   C7        1.0  0.2572098847847323  0.42220456710731735  0.6278117147663322  1.0000
  C   C8        1.0  0.1812304705194082  0.4406575079424513  0.5634666868154803  1.0000
  N   N2        1.0  0.12015593794328241  0.45548729634858104  0.5117334519764996  1.0000
  C   C9        1.0  0.2727235168563174  0.44534297049652166  0.7735035773507657  1.0000
  C   C10       1.0  0.3464802421845154  0.4278651540343162  0.835820044128128  1.0000
  C   C11       1.0  0.40500421788910357  0.3872892712830364  0.7530868235107269  1.0000
  C   C12       1.0  0.43769400596258085  0.22358175622120924  0.41975300499990337  1.0000
  C   C13       1.0  0.4962178609140593  0.1829211343145727  0.33707553592886774  1.0000
  C   C14       1.0  0.5699773202595259  0.23816194765158238  0.35164933795351433  1.0000
  H   H1        1.0  0.5392959979178608  0.45133975680516913  0.6063383001384366  1.0000
  H   H2        1.0  0.30341001749307983  0.3653959857013473  0.4313438125219178  1.0000
  H   H3        1.0  0.22785706054361787  0.47683994169971333  0.8387995479830781  1.0000
  H   H4        1.0  0.3583020565441862  0.44546619574135815  0.9486325024643129  1.0000
  H   H5        1.0  0.46148553418630184  0.37279148807097373  0.8042557375808783  1.0000
  H   H6        1.0  0.3812103437651732  0.1781479015436285  0.4079316037188489  1.0000
  H   H7        1.0  0.4843939532122881  0.10814765626087053  0.2617989264709102  1.0000
  H   H8        1.0  0.6148437728314134  0.2058009833148784  0.2869206135814619  1.0000
  C   C15       1.0  0.9213581400146601  0.06539090433313201  0.49372177436248776  1.0000
  C   C16       1.0  0.0008969522872399636  0.06624989381405988  0.5252208825377485  1.0000
  C   C17       1.0  0.04035248430440188  0.9497381463919687  0.5408459486924109  1.0000
  C   C18       1.0  0.0008970125485938809  0.8311675342823936  0.5252206145166787  1.0000
  C   C19       1.0  0.9213581518183613  0.8278759213021226  0.4937216798790331  1.0000
  C   C20       1.0  0.8819728366899655  0.9456058070095205  0.47812429869427775  1.0000
  Br  Br1       1.0  0.14853896062683214  0.9525608789391427  0.5836905484290618  1.0000
  H   H9        1.0  0.03255984943644785  0.15707533616142877  0.5377602405186283  1.0000
  H   H10       1.0  0.03255993976839489  0.7419943998352093  0.5377595994649615  1.0000
  H   H11       1.0  0.8206294457039278  0.944005228424793  0.4538311677063078  1.0000
  C   C21       1.0  0.9213937059382896  0.44258647427895204  0.07047918363658856  1.0000
  C   C22       1.0  0.9918579082769484  0.44314340091453097  0.15046816477194103  1.0000
  C   C23       1.0  0.06109305639523322  0.4557143716655712  0.08132847549907307  1.0000
  C   C24       1.0  0.06162310380351994  0.4681584324489074  0.9297485259962984  1.0000
  C   C25       1.0  0.9916265286152253  0.46543285919332816  0.8489923263406243  1.0000
  C   C26       1.0  0.9213226052722743  0.4506803932798536  0.916964272982164  1.0000
  N   N3        1.0  0.132154954381377  0.48228195639055027  0.8553528795550975  1.0000
  C   C27       1.0  0.2079044642992114  0.4858067422929486  0.929206604069142  1.0000
  H   H12       1.0  0.8002992646031777  0.37483330578816254  0.34534384004529084  1.0000
  H   H13       1.0  0.11395327127337557  0.4568726577344114  0.14724044464258856  1.0000
  H   H14       1.0  0.7425270455390733  0.34185983806428216  0.8052681364627055  1.0000
  H   H15       1.0  0.12966564913789913  0.49077535350885615  0.7422514279053694  1.0000
  H   H16       1.0  0.21288360729663156  0.5693108902117296  0.9991264111101644  1.0000
  H   H17       1.0  0.21726278242469158  0.39342078052575036  0.9956087417621258  1.0000
  Zn  Zn1       1.0  0.8372926359119961  0.4428930293211147  0.48610458088503616  1.0000
  Zn  Zn2       1.0  0.005416311226341896  0.4503728553573656  0.5013375550700159  1.0000
  C   C28       1.0  0.9213343172115456  0.44397834101079386  0.7569603169941028  1.0000
  C   C29       1.0  0.9213764658202415  0.44928926479771336  0.2304821267664143  1.0000
  C   C30       1.0  0.9213546840220999  0.6836949432839776  0.4879779516229176  1.0000
  C   C31       1.0  0.9213560416343456  0.20957110090106235  0.4994645637807324  1.0000
  O   O1        1.0  0.9851727384769347  0.4543716735881352  0.2899614104422341  1.0000
  O   O2        1.0  0.9851400240362396  0.44457196373276675  0.7090420933640922  1.0000
  O   O3        1.0  0.9851556102851563  0.6381461277632354  0.49183685230230867  1.0000
  O   O4        1.0  0.985157094867876  0.2607975152592692  0.5071665382397994  1.0000
  O   O5        1.0  0.8575517948981036  0.6324683668680551  0.4802755925094049  1.0000
  O   O6        1.0  0.8575362086521702  0.4388957619098961  0.6974807567222081  1.0000
  O   O7        1.0  0.8575689232894779  0.44869540995696555  0.27839834096525284  1.0000
  O   O8        1.0  0.857553279668203  0.2551212433753407  0.4956035768211886  1.0000
