data_image0
_chemical_formula_structural       NC6NC3H6C7NH3C6H4Zn2C4O8
_chemical_formula_sum              "N3 C26 H13 Zn2 O8"
_cell_length_a       14.934028789175542
_cell_length_b       9.275154477615127
_cell_length_c       10.681121600428288
_cell_angle_alpha    85.78691594316618
_cell_angle_beta     89.97499362812657
_cell_angle_gamma    89.3962875590186

_space_group_name_H-M_alt    "P 1"
_space_group_IT_number       1

loop_
  _space_group_symop_operation_xyz
  'x, y, z'

loop_
  _atom_site_type_symbol
  _atom_site_label
  _atom_site_symmetry_multiplicity
  _atom_site_fract_x
  _atom_site_fract_y
  _atom_site_fract_z
  _atom_site_occupancy
  N   N1        1.0  0.8335081644856907  0.5770494267777767  0.6236476372719584  1.0000
  C   C1        1.0  0.7560288325797624  0.5759515351404152  0.6230541125817393  1.0000
  C   C2        1.0  0.6596406692582268  0.5745807100161875  0.6223132063338109  1.0000
  C   C3        1.0  0.6112259523670193  0.6813414867227561  0.679922519268229  1.0000
  C   C4        1.0  0.5177209507392857  0.6802408100069413  0.6793284690361494  1.0000
  C   C5        1.0  0.4717177841448135  0.5724338395614131  0.6211546797070406  1.0000
  C   C6        1.0  0.37505788694041525  0.5747469469700328  0.6224039817265863  1.0000
  N   N2        1.0  0.2975665539420755  0.5765826893259856  0.6233957456367984  1.0000
  C   C7        1.0  0.5201359527196382  0.46419605086260085  0.5627478724502499  1.0000
  C   C8        1.0  0.4725356813076652  0.34698746451391366  0.4995019403380121  1.0000
  C   C9        1.0  0.6142651617343355  0.46641986359231824  0.5639479122662024  1.0000
  H   H1        1.0  0.6457563913285543  0.7654590756643112  0.7253138260713474  1.0000
  H   H2        1.0  0.48117540179524027  0.7637105715047872  0.7243700756006874  1.0000
  H   H3        1.0  0.42948497688020676  0.3960460558300902  0.42269393925788906  1.0000
  H   H4        1.0  0.4301765823076969  0.2841565585920338  0.5688840393312613  1.0000
  H   H5        1.0  0.5204582665922088  0.27106977491993556  0.4585302931527552  1.0000
  H   H6        1.0  0.6522969876889546  0.3840604987397389  0.519505741202253  1.0000
  C   C10       1.0  0.06813284783868179  0.15342414176150698  0.6220711489715449  1.0000
  C   C11       1.0  0.04355419822679438  0.23662793956069383  0.5116705451380783  1.0000
  C   C12       1.0  0.011692132503894332  0.17062155382891953  0.40712268628435466  1.0000
  C   C13       1.0  0.0038840929869659014  0.020508882765835283  0.41174423461658716  1.0000
  C   C14       1.0  0.029292659951077663  0.9360965750053695  0.5196275899796663  1.0000
  C   C15       1.0  0.06295054712073633  0.00019687246596289488  0.6249830433291257  1.0000
  C   C16       1.0  0.985922183574986  0.25740836205989237  0.2953919531518041  1.0000
  N   N3        1.0  0.9652102927723089  0.32716904264985214  0.20558906298610502  1.0000
  H   H7        1.0  0.08549505066110674  0.23007775975113098  0.9294524545427216  1.0000
  H   H8        1.0  0.9789189682932876  0.9684074110919302  0.3313928979585239  1.0000
  H   H9        1.0  0.07844084358243993  0.7014110625644505  0.8309351676595633  1.0000
  C   C17       1.0  0.06554171494682909  0.576810476016101  0.2557818491618302  1.0000
  C   C18       1.0  0.0019408277189987282  0.49668817637214263  0.19411840430845406  1.0000
  C   C19       1.0  0.0019407712466723587  0.496688268876867  0.06323626470381671  1.0000
  C   C20       1.0  0.06554164412119734  0.5768105467630225  0.9912722851194237  1.0000
  C   C21       1.0  0.12909003864889262  0.6568664488006081  0.05293494982925617  1.0000
  C   C22       1.0  0.12909002732932556  0.6568664264552488  0.18382724842164033  1.0000
  H   H10       1.0  0.9520874498267589  0.43388453115836645  0.24696636573907993  1.0000
  H   H11       1.0  0.9520874307102873  0.43388459904442644  0.01846233675707865  1.0000
  H   H12       1.0  0.17894992630568196  0.719678369977881  0.00013134868735109148  1.0000
  H   H13       1.0  0.1789498814994256  0.719678319480632  0.22855571602244143  1.0000
  Zn  Zn1       1.0  0.9674254286281087  0.5769108728691106  0.6235821596502282  1.0000
  Zn  Zn2       1.0  0.16364939214462115  0.5767094328903187  0.6234714210622923  1.0000
  C   C23       1.0  0.06557483599823041  0.5710667437922332  0.8522291094538295  1.0000
  C   C24       1.0  0.06550211640057753  0.5825553789462983  0.39482459921811763  1.0000
  C   C25       1.0  0.06392549961673794  0.8401387867550679  0.6194423064768704  1.0000
  C   C26       1.0  0.06715139642591868  0.3134816038201322  0.6276114630413275  1.0000
  O   O1        1.0  0.13995483678697107  0.584400685379307  0.4414465699611849  1.0000
  O   O2        1.0  0.14005157026409845  0.5690674613983373  0.8055227264534726  1.0000
  O   O3        1.0  0.13871870644035297  0.7863465400018395  0.6175457417660831  1.0000
  O   O4        1.0  0.1412876335896533  0.36712161715844815  0.6294234608256883  1.0000
  O   O5        1.0  0.9897871202214588  0.7864986886712921  0.6176301199180401  1.0000
  O   O6        1.0  0.9911199734397375  0.5692213423014324  0.8056070437903873  1.0000
  O   O7        1.0  0.9910232403297344  0.5845545160395496  0.44152938150270843  1.0000
  O   O8        1.0  0.992356037191862  0.36727543750635827  0.6295063662213061  1.0000
