data_image0
_chemical_formula_structural       NC10NC3NH7C7OC4NC3H8C7OC6OCH12Zn2C4O8
_chemical_formula_sum              "N4 C45 H27 O11 Zn2"
_cell_length_a       19.210446455230148
_cell_length_b       10.299371701877257
_cell_length_c       10.299362532796529
_cell_angle_alpha    85.59861751689631
_cell_angle_beta     90.00583596421428
_cell_angle_gamma    89.95709994445667

_space_group_name_H-M_alt    "P 1"
_space_group_IT_number       1

loop_
  _space_group_symop_operation_xyz
  'x, y, z'

loop_
  _atom_site_type_symbol
  _atom_site_label
  _atom_site_symmetry_multiplicity
  _atom_site_fract_x
  _atom_site_fract_y
  _atom_site_fract_z
  _atom_site_occupancy
  N   N1        1.0  0.6553964439501203  0.4197510734535159  0.5678937937110957  1.0000
  C   C1        1.0  0.5951679592331268  0.421958629159197  0.5681258119632344  1.0000
  C   C2        1.0  0.5203635997546667  0.4246955939245105  0.5684132544482805  1.0000
  C   C3        1.0  0.4847565307155001  0.5409290731662071  0.5835708186105444  1.0000
  C   C4        1.0  0.4120910441763643  0.5410805931999092  0.5835182816451854  1.0000
  C   C5        1.0  0.3751968673087653  0.4254045772391959  0.5685000168996814  1.0000
  C   C6        1.0  0.2978746997768819  0.4240480742400905  0.568348890378678  1.0000
  C   C7        1.0  0.26011121732703524  0.5275989630362516  0.5050286791262673  1.0000
  C   C8        1.0  0.1873328299876878  0.5261967175163911  0.5049190518539426  1.0000
  C   C9        1.0  0.15131650835085167  0.42150107501253053  0.568078741293546  1.0000
  C   C10       1.0  0.0763869528694998  0.42019896938338847  0.567941399416215  1.0000
  N   N2        1.0  0.016149072073773  0.4191520322594604  0.5678310114049094  1.0000
  C   C11       1.0  0.1883563304936692  0.31807586993234094  0.6313739940048966  1.0000
  C   C12       1.0  0.2611365722068613  0.3192038653727791  0.6315337582412868  1.0000
  C   C13       1.0  0.41341386369812283  0.3109914152971549  0.5536313336516605  1.0000
  N   N3        1.0  0.4841838621390125  0.3134364081238594  0.5537978608346936  1.0000
  H   H1        1.0  0.5128603403569869  0.6303650727437893  0.5956544597430593  1.0000
  H   H2        1.0  0.38482527153681734  0.631098853927492  0.5969968616517245  1.0000
  H   H3        1.0  0.2868307153581348  0.6088365797135338  0.45407068271757556  1.0000
  H   H4        1.0  0.1591788491737424  0.6066070238499734  0.45529110807887574  1.0000
  H   H5        1.0  0.1609969541917619  0.23670214982946805  0.6809020735009441  1.0000
  H   H6        1.0  0.2886459206616562  0.2389131588458706  0.6825994604928323  1.0000
  H   H7        1.0  0.3871454268502502  0.22011023100321725  0.5401061661433442  1.0000
  C   C14       1.0  0.8357396551196689  0.03808115093277609  0.5677354182155063  1.0000
  C   C15       1.0  0.8391024134375148  0.04737435411681767  0.4310735481531636  1.0000
  C   C16       1.0  0.8400080822186295  0.9348939691184184  0.3620828298286678  1.0000
  C   C17       1.0  0.8391110692680187  0.8121061217770864  0.4313909341392337  1.0000
  C   C18       1.0  0.8358125127796603  0.8008119696431955  0.5680006105855897  1.0000
  C   C19       1.0  0.833962744708046  0.9144011112545759  0.6353666318450224  1.0000
  C   C20       1.0  0.8442899873544478  0.944561997062199  0.2178359064648565  1.0000
  O   O1        1.0  0.8777850551130798  0.8587426311030132  0.16288565991375625  1.0000
  C   C21       1.0  0.8105621078544342  0.05150604182002905  0.13593175425289128  1.0000
  C   C22       1.0  0.8403577149911691  0.09606389612871082  0.01595946563565787  1.0000
  C   C23       1.0  0.8084661474593788  0.19599579343246165  0.9371763151295407  1.0000
  C   C24       1.0  0.8396118720941655  0.24173478356512737  0.8150177001424082  1.0000
  N   N4        1.0  0.8646516496924703  0.27849930993629335  0.7168198878012721  1.0000
  C   C25       1.0  0.7462591342302469  0.2512898904336649  0.977357921250805  1.0000
  C   C26       1.0  0.7158756620909268  0.20652184945997984  0.0955908082753969  1.0000
  C   C27       1.0  0.7475673644507067  0.10688775494601918  0.17436259625254014  1.0000
  H   H8        1.0  0.8418008565123848  0.14227731246341402  0.37818785056049053  1.0000
  H   H9        1.0  0.8403252166637434  0.7252502495378348  0.3783798618604153  1.0000
  H   H10       1.0  0.8313706846444789  0.9064328384347242  0.7407231927218383  1.0000
  H   H11       1.0  0.835131250465397  0.46901189869448573  0.6205246125958062  1.0000
  H   H12       1.0  0.8886269334889174  0.05388287127274904  0.9843750089168943  1.0000
  H   H13       1.0  0.7211567957450679  0.3285292426718203  0.9171243910736356  1.0000
  H   H14       1.0  0.6674874212116352  0.24871890201751357  0.12602230997194974  1.0000
  H   H15       1.0  0.7224317183397435  0.07224738110931916  0.26452092347484024  1.0000
  C   C28       1.0  0.8357217464616427  0.41932612622707904  0.1865011047448879  1.0000
  C   C29       1.0  0.7696394148023116  0.36075515700491967  0.18977985725030933  1.0000
  C   C30       1.0  0.7360093922860358  0.33253743621177745  0.07426256717202007  1.0000
  C   C31       1.0  0.7698354581387002  0.3609183895267545  0.9545255801455577  1.0000
  C   C32       1.0  0.8358304296946879  0.4195670004180625  0.9492349447314914  1.0000
  C   C33       1.0  0.8683356360279736  0.4486881885914964  0.06576159025859596  1.0000
  C   C34       1.0  0.6665819672749459  0.2693549612730375  0.08005545162402128  1.0000
  O   O2        1.0  0.6523526081625884  0.1901718896020701  0.1759269495307283  1.0000
  C   C35       1.0  0.6132997885266145  0.2959946889058551  0.9771591464083191  1.0000
  C   C36       1.0  0.6079585940352065  0.4193762715928959  0.9093495758992844  1.0000
  C   C37       1.0  0.5570100658246134  0.44364050574916  0.8136712626463245  1.0000
  C   C38       1.0  0.5101761642525262  0.3460538459474775  0.7845966442057732  1.0000
  C   C39       1.0  0.5147853263333333  0.2228670335100331  0.8533246254344165  1.0000
  C   C40       1.0  0.5657276043909266  0.19847561045119244  0.9490753005556525  1.0000
  O   O3        1.0  0.4600690025658098  0.37529667035758596  0.6876309544604031  1.0000
  C   C41       1.0  0.40930706031451913  0.28561959184632824  0.6482359587007607  1.0000
  H   H16       1.0  0.960537843486315  0.5293578996042638  0.38762202461835416  1.0000
  H   H17       1.0  0.7438640270034045  0.3380569887221543  0.282310516180734  1.0000
  H   H18       1.0  0.7449492761705797  0.3358796076434234  0.8654671174059785  1.0000
  H   H19       1.0  0.9192461249923408  0.49392713962267715  0.062413032332543805  1.0000
  H   H20       1.0  0.8612642290396154  0.4415828200108433  0.6197689914292388  1.0000
  H   H21       1.0  0.642662163142211  0.49756946910937505  0.9311949516572122  1.0000
  H   H22       1.0  0.5537025519841353  0.5391055049251567  0.7621413951765001  1.0000
  H   H23       1.0  0.4792822317084162  0.14536095285771578  0.8335764030087431  1.0000
  H   H24       1.0  0.5683587898171072  0.10282986570844543  0.0004920303285322872  1.0000
  H   H25       1.0  0.3766152496017157  0.33436901044117073  0.5701751821800976  1.0000
  H   H26       1.0  0.3753130557777971  0.2534629875697336  0.7317803464783204  1.0000
  H   H27       1.0  0.4352475410486732  0.20025645855567162  0.6095459497912796  1.0000
  Zn  Zn1       1.0  0.7595018596389115  0.4195747414062041  0.5678831739170993  1.0000
  Zn  Zn2       1.0  0.9120436409495051  0.41931778507672957  0.5678522632407721  1.0000
  C   C42       1.0  0.8358078296545092  0.41434778467327993  0.8050601048772963  1.0000
  C   C43       1.0  0.8357393368600976  0.424546377669965  0.33067545997855285  1.0000
  C   C44       1.0  0.835794419051828  0.6566379965202187  0.5627753433239202  1.0000
  C   C45       1.0  0.8357526952717561  0.18225460562387497  0.572960290238234  1.0000
  O   O4        1.0  0.8936340508465154  0.4261951623902478  0.37904995823344567  1.0000
  O   O5        1.0  0.8936887979594271  0.4125029962000777  0.7566617719495796  1.0000
  O   O6        1.0  0.8936771885516984  0.6081554081854299  0.5610151134179897  1.0000
  O   O7        1.0  0.8936456081890808  0.23054275975208327  0.5746965194046572  1.0000
  O   O8        1.0  0.7778998403443116  0.6083497668199487  0.5610389177569322  1.0000
  O   O9        1.0  0.7779114498880386  0.4126989151228455  0.7566855075859356  1.0000
  O   O10       1.0  0.7778567025946367  0.42639103556367347  0.3790721324615709  1.0000
  O   O11       1.0  0.7778682599473412  0.23073862366741982  0.5747187909968792  1.0000
