data_image0
_chemical_formula_structural       NC9NC3NH7C8H6C6OCH7Zn2C4O8
_chemical_formula_sum              "N3 C31 H20 O9 Zn2"
_cell_length_a       16.053384444249904
_cell_length_b       9.27514070457351
_cell_length_c       9.273891588657152
_cell_angle_alpha    86.21671130185581
_cell_angle_beta     89.48625385378584
_cell_angle_gamma    89.76770978158073

_space_group_name_H-M_alt    "P 1"
_space_group_IT_number       1

loop_
  _space_group_symop_operation_xyz
  'x, y, z'

loop_
  _atom_site_type_symbol
  _atom_site_label
  _atom_site_symmetry_multiplicity
  _atom_site_fract_x
  _atom_site_fract_y
  _atom_site_fract_z
  _atom_site_occupancy
  N   N1        1.0  0.7988057396685883  0.5441272463790551  0.4104609254686746  1.0000
  C   C1        1.0  0.748179939746228  0.5202655825167048  0.32733326863623735  1.0000
  C   C2        1.0  0.6852658105369853  0.490617408319004  0.22406843971573734  1.0000
  C   C3        1.0  0.699269600322312  0.4758875302939234  0.07893698551922812  1.0000
  C   C4        1.0  0.6226641620099029  0.4472418084945433  0.020874408219329742  1.0000
  C   C5        1.0  0.5651928864696004  0.4460885409475977  0.1337137555347348  1.0000
  C   C6        1.0  0.474419266973103  0.4195390849032905  0.12227818075460162  1.0000
  C   C7        1.0  0.4184710836252062  0.46790692849046384  0.22661723753065838  1.0000
  C   C8        1.0  0.3328079576496449  0.4427262705356767  0.21566470781175687  1.0000
  C   C9        1.0  0.27608279531754  0.49305518614461225  0.3226409200784302  1.0000
  N   N2        1.0  0.23049244004627897  0.5335125219201244  0.4086330436637531  1.0000
  C   C10       1.0  0.3023661946032642  0.36905358576454184  0.10038804311507965  1.0000
  C   C11       1.0  0.3573058628090174  0.320820674254772  0.9962842308723814  1.0000
  C   C12       1.0  0.4427633407711085  0.3458133387522031  0.006796159975161145  1.0000
  N   N3        1.0  0.604135532262652  0.4727193019736953  0.2575881650649152  1.0000
  H   H1        1.0  0.7582454444015381  0.48495219263586603  0.021671566157908998  1.0000
  H   H2        1.0  0.6106736407732971  0.43092821447732427  0.9085444501019665  1.0000
  H   H3        1.0  0.4408514657552705  0.5269518766245729  0.3153229772900715  1.0000
  H   H4        1.0  0.2362550381927961  0.3490221932542915  0.09098151760835395  1.0000
  H   H5        1.0  0.3336468516817807  0.26359600204858613  0.9073232650714496  1.0000
  H   H6        1.0  0.4839092215214344  0.3057236311630809  0.9254056910329127  1.0000
  H   H7        1.0  0.5776562163213188  0.4762855188124031  0.3605470616193944  1.0000
  C   C13       1.0  0.012125900999981896  0.11543206522528139  0.4085496257960781  1.0000
  C   C14       1.0  0.024437124413562387  0.197379063899726  0.2770128227573352  1.0000
  C   C15       1.0  0.04399611244930646  0.13043820465263867  0.15061144962896567  1.0000
  C   C16       1.0  0.05170988361832652  0.9803434610429163  0.15331898741765393  1.0000
  C   C17       1.0  0.03833933878750284  0.8968202518610178  0.2824979494939561  1.0000
  C   C18       1.0  0.017180104717650968  0.9621965697054863  0.4105567634588228  1.0000
  C   C19       1.0  0.07241808209252577  0.9115869173417519  0.022883784340728578  1.0000
  C   C20       1.0  0.08975670267929625  0.854005229796779  0.9136815406685664  1.0000
  H   H8        1.0  0.024627203027552946  0.19484122969115863  0.7626678006116427  1.0000
  H   H9        1.0  0.02086935216475516  0.3142516348602016  0.27261297312994315  1.0000
  H   H10       1.0  0.053918391978207136  0.1960316715167456  0.05092354675134959  1.0000
  H   H11       1.0  0.04253891957966238  0.7801081429374643  0.2823021084251409  1.0000
  H   H12       1.0  0.022399589886152652  0.6657055750878207  0.6491608287059399  1.0000
  H   H13       1.0  0.10497629184760314  0.8034589080802821  0.8178249038457163  1.0000
  C   C21       1.0  0.015994814582081636  0.5349623202748488  0.9862630155213963  1.0000
  C   C22       1.0  0.08457352186368938  0.5941822411857229  0.0546922175561364  1.0000
  C   C23       1.0  0.14849162470979715  0.6642843798689623  0.9747834990940523  1.0000
  C   C24       1.0  0.14406021103740876  0.6755222885990171  0.8233883067463879  1.0000
  C   C25       1.0  0.07722629489757749  0.615386343366209  0.7536074275065285  1.0000
  C   C26       1.0  0.013311192853422634  0.5426662600917511  0.8328433142113377  1.0000
  O   O1        1.0  0.21478491360455632  0.7217850817953055  0.049851033481792324  1.0000
  C   C27       1.0  0.2838313353514388  0.795976239793101  0.9826640709751789  1.0000
  H   H14       1.0  0.8173361604762478  0.4512811844433511  0.09790929928645965  1.0000
  H   H15       1.0  0.19237263876170752  0.7293978346288459  0.7583934916396449  1.0000
  H   H16       1.0  0.07659853460401878  0.6228335765652171  0.6365467104185623  1.0000
  H   H17       1.0  0.8807947411373259  0.48058064668286726  0.5578052664473816  1.0000
  H   H18       1.0  0.2620540898199657  0.8940921693459498  0.9185944328570987  1.0000
  H   H19       1.0  0.31813588178935626  0.7235671562874826  0.9119347306583913  1.0000
  H   H20       1.0  0.3266763465177298  0.8293899384870795  0.06740875436553528  1.0000
  Zn  Zn1       1.0  0.9233811448682027  0.5410602967363647  0.40994174562393626  1.0000
  Zn  Zn2       1.0  0.10591690393072839  0.5365678326317349  0.4091639766653241  1.0000
  C   C28       1.0  0.013782327246882  0.535466428846481  0.6728079222024712  1.0000
  C   C29       1.0  0.015517725246716687  0.542163471912706  0.14629793738352292  1.0000
  C   C30       1.0  0.01623869010901258  0.802087885825046  0.40443331784482445  1.0000
  C   C31       1.0  0.013061289514920253  0.2755402849511578  0.4146726147502203  1.0000
  O   O2        1.0  0.08462894143453137  0.5428690874830542  0.19971194492182942  1.0000
  O   O3        1.0  0.0832115234207549  0.5313500455258218  0.6188031885024663  1.0000
  O   O4        1.0  0.08519412893452705  0.7466502805464139  0.4020888042211916  1.0000
  O   O5        1.0  0.08264627403783242  0.3275688633257181  0.4164262214145598  1.0000
  O   O6        1.0  0.9466517124706357  0.7500592675769397  0.4026795011325368  1.0000
  O   O7        1.0  0.9446691175360672  0.5347607640738887  0.6193938126625969  1.0000
  O   O8        1.0  0.946086540798958  0.5462797400166886  0.20030083592797462  1.0000
  O   O9        1.0  0.9441038729947233  0.3309795065306549  0.4170152204670854  1.0000
