data_image0
_chemical_formula_structural       NC8NH4C6NCH9C6NCH7Zn2C4O8
_chemical_formula_sum              "N4 C26 H20 Zn2 O8"
_cell_length_a       13.859017124695912
_cell_length_b       9.273386996610926
_cell_length_c       9.273390368590329
_cell_angle_alpha    86.07317832945773
_cell_angle_beta     89.99082906418701
_cell_angle_gamma    89.39861590222965

_space_group_name_H-M_alt    "P 1"
_space_group_IT_number       1

loop_
  _space_group_symop_operation_xyz
  'x, y, z'

loop_
  _atom_site_type_symbol
  _atom_site_label
  _atom_site_symmetry_multiplicity
  _atom_site_fract_x
  _atom_site_fract_y
  _atom_site_fract_z
  _atom_site_occupancy
  N   N1        1.0  0.8977902718916749  0.5619488945506177  0.40762016768502135  1.0000
  C   C1        1.0  0.8256065646788876  0.538484701915511  0.3514985637082486  1.0000
  C   C2        1.0  0.7358143040098967  0.5092986693066726  0.2816905004783623  1.0000
  C   C3        1.0  0.6479919933718102  0.5377520804683311  0.3497445780646391  1.0000
  C   C4        1.0  0.560583975643266  0.509299889410046  0.2816899192014053  1.0000
  C   C5        1.0  0.5611807339823229  0.45238656253327525  0.14556029139129256  1.0000
  C   C6        1.0  0.6488196882454375  0.42404251476243954  0.07776817243060075  1.0000
  C   C7        1.0  0.7360461091492226  0.45238422476221024  0.14556147352704496  1.0000
  C   C8        1.0  0.4703667195416105  0.538485623505992  0.3514980642009293  1.0000
  N   N2        1.0  0.3978413952526891  0.5619492149797498  0.40761995115968386  1.0000
  H   H1        1.0  0.6476712852816826  0.5818051971141174  0.45511216999675713  1.0000
  H   H2        1.0  0.4940483233283696  0.4299926278383946  0.09199427918877134  1.0000
  H   H3        1.0  0.6491398076014208  0.38007936429076294  0.9726139664317164  1.0000
  H   H4        1.0  0.8035045708182353  0.4299881992109444  0.09199646394129313  1.0000
  C   C9        1.0  0.15078745576248176  0.13830261066463234  0.40832830736681736  1.0000
  C   C10       1.0  0.16775305799457987  0.2203930437391639  0.2780121701586351  1.0000
  C   C11       1.0  0.17563368003055646  0.15450489628548447  0.14768798091733926  1.0000
  C   C12       1.0  0.1666681569411912  0.004168721887744643  0.1443478421449773  1.0000
  C   C13       1.0  0.15140302756196977  0.9211105638142185  0.27421128964886066  1.0000
  C   C14       1.0  0.1448534977131979  0.9855845397349781  0.4069243421668405  1.0000
  N   N3        1.0  0.17373358727652663  0.933215549072777  0.011332981489992067  1.0000
  C   C15       1.0  0.18983281689541864  0.009617079182167925  0.8706869755119165  1.0000
  H   H5        1.0  0.17045776028123538  0.4029624959798065  0.6449512034705369  1.0000
  H   H6        1.0  0.1726747884731874  0.33702014532401425  0.276243936479619  1.0000
  H   H7        1.0  0.18781951006029174  0.22206640878520822  0.0497880377681943  1.0000
  H   H8        1.0  0.1468490994210918  0.8046853233927159  0.2719376204141779  1.0000
  H   H9        1.0  0.1803168646426865  0.8579539377546916  0.7579634770507231  1.0000
  H   H10       1.0  0.1669114163470118  0.8208801897077657  0.014321681519209766  1.0000
  H   H11       1.0  0.13002114676712484  0.08792442222107644  0.8456453313950623  1.0000
  H   H12       1.0  0.2596715871456561  0.06717134816217095  0.8709195205948178  1.0000
  H   H13       1.0  0.19228057252127728  0.9312735411027371  0.785362447693299  1.0000
  C   C16       1.0  0.14789671583853736  0.557444812097204  0.9843879932340555  1.0000
  C   C17       1.0  0.23653712831494333  0.5545784107323444  0.05799519664898933  1.0000
  C   C18       1.0  0.3235378790226089  0.5651229411945013  0.9825629037445149  1.0000
  C   C19       1.0  0.32410784002231946  0.5789247045910071  0.8309120444581453  1.0000
  C   C20       1.0  0.23607258492773897  0.5793581518995103  0.7564992704040661  1.0000
  C   C21       1.0  0.14774428039597565  0.5664423826883005  0.8308646182206005  1.0000
  N   N4        1.0  0.4127277742095281  0.5911303127869805  0.7501035153483482  1.0000
  C   C22       1.0  0.507994065105374  0.5913004108331881  0.8170913966277222  1.0000
  H   H14       1.0  0.9960858493667268  0.48814624069882834  0.27034287625467024  1.0000
  H   H15       1.0  0.39002760035647555  0.5637954966636172  0.04368608364779458  1.0000
  H   H16       1.0  0.9236643704686377  0.4543632525211931  0.7355593381244603  1.0000
  H   H17       1.0  0.4095301017413766  0.6006913959599198  0.6372118397418376  1.0000
  H   H18       1.0  0.5136080204507394  0.6838448835420294  0.8864065766900788  1.0000
  H   H19       1.0  0.5204859163125297  0.4881772144564216  0.882816213119832  1.0000
  H   H20       1.0  0.5644633277005722  0.6022067005923399  0.7321827368456626  1.0000
  Zn  Zn1       1.0  0.042094252879365066  0.5619452238240314  0.407628439044311  1.0000
  Zn  Zn2       1.0  0.2535374869199114  0.5619412430117905  0.4076235203959535  1.0000
  C   C23       1.0  0.1478111721159141  0.5589944075223683  0.6708719416820581  1.0000
  C   C24       1.0  0.1478228638631469  0.5648938810464734  0.14438015614882893  1.0000
  C   C25       1.0  0.14597122619766623  0.8253691852815991  0.4014463592670805  1.0000
  C   C26       1.0  0.14966274975573898  0.2985173708315483  0.413805818277758  1.0000
  O   O1        1.0  0.22803972791711158  0.567386052105108  0.1980731313972988  1.0000
  O   O2        1.0  0.22807483793218086  0.5564981223772381  0.6171748202071996  1.0000
  O   O3        1.0  0.2265879763687646  0.7715991401366331  0.3996117537159023  1.0000
  O   O4        1.0  0.229526517276462  0.35228504351851564  0.41563608980802  1.0000
  O   O5        1.0  0.06610515036760647  0.7716014233201549  0.39961586962633944  1.0000
  O   O6        1.0  0.06759199980147046  0.5565021380193014  0.6171788563977805  1.0000
  O   O7        1.0  0.0675568905147581  0.5673899990553697  0.1980754348487812  1.0000
  O   O8        1.0  0.0690436799229668  0.3522889812988225  0.41563850133417435  1.0000
