data_image0
_chemical_formula_structural       NC8NC6H8C6NCOCH7C7NC2NH6Zn2C4O8
_chemical_formula_sum              "N5 C35 H21 O9 Zn2"
_cell_length_a       17.457602349358154
_cell_length_b       10.300268703208214
_cell_length_c       9.273999113489252
_cell_angle_alpha    85.0628393421283
_cell_angle_beta     92.55204972901187
_cell_angle_gamma    91.66828978603887

_space_group_name_H-M_alt    "P 1"
_space_group_IT_number       1

loop_
  _space_group_symop_operation_xyz
  'x, y, z'

loop_
  _atom_site_type_symbol
  _atom_site_label
  _atom_site_symmetry_multiplicity
  _atom_site_fract_x
  _atom_site_fract_y
  _atom_site_fract_z
  _atom_site_occupancy
  N   N1        1.0  0.7268963596461012  0.4649075296749474  0.4739013758791073  1.0000
  C   C1        1.0  0.6658646632137665  0.4190796715130568  0.4621075760981263  1.0000
  C   C2        1.0  0.5899386155255337  0.3620754453368855  0.44744669091868244  1.0000
  C   C3        1.0  0.5311417672114579  0.40157041749730715  0.5306630769630958  1.0000
  C   C4        1.0  0.45665123640757016  0.34667885701065226  0.5166848301007083  1.0000
  C   C5        1.0  0.3942476827724011  0.3883776156434221  0.6048141421723185  1.0000
  C   C6        1.0  0.3198908337491798  0.40733912089383684  0.5428559242240047  1.0000
  C   C7        1.0  0.2610936453997054  0.44664922342132246  0.6261922600463604  1.0000
  C   C8        1.0  0.18530620844353976  0.4662361815390678  0.5617724711010368  1.0000
  N   N2        1.0  0.12438602641716179  0.4819777152792813  0.5099791287719242  1.0000
  C   C9        1.0  0.276159328328878  0.4672364364574236  0.7720518119841199  1.0000
  C   C10       1.0  0.34973004828508  0.44866045397370424  0.8344406732038574  1.0000
  C   C11       1.0  0.4085140059070181  0.4095263348575285  0.7516128983171755  1.0000
  C   C12       1.0  0.4422513126669745  0.25162765712771784  0.41789812427852346  1.0000
  C   C13       1.0  0.5010349972491756  0.21240779883365993  0.3351261673948941  1.0000
  C   C14       1.0  0.5747388302345161  0.26740685107965123  0.3497154501556703  1.0000
  H   H1        1.0  0.5432391296476706  0.47616869496041314  0.6046933344004263  1.0000
  H   H2        1.0  0.3079030784421795  0.3932744629154495  0.4294988517266786  1.0000
  H   H3        1.0  0.23108779283212133  0.49759538323826075  0.8374224210533316  1.0000
  H   H4        1.0  0.3612050701250782  0.46428597197476434  0.9473829848578014  1.0000
  H   H5        1.0  0.4648426205601723  0.39412679511346754  0.8028412600473513  1.0000
  H   H6        1.0  0.3858128991657603  0.20638974576778304  0.40606418123950583  1.0000
  H   H7        1.0  0.4894553765810519  0.13893652873174125  0.2597644508541612  1.0000
  H   H8        1.0  0.6198088129144994  0.23617373593760116  0.2849127635571128  1.0000
  C   C15       1.0  0.9257227524453115  0.09209839828166633  0.49195618396573526  1.0000
  C   C16       1.0  0.9391218424095001  0.10323654343231614  0.3431372541900888  1.0000
  C   C17       1.0  0.9469189530745808  0.9915911514294349  0.2685504922973105  1.0000
  C   C18       1.0  0.9389482199837534  0.8680692859939346  0.3431575027974312  1.0000
  C   C19       1.0  0.9255669131459364  0.8547770621506137  0.4919374479659721  1.0000
  C   C20       1.0  0.9193132868071111  0.9674152980514782  0.5656651929924196  1.0000
  N   N3        1.0  0.9594441888922264  0.0013560052641199396  0.11571513019940793  1.0000
  C   C21       1.0  0.004713220760844018  0.10301596231079735  0.04226938674819979  1.0000
  O   O1        1.0  0.0478126195118087  0.17733958821413487  0.11283168197746374  1.0000
  C   C22       1.0  0.0052499925344795546  0.11519299357986992  0.880633171323097  1.0000
  H   H9        1.0  0.9419763811030435  0.19866885677505697  0.28467920788390755  1.0000
  H   H10       1.0  0.9438939153962841  0.7823827842081104  0.2845251007457867  1.0000
  H   H11       1.0  0.9089998526439872  0.9580163125558216  0.6804529565863326  1.0000
  H   H12       1.0  0.9384991773322081  0.925487298611521  0.05582101731267119  1.0000
  H   H13       1.0  0.9466762046783489  0.09596340211261661  0.8343965374482964  1.0000
  H   H14       1.0  0.02439656243438891  0.2150052342121993  0.8402848848497848  1.0000
  H   H15       1.0  0.044962295527175344  0.04348451438307465  0.8445060745485655  1.0000
  C   C23       1.0  0.9269688035012472  0.4768181549406043  0.06821558534215555  1.0000
  C   C24       1.0  0.9871888861682897  0.4172213797264809  0.15216630194895675  1.0000
  C   C25       1.0  0.04233382438738385  0.34816151985658267  0.08851973981921699  1.0000
  C   C26       1.0  0.03874091586862383  0.33629591712146356  0.9388973087280363  1.0000
  C   C27       1.0  0.979674708525711  0.3981352837410968  0.8534926653071393  1.0000
  C   C28       1.0  0.9243208745637763  0.4700572867865349  0.9156780198311596  1.0000
  C   C29       1.0  0.0976187564285187  0.2611577259805909  0.8735462122715365  1.0000
  N   N4        1.0  0.1618557997769359  0.21854242013066275  0.9474157142894022  1.0000
  C   C30       1.0  0.1989983186873414  0.15516018143719768  0.8514643097520462  1.0000
  C   C31       1.0  0.1571017173613536  0.1598328849586035  0.7221194899228545  1.0000
  N   N5        1.0  0.09334125231776794  0.2264366997811536  0.7361649805511592  1.0000
  H   H16       1.0  0.8452915291367239  0.6372227465376972  0.32737842566031927  1.0000
  H   H17       1.0  0.08732270719367355  0.3022538956686047  0.15733112394749726  1.0000
  H   H18       1.0  0.8046364227328909  0.5382109073095163  0.619052396461155  1.0000
  H   H19       1.0  0.25326502571395415  0.10806511179531487  0.8747585137686386  1.0000
  H   H20       1.0  0.17183259844283438  0.1171032461235806  0.6247641074547015  1.0000
  H   H21       1.0  0.049946687859557144  0.24425675588105514  0.6565207948907313  1.0000
  Zn  Zn1       1.0  0.8416032659388838  0.46983006756017753  0.48432096752284787  1.0000
  Zn  Zn2       1.0  0.009679071137828508  0.47704443601484825  0.4995713509743591  1.0000
  C   C32       1.0  0.9248207350726304  0.46616181437526727  0.7554894796987249  1.0000
  C   C33       1.0  0.9264634366093628  0.4807144053644537  0.2284031469173573  1.0000
  C   C34       1.0  0.925610398972888  0.710660244874307  0.48619061658230445  1.0000
  C   C35       1.0  0.925673715434983  0.23621441158800544  0.49770208179781505  1.0000
  O   O2        1.0  0.99007772415996  0.4847541724540263  0.2879509970943017  1.0000
  O   O3        1.0  0.9887720961566349  0.46759660966812167  0.7075159023429503  1.0000
  O   O4        1.0  0.9894088952173855  0.6650321355240055  0.4900550869905597  1.0000
  O   O5        1.0  0.9894408680824716  0.28731865428911463  0.5054116990515298  1.0000
  O   O6        1.0  0.8618414116382415  0.6595558468254756  0.4784806142338798  1.0000
  O   O7        1.0  0.8612046124956129  0.462121881786565  0.6959413526104361  1.0000
  O   O8        1.0  0.8625102459797697  0.4792794131617941  0.2763747125270053  1.0000
  O   O9        1.0  0.8618733895630195  0.2818438848454748  0.4938355226675988  1.0000
