data_image0
_chemical_formula_structural       NC8NC6H8C9H10C7NC2NH8Zn2C4O8
_chemical_formula_sum              "N4 C36 H26 Zn2 O8"
_cell_length_a       17.457602349358154
_cell_length_b       9.272676604525723
_cell_length_c       9.27399911348925
_cell_angle_alpha    85.31615258212881
_cell_angle_beta     92.55204972901187
_cell_angle_gamma    92.2282679722568

_space_group_name_H-M_alt    "P 1"
_space_group_IT_number       1

loop_
  _space_group_symop_operation_xyz
  'x, y, z'

loop_
  _atom_site_type_symbol
  _atom_site_label
  _atom_site_symmetry_multiplicity
  _atom_site_fract_x
  _atom_site_fract_y
  _atom_site_fract_z
  _atom_site_occupancy
  N   N1        1.0  0.7355234227847194  0.6271372289023163  0.4818014353915723  1.0000
  C   C1        1.0  0.6742218391288832  0.5762342110492962  0.46976049181518215  1.0000
  C   C2        1.0  0.5979600848868728  0.5129171096370335  0.4547921901127623  1.0000
  C   C3        1.0  0.5393958284679056  0.5567859124487318  0.5382215675059057  1.0000
  C   C4        1.0  0.4645820329196549  0.4958154417459171  0.5239472974572135  1.0000
  C   C5        1.0  0.4024240496131515  0.5421320871286099  0.612301485616987  1.0000
  C   C6        1.0  0.32817886777689237  0.5631934650545076  0.5504455246486462  1.0000
  C   C7        1.0  0.2696131825971542  0.6068569250331936  0.6339938548413757  1.0000
  C   C8        1.0  0.19394109621496833  0.6286130209701208  0.5696796958635842  1.0000
  N   N2        1.0  0.13311361847382638  0.6460978349053772  0.5179712456186796  1.0000
  C   C9        1.0  0.28480010675358025  0.6297240481053352  0.7799644309938967  1.0000
  C   C10       1.0  0.3582614299250004  0.6090908872740817  0.8422531143087821  1.0000
  C   C11       1.0  0.4168149207702644  0.5656228998111756  0.7592142941078246  1.0000
  C   C12       1.0  0.44962233821319264  0.39023789309636014  0.42464799263434383  1.0000
  C   C13       1.0  0.508175051087667  0.3466746713572417  0.3416645280559849  1.0000
  C   C14       1.0  0.5822027818526824  0.40776453788530365  0.356550413692418  1.0000
  H   H1        1.0  0.5519325115005859  0.639645500520573  0.612654123941329  1.0000
  H   H2        1.0  0.31610828356093734  0.5475712307872767  0.43701260324427255  1.0000
  H   H3        1.0  0.2399073597096061  0.6634450656690343  0.8454987619919301  1.0000
  H   H4        1.0  0.3698284728159099  0.6264468374247719  0.9552796923888462  1.0000
  H   H5        1.0  0.4730528451928164  0.5485179536504563  0.8103596080838059  1.0000
  H   H6        1.0  0.3929175117748779  0.33999015510578157  0.41257008730779354  1.0000
  H   H7        1.0  0.4961627469407546  0.2650668999342245  0.26590659032415087  1.0000
  H   H8        1.0  0.6270888279695119  0.37307254307147497  0.29157929088653445  1.0000
  C   C15       1.0  0.9321542859344254  0.21304172821269532  0.4978457313706884  1.0000
  C   C16       1.0  0.9010617253177436  0.2746316907087969  0.6145473464212451  1.0000
  C   C17       1.0  0.8769771370389673  0.18828955418596702  0.7354138421120924  1.0000
  C   C18       1.0  0.8832073574683242  0.03777154243838864  0.743648778755449  1.0000
  C   C19       1.0  0.9130465093142783  0.974681687950336  0.6257211632816686  1.0000
  C   C20       1.0  0.9364900162086681  0.06018242913455096  0.5019400598342827  1.0000
  C   C21       1.0  0.8563298263061349  0.9516835058761738  0.8798461011602131  1.0000
  C   C22       1.0  0.81760176353701  0.8038655362608069  0.8619528278114965  1.0000
  C   C23       1.0  0.8984156002702914  0.8146386546940974  0.9303729865140593  1.0000
  H   H9        1.0  0.9499481925598513  0.5147461735766592  0.26295977894967915  1.0000
  H   H10       1.0  0.8970140937929978  0.39096238214199097  0.6140403789211248  1.0000
  H   H11       1.0  0.8539592614275029  0.23985999555973073  0.8240036481731275  1.0000
  H   H12       1.0  0.916702180940158  0.858444179630815  0.6273939511335701  1.0000
  H   H13       1.0  0.9575287860095978  0.9874033843659493  0.15046110413575203  1.0000
  H   H14       1.0  0.8343213559433983  0.00997693406211831  0.9687156626456217  1.0000
  H   H15       1.0  0.8143937405433512  0.7654066447048014  0.7516340099035814  1.0000
  H   H16       1.0  0.7728726652227701  0.7722355612093552  0.9411472685362169  1.0000
  H   H17       1.0  0.9442740224807453  0.7825935196627926  0.8616988285768137  1.0000
  H   H18       1.0  0.900916266713159  0.7892987326254169  0.049574599338460534  1.0000
  C   C24       1.0  0.9356660101227169  0.6403668842878378  0.07617987733791654  1.0000
  C   C25       1.0  0.9955351183205758  0.5741701246227815  0.1598091961353636  1.0000
  C   C26       1.0  0.05027335252636389  0.49746230058557295  0.09579020298739097  1.0000
  C   C27       1.0  0.046610565669278806  0.4842826537050886  0.9461037822136813  1.0000
  C   C28       1.0  0.9879085397572566  0.5529703582872827  0.8610326306116272  1.0000
  C   C29       1.0  0.9329782654048945  0.6328572906443213  0.9236058513270656  1.0000
  C   C30       1.0  0.10504590599897946  0.4008233597626105  0.8803474750734706  1.0000
  N   N3        1.0  0.16903198133283542  0.35348866507040433  0.9539871581809029  1.0000
  C   C31       1.0  0.20580123260415872  0.2830872246107505  0.8576939413123456  1.0000
  C   C32       1.0  0.1639321495395563  0.2882774019463734  0.728374320777414  1.0000
  N   N4        1.0  0.10056392448662343  0.36225718871744284  0.7427789972861897  1.0000
  H   H19       1.0  0.8549333827829376  0.8185353197606322  0.3362077591648578  1.0000
  H   H20       1.0  0.9990323314192894  0.5786282430956772  0.2762972456124716  1.0000
  H   H21       1.0  0.0949918783548984  0.44647068309877436  0.16435401315225412  1.0000
  H   H22       1.0  0.9859908628759324  0.5489770213296544  0.744736132858308  1.0000
  H   H23       1.0  0.8136951806060344  0.7085585147768989  0.6273477717420533  1.0000
  H   H24       1.0  0.25979058960622187  0.23077665922710566  0.8807341676236035  1.0000
  H   H25       1.0  0.1784113892821456  0.24081571257855106  0.6307885028156175  1.0000
  H   H26       1.0  0.057274305047803765  0.38205070886387316  0.6632309129160162  1.0000
  Zn  Zn1       1.0  0.8502593186514358  0.6326049082550994  0.49224757365443944  1.0000
  Zn  Zn2       1.0  0.018377610362944052  0.6406182246302414  0.5075368632750994  1.0000
  C   C33       1.0  0.9334551848845256  0.6285304180901594  0.7633963034086415  1.0000
  C   C34       1.0  0.9351835888418897  0.6446946210147955  0.2363884508948304  1.0000
  C   C35       1.0  0.9356847372108305  0.900105579398429  0.4954159891511205  1.0000
  C   C36       1.0  0.9329539700350842  0.3731177233055454  0.5043688284858325  1.0000
  O   O1        1.0  0.998821667195006  0.6491817680151228  0.29595808702056536  1.0000
  O   O2        1.0  0.9974149956961287  0.6301241083331028  0.7154304637209256  1.0000
  O   O3        1.0  0.9992145225829442  0.8494244313366291  0.49903439298383656  1.0000
  O   O4        1.0  0.9970220833367457  0.42988145355429724  0.512354044403968  1.0000
  O   O5        1.0  0.8716147883071448  0.8433416765981292  0.48743038730050436  1.0000
  O   O6        1.0  0.8698152705303398  0.6240430872626689  0.7038263894790459  1.0000
  O   O7        1.0  0.8712219473250665  0.6431007120554708  0.28435227777451005  1.0000
  O   O8        1.0  0.8694223630677615  0.42380038631902966  0.5007483432865327  1.0000
