data_image0
_chemical_formula_structural       NC11NC3H8C7OC3FC3H8C6SCOC6H10Zn2C4O8
_chemical_formula_sum              "N2 C44 H26 O10 F1 S1 Zn2"
_cell_length_a       17.807433833752565
_cell_length_b       10.29937835083307
_cell_length_c       10.302041481415108
_cell_angle_alpha    85.53259314287666
_cell_angle_beta     88.52108606055918
_cell_angle_gamma    90.70491928007121

_space_group_name_H-M_alt    "P 1"
_space_group_IT_number       1

loop_
  _space_group_symop_operation_xyz
  'x, y, z'

loop_
  _atom_site_type_symbol
  _atom_site_label
  _atom_site_symmetry_multiplicity
  _atom_site_fract_x
  _atom_site_fract_y
  _atom_site_fract_z
  _atom_site_occupancy
  N   N1        1.0  0.7077640404051204  0.43904216030329496  0.5347619931259282  1.0000
  C   C1        1.0  0.6569349792668508  0.404291106960029  0.6013148981203783  1.0000
  C   C2        1.0  0.5936985024833524  0.36106366210755275  0.6840982190851388  1.0000
  C   C3        1.0  0.6054080478672237  0.29746861738137853  0.8067991550380325  1.0000
  C   C4        1.0  0.5440793946476039  0.25592180406288545  0.8872987982811485  1.0000
  C   C5        1.0  0.47088676050864814  0.2776565336477166  0.84573820716469  1.0000
  C   C6        1.0  0.45820047030905964  0.34140629419248403  0.7225771521994448  1.0000
  C   C7        1.0  0.3804399925223637  0.36447215400255994  0.678236323047223  1.0000
  C   C8        1.0  0.3616575273973962  0.34764350737319766  0.5486869433358057  1.0000
  C   C9        1.0  0.2884349442575597  0.36933952232887224  0.5070822961488417  1.0000
  C   C10       1.0  0.23305184791196557  0.4081830062037901  0.5942068873278628  1.0000
  C   C11       1.0  0.1576927287975104  0.4305379811775696  0.5512411468389449  1.0000
  N   N2        1.0  0.09710937001522489  0.4485097202873484  0.5166998185289657  1.0000
  C   C12       1.0  0.2511428122667534  0.425222420850377  0.7232252182997201  1.0000
  C   C13       1.0  0.3243126173154695  0.4034913869727461  0.7650852438863365  1.0000
  C   C14       1.0  0.5203864338794205  0.3829485367618033  0.6420939218577726  1.0000
  H   H1        1.0  0.6618690275499386  0.28004195906749874  0.8401599585734117  1.0000
  H   H2        1.0  0.5532638300074912  0.20643494142628807  0.9820214912756106  1.0000
  H   H3        1.0  0.4242380496672842  0.24307728365078798  0.9091684890544464  1.0000
  H   H4        1.0  0.4033317515550134  0.31602381109525846  0.4799902424589315  1.0000
  H   H5        1.0  0.27499414380689274  0.35549241550507804  0.4070718206057766  1.0000
  H   H6        1.0  0.20875156873921832  0.4556192137937822  0.7914074459856899  1.0000
  H   H7        1.0  0.3372253131158913  0.41888403210628855  0.8649127750127187  1.0000
  H   H8        1.0  0.5119007508384233  0.4337977305005479  0.547605290468802  1.0000
  C   C15       1.0  0.9023611083561258  0.06238910865391744  0.5257983908538  1.0000
  C   C16       1.0  0.8239778829894244  0.06049639931862316  0.513413344476837  1.0000
  C   C17       1.0  0.7843481091131617  0.9422511153248955  0.5086481306897572  1.0000
  C   C18       1.0  0.8241615813411204  0.8252568608985867  0.5134116962497269  1.0000
  C   C19       1.0  0.902519463743905  0.8251529736331952  0.5256742759463258  1.0000
  C   C20       1.0  0.9411426499026597  0.9442274568466694  0.53213960383469  1.0000
  C   C21       1.0  0.7016737163234464  0.9402176634258873  0.49419316354631976  1.0000
  O   O1        1.0  0.6726581864859007  0.8548452123961292  0.4288925468043161  1.0000
  C   C22       1.0  0.6519157117391163  0.03493504336759434  0.553828101771705  1.0000
  C   C23       1.0  0.5849961718401232  0.07332843487090335  0.49316543439342797  1.0000
  C   C24       1.0  0.5372712235375846  0.161405721578731  0.5494287416193457  1.0000
  F   F1        1.0  0.4731723514978467  0.1985594016962824  0.4896963521364823  1.0000
  C   C25       1.0  0.5555521015222912  0.21110515286271705  0.6671602699623271  1.0000
  C   C26       1.0  0.6213930591180737  0.1724327571802813  0.72908727622747  1.0000
  C   C27       1.0  0.6692733341266002  0.0844307125747039  0.6732213884338525  1.0000
  H   H9        1.0  0.7937501888507725  0.15127590964565973  0.5060044036479754  1.0000
  H   H10       1.0  0.7937481986159103  0.7340508594204108  0.5087716019871091  1.0000
  H   H11       1.0  0.0015702917122408769  0.944882592021496  0.541686812272772  1.0000
  H   H12       1.0  0.9326917302228488  0.49774334318489505  0.5292858870249882  1.0000
  H   H13       1.0  0.5700313788841841  0.03599521967449592  0.4017210912847726  1.0000
  H   H14       1.0  0.5185871488343026  0.27917952432082416  0.710745104647998  1.0000
  H   H15       1.0  0.6351963981650959  0.21022481753072286  0.8207990250621102  1.0000
  H   H16       1.0  0.7193387762094006  0.05406746541767181  0.7240395378094621  1.0000
  C   C28       1.0  0.9024544056342578  0.4439006460593056  0.1444486255797146  1.0000
  C   C29       1.0  0.9369214216641735  0.5678421804836322  0.13191783753544462  1.0000
  C   C30       1.0  0.9544052040560119  0.6289958985104249  0.008712134340512328  1.0000
  C   C31       1.0  0.9369926388318325  0.567440033302081  0.8968091835811931  1.0000
  C   C32       1.0  0.9024262036008828  0.44364139094403177  0.9070240644018885  1.0000
  C   C33       1.0  0.8853914407023682  0.3824600345337099  0.031402369450247436  1.0000
  S   S1        1.0  0.9991065346039618  0.7866221399101554  0.9940918845585127  1.0000
  C   C34       1.0  0.09163710596791863  0.7190686301456899  0.9923783728249927  1.0000
  O   O2        1.0  0.12103338849930557  0.6966097509356051  0.8839579243189225  1.0000
  C   C35       1.0  0.133039667068253  0.6887314423124393  0.11398696284976739  1.0000
  C   C36       1.0  0.19966990385142358  0.6166252991269905  0.11109946153611339  1.0000
  C   C37       1.0  0.23881983288171604  0.5866792891875208  0.22524005130828975  1.0000
  C   C38       1.0  0.2121368893017144  0.6283796948166371  0.34340899516225254  1.0000
  C   C39       1.0  0.14631406828327664  0.7003466543434547  0.34763933054621465  1.0000
  C   C40       1.0  0.10693997729583526  0.7306613632943411  0.23380848863537196  1.0000
  H   H17       1.0  0.8373775464868773  0.21040290822661323  0.37538053730098064  1.0000
  H   H18       1.0  0.9504274557337283  0.6171003663940717  0.2175981187291367  1.0000
  H   H19       1.0  0.9508170342522873  0.6163744169261896  0.8021890461997128  1.0000
  H   H20       1.0  0.8588215720459104  0.2869097685994424  0.04014207827300954  1.0000
  H   H21       1.0  0.8894891490863663  0.3964082633928314  0.5835721486042718  1.0000
  H   H22       1.0  0.22136375447130627  0.5826935185396311  0.020779679640581694  1.0000
  H   H23       1.0  0.2898758492842022  0.5309340044689903  0.22203320585836409  1.0000
  H   H24       1.0  0.2425112652801238  0.6050661431846667  0.43166564062088786  1.0000
  H   H25       1.0  0.12578649248610962  0.7329197005399297  0.43925925788889764  1.0000
  H   H26       1.0  0.0564542786550406  0.7873626113893273  0.2402159906078838  1.0000
  Zn  Zn1       1.0  0.8201206910089358  0.44177081625755443  0.5295571231921972  1.0000
  Zn  Zn2       1.0  0.9847527020540872  0.4457704406421504  0.5219152739501891  1.0000
  C   C41       1.0  0.9024287645476561  0.4385164477420636  0.7628818731321887  1.0000
  C   C42       1.0  0.9024464266273277  0.4490264914869997  0.288590567734091  1.0000
  C   C43       1.0  0.9024858673706447  0.6809760103746205  0.5205238407371076  1.0000
  C   C44       1.0  0.9023892673004039  0.20656536708990966  0.5309486722146008  1.0000
  O   O3        1.0  0.9649207378279995  0.45225894263867056  0.3340658792344984  1.0000
  O   O4        1.0  0.9649063402152317  0.43831863931161946  0.7116062012704596  1.0000
  O   O5        1.0  0.9649516091972763  0.6341077815369596  0.515900414262914  1.0000
  O   O6        1.0  0.9648754126737342  0.2564698083722856  0.529771571494245  1.0000
  O   O7        1.0  0.8399979242084641  0.6310714471639602  0.5217008282490996  1.0000
  O   O8        1.0  0.8399526555495299  0.43528386533969327  0.7174065457721746  1.0000
  O   O9        1.0  0.8399670532606462  0.449224123940539  0.3398646626730637  1.0000
  O   O10       1.0  0.8399217280977768  0.2534349803517397  0.5355704522815679  1.0000
