data_image0
_chemical_formula_structural       NC9NC4H8C8NH7C12H10Zn2C4O8
_chemical_formula_sum              "N3 C37 H25 Zn2 O8"
_cell_length_a       16.32274767691083
_cell_length_b       9.274263428431858
_cell_length_c       10.299141136925906
_cell_angle_alpha    85.50362818377448
_cell_angle_beta     89.48989962439883
_cell_angle_gamma    90.1410557844374

_space_group_name_H-M_alt    "P 1"
_space_group_IT_number       1

loop_
  _space_group_symop_operation_xyz
  'x, y, z'

loop_
  _atom_site_type_symbol
  _atom_site_label
  _atom_site_symmetry_multiplicity
  _atom_site_fract_x
  _atom_site_fract_y
  _atom_site_fract_z
  _atom_site_occupancy
  N   N1        1.0  0.7807287454311191  0.5686320955336216  0.5556529571288837  1.0000
  C   C1        1.0  0.7280663127951502  0.5159626266986714  0.5013948069726648  1.0000
  C   C2        1.0  0.6626066805996708  0.45054673635560843  0.43400575060602575  1.0000
  C   C3        1.0  0.6736041025099386  0.3610694734347608  0.34182522109161595  1.0000
  C   C4        1.0  0.5939674857793202  0.31740409344907516  0.2968441894736349  1.0000
  C   C5        1.0  0.5354310744519168  0.38130736806405463  0.3626803884606873  1.0000
  C   C6        1.0  0.44538876756281853  0.36441830586860346  0.34528400144060734  1.0000
  C   C7        1.0  0.39025512586389066  0.43890170178882687  0.4220129493738203  1.0000
  C   C8        1.0  0.30545702580842987  0.42446749767843006  0.40714489441181834  1.0000
  C   C9        1.0  0.24992566982820466  0.5012406504137894  0.48623186370074767  1.0000
  N   N2        1.0  0.2052973225542276  0.5629536320146802  0.5498043918326831  1.0000
  C   C10       1.0  0.274738781641121  0.33542943491439  0.3154244244783362  1.0000
  C   C11       1.0  0.3285511173587114  0.2610446975881613  0.23879745094988492  1.0000
  C   C12       1.0  0.4131880083163982  0.2750901110048882  0.2532648726169533  1.0000
  C   C13       1.0  0.5737634062372652  0.4744853992002623  0.4586708733867262  1.0000
  H   H1        1.0  0.7322957007136247  0.3262759859435878  0.3059783020633453  1.0000
  H   H2        1.0  0.5852183970107776  0.24427443803961157  0.22150497284813686  1.0000
  H   H3        1.0  0.4127988815221237  0.5084109199970095  0.4936163453102136  1.0000
  H   H4        1.0  0.20927323993654823  0.32353864089405643  0.3031764557457064  1.0000
  H   H5        1.0  0.3046152242459845  0.1921654551184262  0.16784326799128668  1.0000
  H   H6        1.0  0.4526000364281591  0.21558710915033727  0.19196862063313283  1.0000
  H   H7        1.0  0.5567762159949877  0.4358668484367154  0.5602065756122532  1.0000
  H   H8        1.0  0.5576856013133582  0.5900655974050009  0.43642201937235203  1.0000
  C   C14       1.0  0.9904245759027628  0.1422439233836797  0.5530403353085938  1.0000
  C   C15       1.0  0.9798083139321038  0.2257850157086312  0.4344906492761549  1.0000
  C   C16       1.0  0.9772275314115109  0.16094722779230916  0.31690473361307325  1.0000
  C   C17       1.0  0.9858651266296489  0.011050480694801974  0.3149508684083755  1.0000
  C   C18       1.0  0.9942825892896784  0.9260344579912644  0.4327347068520424  1.0000
  C   C19       1.0  0.9956092824364674  0.9893305978164312  0.5524281691815147  1.0000
  C   C20       1.0  0.9818604208291518  0.9411582626797035  0.18828574375435703  1.0000
  C   C21       1.0  0.8968531666745093  0.9033684449276892  0.1605916571236583  1.0000
  N   N3        1.0  0.8297587556015361  0.8735403987190917  0.13874189357355363  1.0000
  H   H9        1.0  0.06119143560199004  0.2194648342538703  0.8514978799637603  1.0000
  H   H10       1.0  0.9752790727642623  0.3424651987063094  0.43242588889598155  1.0000
  H   H11       1.0  0.9692562854814807  0.22801158306816172  0.22700864918110386  1.0000
  H   H12       1.0  0.9978195426901261  0.8094981561995741  0.43097522286479767  1.0000
  H   H13       1.0  0.04006637859512074  0.6911736050999888  0.7551745441200997  1.0000
  H   H14       1.0  0.019711519345294345  0.8415350633339355  0.1927904451221487  1.0000
  H   H15       1.0  0.006035444405045223  0.01567472857409058  0.10712860832132254  1.0000
  C   C22       1.0  0.9929245618722928  0.5659115773212446  0.17134243760045823  1.0000
  C   C23       1.0  0.07859159748979372  0.5803005535770493  0.16833718124457642  1.0000
  C   C24       1.0  0.12212329957377932  0.5874685851163808  0.049678449770570676  1.0000
  C   C25       1.0  0.07883001083706898  0.5800534449340925  0.9330683481332903  1.0000
  C   C26       1.0  0.9931093154029896  0.5656628942643711  0.9341260780585641  1.0000
  C   C27       1.0  0.9506843957286537  0.5586781917619107  0.0537016700432611  1.0000
  C   C28       1.0  0.21275041492558494  0.6026924911523681  0.04754395323054484  1.0000
  C   C29       1.0  0.26102301713351705  0.5231699160099748  0.9647059491194107  1.0000
  C   C30       1.0  0.34632043180449834  0.5376789283035901  0.9629347449132326  1.0000
  C   C31       1.0  0.3843283200356209  0.6315105296805662  0.04350905122592064  1.0000
  C   C32       1.0  0.33711570428759297  0.7110284958424018  0.12608776677229439  1.0000
  C   C33       1.0  0.2517990353049202  0.6968813868905688  0.12832882177014238  1.0000
  H   H16       1.0  0.9599675693549761  0.5604501170483223  0.499969089044372  1.0000
  H   H17       1.0  0.11176678055572475  0.5839745256199378  0.25862994335429473  1.0000
  H   H18       1.0  0.11196487560457613  0.5875088897863493  0.8411810298584698  1.0000
  H   H19       1.0  0.8846072609126483  0.5475836557841551  0.055303778758942324  1.0000
  H   H20       1.0  0.831268348260861  0.5394171640709259  0.7287672630857194  1.0000
  H   H21       1.0  0.2329086544807626  0.4484658650782967  0.9026297914075873  1.0000
  H   H22       1.0  0.3829907972750999  0.4758115173323681  0.899240163123459  1.0000
  H   H23       1.0  0.4503615733916584  0.6426012237943552  0.04195634266369153  1.0000
  H   H24       1.0  0.3666266449519242  0.7840113173038967  0.1882259839386442  1.0000
  H   H25       1.0  0.21632333382704383  0.7609043912199942  0.19190143543974436  1.0000
  Zn  Zn1       1.0  0.9032500499329285  0.5669895400909566  0.5539726907569751  1.0000
  Zn  Zn2       1.0  0.0827759543600386  0.5645843483413701  0.5514953065767354  1.0000
  C   C34       1.0  0.9930373757952003  0.5599640346837186  0.7899477901472464  1.0000
  C   C35       1.0  0.992990600084574  0.5716116472956674  0.3155203062924099  1.0000
  C   C36       1.0  0.9946237877842887  0.8292148927127129  0.5473684422893272  1.0000
  C   C37       1.0  0.9914041162463351  0.30235905719056216  0.5580997254908118  1.0000
  O   O1        1.0  0.06114186972154533  0.572605592735193  0.36296756626858717  1.0000
  O   O2        1.0  0.061142106921459494  0.5571435163992888  0.7406198798189112  1.0000
  O   O3        1.0  0.06242223657915381  0.7745670012636934  0.5447353517245939  1.0000
  O   O4        1.0  0.059861678843388284  0.3551821190409994  0.5588519978202988  1.0000
  O   O5        1.0  0.9261642641862065  0.7763917702136738  0.5466160003519889  1.0000
  O   O6        1.0  0.9248841451142893  0.5589700182477275  0.7425004579444006  1.0000
  O   O7        1.0  0.9248839072830728  0.5744320448306302  0.36484658293524386  1.0000
  O   O8        1.0  0.9236037163620059  0.35700856078857224  0.5607311118681384  1.0000
