data_image0
_chemical_formula_structural       NC6NCNCH5C6ClH5C6NCH7Zn2C4O8
_chemical_formula_sum              "N4 C25 H17 Cl1 Zn2 O8"
_cell_length_a       14.933214217465613
_cell_length_b       10.30297070629231
_cell_length_c       9.273390368590327
_cell_angle_alpha    86.16779528597041
_cell_angle_beta     89.95654164007166
_cell_angle_gamma    90.03245333812676

_space_group_name_H-M_alt    "P 1"
_space_group_IT_number       1

loop_
  _space_group_symop_operation_xyz
  'x, y, z'

loop_
  _atom_site_type_symbol
  _atom_site_label
  _atom_site_symmetry_multiplicity
  _atom_site_fract_x
  _atom_site_fract_y
  _atom_site_fract_z
  _atom_site_occupancy
  N   N1        1.0  0.8433618172966184  0.4064072163310107  0.40933781252786283  1.0000
  C   C1        1.0  0.7658716352663492  0.4072950498185739  0.40834743617350444  1.0000
  C   C2        1.0  0.669473291771778  0.40840195013568814  0.4071125592582121  1.0000
  C   C3        1.0  0.6216414052297504  0.3230975098766109  0.5022889665567756  1.0000
  C   C4        1.0  0.5281080651672642  0.3240621195432023  0.5012127560220951  1.0000
  C   C5        1.0  0.4815042533911807  0.410282294359363  0.40501467662543034  1.0000
  C   C6        1.0  0.3849285609468168  0.40840387197015  0.40711048869220545  1.0000
  N   N2        1.0  0.3074427816703531  0.4068368491312205  0.40885848583053597  1.0000
  C   C7        1.0  0.5294350004709675  0.4966638983114051  0.3086365788428558  1.0000
  N   N3        1.0  0.48413119506086605  0.586279784254871  0.20865005250915813  1.0000
  C   C8        1.0  0.6234486229503928  0.49483867157482303  0.3106731498241788  1.0000
  H   H1        1.0  0.6566330838020238  0.25584069524592423  0.5773291199549884  1.0000
  H   H2        1.0  0.4920187876173212  0.2573710784921861  0.5756215318656339  1.0000
  H   H3        1.0  0.520492331987595  0.64957513244489  0.1380297268514108  1.0000
  H   H4        1.0  0.4143901380614549  0.5910481142261497  0.2033299735162657  1.0000
  H   H5        1.0  0.6606622779842387  0.5608586894699068  0.23701288617720648  1.0000
  C   C9        1.0  0.07540656429341208  0.025374630275806446  0.40910437886963535  1.0000
  C   C10       1.0  0.1678705825142519  0.022582747973030507  0.4367698456108007  1.0000
  C   C11       1.0  0.21374876046173275  0.9042406456171082  0.4504966110568788  1.0000
  C   C12       1.0  0.16787058180599623  0.7874747786539782  0.43676977782737375  1.0000
  C   C13       1.0  0.07540657384195004  0.7878595728866662  0.40910446136587075  1.0000
  C   C14       1.0  0.029625285072761867  0.9074035741093928  0.3954065530110149  1.0000
  Cl  Cl1       1.0  0.32925834933760245  0.9022564354291216  0.48505727109674845  1.0000
  H   H6        1.0  0.040576988158031374  0.35372939404591747  0.3986824751672273  1.0000
  H   H7        1.0  0.20464576971260162  0.11199761185563785  0.44777295034526254  1.0000
  H   H8        1.0  0.20464573430983157  0.6967964180040825  0.44777284683031415  1.0000
  H   H9        1.0  0.9583142282406382  0.908628430913919  0.37407006906745677  1.0000
  H   H10       1.0  0.04057698376434171  0.46070142996901975  0.39868274729029163  1.0000
  C   C15       1.0  0.07544808340754372  0.40256859267023787  0.9858585791057037  1.0000
  C   C16       1.0  0.15769369576278547  0.4000651432334894  0.059376126004914154  1.0000
  C   C17       1.0  0.23850475981360394  0.40962911575226313  0.9838778806962543  1.0000
  C   C18       1.0  0.23912342982942125  0.4220501536325701  0.8322492535162427  1.0000
  C   C19       1.0  0.15742363048776364  0.4223646469959699  0.7579215408764393  1.0000
  C   C20       1.0  0.07536509505979821  0.4106655983408159  0.8323501995687956  1.0000
  N   N4        1.0  0.321448001252957  0.4331103611667442  0.7513759620849676  1.0000
  C   C21       1.0  0.4098626093188522  0.43334522091781286  0.8182728500175758  1.0000
  H   H11       1.0  0.9341070019346785  0.340074765843684  0.27184454210675524  1.0000
  H   H12       1.0  0.3002030491366088  0.40849159572214444  0.04493516639758033  1.0000
  H   H13       1.0  0.8666754350273106  0.3096104459264064  0.7370746357324678  1.0000
  H   H14       1.0  0.31854249155179937  0.44171187148260027  0.6385031295897572  1.0000
  H   H15       1.0  0.41567425204318975  0.5166331025654634  0.8877353851193863  1.0000
  H   H16       1.0  0.4207856094248503  0.34055282742950665  0.8838155054676521  1.0000
  H   H17       1.0  0.4623407575986922  0.4432085388794442  0.7333280869117429  1.0000
  Zn  Zn1       1.0  0.9772855587033051  0.4065277951903668  0.40920782103278786  1.0000
  Zn  Zn2       1.0  0.17351902444030276  0.40670573277427136  0.4090003132944626  1.0000
  C   C22       1.0  0.07537876508276758  0.4039630385199986  0.6723451669371272  1.0000
  C   C23       1.0  0.07542796091037274  0.4092721308385123  0.1458631065873448  1.0000
  C   C24       1.0  0.07540254140470348  0.6436787162770273  0.4033609675167418  1.0000
  C   C25       1.0  0.07540411762007687  0.1695548939501823  0.41484738291997814  1.0000
  O   O1        1.0  0.14989078518417775  0.4115837619343352  0.19948333956410735  1.0000
  O   O2        1.0  0.14985260081067486  0.40178547455408853  0.6185670254914666  1.0000
  O   O3        1.0  0.14987079645884127  0.5953589293863264  0.4013603824132994  1.0000
  O   O4        1.0  0.14987252258542016  0.21801031529494352  0.41668987464601526  1.0000
  O   O5        1.0  0.0009319935933367323  0.5952232126103139  0.4015182597444662  1.0000
  O   O6        1.0  0.0009137979486801822  0.40165131684999644  0.6187248259736164  1.0000
  O   O7        1.0  0.0009519825516677287  0.41144954241341486  0.1996394071930938  1.0000
  O   O8        1.0  0.0009337199386509937  0.21787608752179624  0.4168460503344926  1.0000
