data_image0
_chemical_formula_structural       NC8NH4C10H6C6NH7Zn2C4O8
_chemical_formula_sum              "N3 C28 H17 Zn2 O8"
_cell_length_a       14.927258825633057
_cell_length_b       9.275150299802176
_cell_length_c       9.274774538082514
_cell_angle_alpha    84.74231674010296
_cell_angle_beta     90.34966621466518
_cell_angle_gamma    89.48389196497259

_space_group_name_H-M_alt    "P 1"
_space_group_IT_number       1

loop_
  _space_group_symop_operation_xyz
  'x, y, z'

loop_
  _atom_site_type_symbol
  _atom_site_label
  _atom_site_symmetry_multiplicity
  _atom_site_fract_x
  _atom_site_fract_y
  _atom_site_fract_z
  _atom_site_occupancy
  N   N1        1.0  0.8285818031246822  0.5930068841340439  0.39900498931822037  1.0000
  C   C1        1.0  0.7510553789629516  0.5930068575834779  0.3990049991332272  1.0000
  C   C2        1.0  0.6546227374306334  0.5930068568133289  0.39900505428816  1.0000
  C   C3        1.0  0.6077217996418095  0.5054251527786278  0.309650933311586  1.0000
  C   C4        1.0  0.5140104884814141  0.5054250631449195  0.30965090532031003  1.0000
  C   C5        1.0  0.46680673938597145  0.5930069106517535  0.39900496605446745  1.0000
  C   C6        1.0  0.5137076767049166  0.6805886259491754  0.4883589787618395  1.0000
  C   C7        1.0  0.6074190548568876  0.6805887155798647  0.4883590067590644  1.0000
  C   C8        1.0  0.37037409797992643  0.5930068134561939  0.399004911599423  1.0000
  N   N2        1.0  0.2928476732220441  0.5930068945937594  0.3990049227552048  1.0000
  H   H1        1.0  0.6435357120133028  0.4372814476657498  0.24012843258191952  1.0000
  H   H2        1.0  0.4784320566374649  0.43728142313067747  0.24012853007387494  1.0000
  H   H3        1.0  0.4778937643334233  0.7487323310620537  0.5578814794915057  1.0000
  H   H4        1.0  0.6429974201791401  0.7487323443344047  0.5578814902687526  1.0000
  C   C9        1.0  0.06309201900582773  0.169280277013655  0.4014212702924016  1.0000
  C   C10       1.0  0.1097835480689382  0.25228388793886825  0.2922260846068301  1.0000
  C   C11       1.0  0.14877097745869472  0.1871342338361761  0.17748174277362283  1.0000
  C   C12       1.0  0.14146128941968072  0.03802795708575646  0.17045462726749075  1.0000
  C   C13       1.0  0.09672306279814412  0.9535861580364213  0.2790011379182906  1.0000
  C   C14       1.0  0.058346130628620804  0.016722213953027865  0.39660122572821255  1.0000
  C   C15       1.0  0.19546379549879944  0.2739017381983466  0.065789920382606  1.0000
  C   C16       1.0  0.2345575035106238  0.34657156762840263  0.9722805853459421  1.0000
  C   C17       1.0  0.28033442045586954  0.4316728440759448  0.8627852321613134  1.0000
  C   C18       1.0  0.31942059029326764  0.5043370351538443  0.7692938222069055  1.0000
  H   H5        1.0  0.021493084540706198  0.42960679715043204  0.6306177759275848  1.0000
  H   H6        1.0  0.11409636657427115  0.36871282164405317  0.29445581053975034  1.0000
  H   H7        1.0  0.17115018053533215  0.9866565245163395  0.08166661522535246  1.0000
  H   H8        1.0  0.09395943608757418  0.8376403995882251  0.27276977961803395  1.0000
  H   H9        1.0  0.0014526859621675219  0.8832630351872268  0.7395286524398381  1.0000
  H   H10       1.0  0.35374150820960226  0.5681423616336281  0.687200642368555  1.0000
  C   C19       1.0  0.05909070483089352  0.5966917734750268  0.9751739402253151  1.0000
  C   C20       1.0  0.12209133578402498  0.6818419530767745  0.04142612867095008  1.0000
  C   C21       1.0  0.18917753967738493  0.7551060997292551  0.9602444954383862  1.0000
  C   C22       1.0  0.19380791323516222  0.7435523461022779  0.811332794857921  1.0000
  C   C23       1.0  0.13107689356253668  0.6615808021934189  0.7433599644855442  1.0000
  C   C24       1.0  0.062347464808856  0.5893107061502145  0.8228485480802958  1.0000
  N   N3        1.0  0.2532077253344256  0.8400555358853328  0.029503070711220273  1.0000
  H   H11       1.0  0.9267641959176585  0.3146238180229821  0.10269860456902014  1.0000
  H   H12       1.0  0.12044045556476803  0.6886853880600421  0.15740733431732168  1.0000
  H   H13       1.0  0.24560807384449904  0.7993014751089245  0.7474849308210536  1.0000
  H   H14       1.0  0.1350940957123794  0.6575671154658099  0.6272097434690664  1.0000
  H   H15       1.0  0.9704450165295624  0.4037207238589118  0.5578223684360624  1.0000
  H   H16       1.0  0.25055562909170304  0.8491041148398002  0.1408215276429594  1.0000
  H   H17       1.0  0.30372121817292075  0.8946699691767376  0.9699503453314149  1.0000
  Zn  Zn1       1.0  0.96255896690869  0.5930029403980552  0.39901333541260264  1.0000
  Zn  Zn2       1.0  0.15887063440475235  0.5929988894800888  0.3990084957953872  1.0000
  C   C25       1.0  0.061762065682551485  0.5849576119704534  0.6626525930344274  1.0000
  C   C26       1.0  0.059669669696605705  0.6010460372465833  0.1353693694263065  1.0000
  C   C27       1.0  0.05921651886451573  0.8565877510576593  0.3917608452797261  1.0000
  C   C28       1.0  0.062215159531373805  0.3294141638895729  0.4062612039918623  1.0000
  O   O1        1.0  0.13436326557584  0.6024995356227727  0.18913061806455245  1.0000
  O   O2        1.0  0.1360644875898307  0.5834999541213461  0.6088872619533467  1.0000
  O   O3        1.0  0.13400792782175386  0.8028447136192933  0.39014025052856893  1.0000
  O   O4        1.0  0.1364197578824624  0.38315478739056674  0.407877521214179  1.0000
  O   O5        1.0  0.9850097764394042  0.8028470424905962  0.3901443099878614  1.0000
  O   O6        1.0  0.9870663261991725  0.5835040172654729  0.6088912345958353  1.0000
  O   O7        1.0  0.9853650978594259  0.6025035635941798  0.18913285571825567  1.0000
  O   O8        1.0  0.987421590635927  0.3831588040992524  0.4078798671370847  1.0000
