data_image0
_chemical_formula_structural       NC9NC4H8C6NO2H5C12H10Zn2C4O8
_chemical_formula_sum              "N3 C35 H23 O10 Zn2"
_cell_length_a       16.32274767691083
_cell_length_b       9.273392599741051
_cell_length_c       10.299141136925906
_cell_angle_alpha    85.66774758485903
_cell_angle_beta     89.48989962439883
_cell_angle_gamma    88.93063911827517

_space_group_name_H-M_alt    "P 1"
_space_group_IT_number       1

loop_
  _space_group_symop_operation_xyz
  'x, y, z'

loop_
  _atom_site_type_symbol
  _atom_site_label
  _atom_site_symmetry_multiplicity
  _atom_site_fract_x
  _atom_site_fract_y
  _atom_site_fract_z
  _atom_site_occupancy
  N   N1        1.0  0.7618779093417126  0.5686800114194066  0.5599597957927878  1.0000
  C   C1        1.0  0.7098484253281458  0.516008933727759  0.5055570362629422  1.0000
  C   C2        1.0  0.645174920249414  0.4505910451721516  0.43798837392842493  1.0000
  C   C3        1.0  0.6572476237517468  0.3611110490531739  0.3455621755050433  1.0000
  C   C4        1.0  0.5781357501544838  0.31744433525227067  0.300461256153455  1.0000
  C   C5        1.0  0.5188313893768726  0.38134956187500024  0.3664729080683453  1.0000
  C   C6        1.0  0.4289920446380812  0.364459983781412  0.3490301504134512  1.0000
  C   C7        1.0  0.3729633082309216  0.4389456548928052  0.42596360007162654  1.0000
  C   C8        1.0  0.2883386693819101  0.4245110098710705  0.4110559145368966  1.0000
  C   C9        1.0  0.2318847018330437  0.5012865077411679  0.49035367231057775  1.0000
  N   N2        1.0  0.1865147266757284  0.5630013744444902  0.554095639698525  1.0000
  C   C10       1.0  0.2586904287748129  0.33547022732483417  0.3190909815630598  1.0000
  C   C11       1.0  0.31339667358356815  0.26108321782108956  0.242259777186832  1.0000
  C   C12       1.0  0.3978647755773668  0.27512906027304296  0.25676576196230916  1.0000
  C   C13       1.0  0.5560439660602543  0.4745304392540648  0.4627192227381889  1.0000
  H   H1        1.0  0.7163573482525694  0.32631649875015545  0.30961972742467303  1.0000
  H   H2        1.0  0.5702654876902884  0.244312446003383  0.22492125463499726  1.0000
  H   H3        1.0  0.3946717457269955  0.5084569963494985  0.49775784062310136  1.0000
  H   H4        1.0  0.1933677831704081  0.32357907008489706  0.306810365448309  1.0000
  H   H5        1.0  0.290288527979933  0.19220187134626385  0.17111647927549645  1.0000
  H   H6        1.0  0.43799187342280294  0.21562424082273465  0.1953061384462249  1.0000
  H   H7        1.0  0.5395208693250054  0.435910708837193  0.5641488938120864  1.0000
  H   H8        1.0  0.5385771908495973  0.5901141680046802  0.44078770589154664  1.0000
  C   C14       1.0  0.9766978052755807  0.1422788146940943  0.5561764819594524  1.0000
  C   C15       1.0  0.9662343121800464  0.22579151206833512  0.4376829673603589  1.0000
  C   C16       1.0  0.9485409867965039  0.16095778421276252  0.3235941471752537  1.0000
  C   C17       1.0  0.9407255741379079  0.010646012857483454  0.32481775184170325  1.0000
  C   C18       1.0  0.9524669454822827  0.9259480593354069  0.44238796756350607  1.0000
  C   C19       1.0  0.9717027528831222  0.9893912867673511  0.5578900319340829  1.0000
  N   N3        1.0  0.9217563200205637  0.9444127695321107  0.20693833186173527  1.0000
  O   O1        1.0  0.9109768031871315  0.027680672707304003  0.09178583961456499  1.0000
  O   O2        1.0  0.9145409858015706  0.8105759635632592  0.20724531286741255  1.0000
  H   H9        1.0  0.960090102252091  0.21891054846489005  0.8751611662374751  1.0000
  H   H10       1.0  0.9698153146128794  0.34258684924478144  0.43379638191981984  1.0000
  H   H11       1.0  0.94014681049224  0.2290070597969103  0.2344484483286744  1.0000
  H   H12       1.0  0.9485095322685335  0.8093986280313041  0.4433670974498583  1.0000
  H   H13       1.0  0.9633126223549874  0.691370816237204  0.7734337306178718  1.0000
  C   C20       1.0  0.9741064192634327  0.5659594101053003  0.17564180680542618  1.0000
  C   C21       1.0  0.05960053719445702  0.5803488258909  0.17267605684460596  1.0000
  C   C22       1.0  0.10304609837388234  0.5875170763869779  0.05403700592888106  1.0000
  C   C23       1.0  0.05984192013832424  0.5801017096996917  0.937406545271455  1.0000
  C   C24       1.0  0.9742941613110393  0.5657107194520823  0.938424764478953  1.0000
  C   C25       1.0  0.9319531794079517  0.5587258035928966  0.05798117925385138  1.0000
  C   C26       1.0  0.1934902623770942  0.6027414474567644  0.051944308168389464  1.0000
  C   C27       1.0  0.2427185169866861  0.5232164431949877  0.9688879667541671  1.0000
  C   C28       1.0  0.32784157145341997  0.537725898685053  0.9671565985141788  1.0000
  C   C29       1.0  0.36472185038558697  0.6315603662690306  0.047988529014116876  1.0000
  C   C30       1.0  0.31655363762373523  0.7110807614094621  0.1307855692091544  1.0000
  C   C31       1.0  0.23140697971806978  0.6969332203159824  0.13298778188317817  1.0000
  H   H14       1.0  0.941215059148198  0.5604977830050462  0.5042534632557194  1.0000
  H   H15       1.0  0.09273156877007072  0.5840229101599916  0.26297890621754494  1.0000
  H   H16       1.0  0.09288719004844959  0.5875573822881042  0.845539696677343  1.0000
  H   H17       1.0  0.8660093717626706  0.5476309287182641  0.05955282679470186  1.0000
  H   H18       1.0  0.8127685988832044  0.5394641875490371  0.7329938891894288  1.0000
  H   H19       1.0  0.21550190073561307  0.44851011033194926  0.9066067014866467  1.0000
  H   H20       1.0  0.3652554206426166  0.47585659789415535  0.9032921534668796  1.0000
  H   H21       1.0  0.4306218227400104  0.6426513991623424  0.04646627107849066  1.0000
  H   H22       1.0  0.3451875165419569  0.7840658122251487  0.1931241681209539  1.0000
  H   H23       1.0  0.1951618899534171  0.7609581803104566  0.1967361772107039  1.0000
  Zn  Zn1       1.0  0.8844189530440049  0.5670374058027716  0.5582750196181607  1.0000
  Zn  Zn2       1.0  0.06397376155612267  0.5646321405835086  0.5557910317398003  1.0000
  C   C32       1.0  0.9742907070212276  0.5600116857924313  0.794230829770116  1.0000
  C   C33       1.0  0.9741039576119844  0.5716596541956949  0.31983532561815675  1.0000
  C   C34       1.0  0.9726414311737044  0.8292707684353406  0.5523907374769339  1.0000
  C   C35       1.0  0.9757531824253607  0.3023988394237658  0.5616754844962307  1.0000
  O   O3        1.0  0.04224328263643895  0.572653629996563  0.36728531457244246  1.0000
  O   O4        1.0  0.04242933336614141  0.5571910813516416  0.7448951754224946  1.0000
  O   O5        1.0  0.04109660403233839  0.7746212076961589  0.54960760557844  1.0000
  O   O6        1.0  0.04357595061554287  0.35522351482259706  0.5625727879045606  1.0000
  O   O7        1.0  0.9048167027113297  0.7764460323860549  0.5514932642942352  1.0000
  O   O8        1.0  0.906149421806024  0.5590176389929291  0.7467807683942336  1.0000
  O   O9        1.0  0.9059633710429196  0.5744801378833291  0.3691693459487466  1.0000
  O   O10       1.0  0.9072960391034677  0.3570500123611831  0.5644569166336364  1.0000
