data_image0
_chemical_formula_structural       NC12NC2H8C12H10C12H10Zn2C4O8
_chemical_formula_sum              "N2 C42 H28 Zn2 O8"
_cell_length_a       19.240039667572717
_cell_length_b       14.389296765108565
_cell_length_c       14.389300134226547
_cell_angle_alpha    85.54379651707656
_cell_angle_beta     90.2220102004637
_cell_angle_gamma    90.35206502243754

_space_group_name_H-M_alt    "P 1"
_space_group_IT_number       1

loop_
  _space_group_symop_operation_xyz
  'x, y, z'

loop_
  _atom_site_type_symbol
  _atom_site_label
  _atom_site_symmetry_multiplicity
  _atom_site_fract_x
  _atom_site_fract_y
  _atom_site_fract_z
  _atom_site_occupancy
  N   N1        1.0  0.6564789810463361  0.056679177529199945  0.015116931313701067  1.0000
  C   C1        1.0  0.5963306123525994  0.056679239884580346  0.015116875063066136  1.0000
  C   C2        1.0  0.5215125753396103  0.05667932766389172  0.015116780092942143  1.0000
  C   C3        1.0  0.4850226074692521  0.007582173300219931  0.08736593186808282  1.0000
  C   C4        1.0  0.4123516542815746  0.007500502993046169  0.0874246733693743  1.0000
  C   C5        1.0  0.3751803402720231  0.05667940057055776  0.015116619529572875  1.0000
  C   C6        1.0  0.41238470565590185  0.1058584255190611  0.9428087109274574  1.0000
  C   C7        1.0  0.48505518847746243  0.10577658361771049  0.9428675332022063  1.0000
  C   C8        1.0  0.2979752493827707  0.056679347401199974  0.015116548690005895  1.0000
  C   C9        1.0  0.2604877092451696  0.974671455334598  0.041733991664240966  1.0000
  C   C10       1.0  0.1878172032820981  0.9747504333570688  0.04167169797150683  1.0000
  C   C11       1.0  0.1516429621432512  0.05667925347180969  0.01511658848721653  1.0000
  C   C12       1.0  0.0768249250880141  0.05667916483118196  0.015116763462610034  1.0000
  N   N2        1.0  0.016676608502837597  0.05667912939270959  0.015116911769671781  1.0000
  C   C13       1.0  0.188416232013473  0.13860812924651025  0.9885614433466249  1.0000
  C   C14       1.0  0.2610871109428805  0.13868724060767043  0.9884990384385253  1.0000
  H   H1        1.0  0.5127262029126266  0.9695494887157015  0.14378878531000353  1.0000
  H   H2        1.0  0.3852519247796372  0.9700027828523875  0.144672040159592  1.0000
  H   H3        1.0  0.3852979043620782  0.14335616648967303  0.885561308471382  1.0000
  H   H4        1.0  0.5127813646948521  0.14380918834538137  0.8864448746124898  1.0000
  H   H5        1.0  0.2873415698006533  0.9101718641370022  0.061400838092257465  1.0000
  H   H6        1.0  0.1598679743950741  0.9108603793564476  0.062106892060308144  1.0000
  H   H7        1.0  0.1609356373984007  0.202498165314261  0.9681262589558239  1.0000
  H   H8        1.0  0.2884197293840739  0.2031868896055349  0.9688321622810533  1.0000
  C   C15       1.0  0.8352924576471864  0.7848311435028172  0.0035998059869007983  1.0000
  C   C16       1.0  0.8707281020302773  0.7264354987567746  0.9460838735266166  1.0000
  C   C17       1.0  0.8732306200880834  0.6302897271776223  0.968821095158318  1.0000
  C   C18       1.0  0.8404020559927757  0.5904330907224569  0.04957972556406418  1.0000
  C   C19       1.0  0.8050210127792812  0.6489243675219565  0.10707817088305749  1.0000
  C   C20       1.0  0.8024693524835433  0.7450655605336479  0.08430292030066894  1.0000
  C   C21       1.0  0.8430836003474794  0.4882603812458519  0.07378158884449082  1.0000
  C   C22       1.0  0.835326115415501  0.42540067036960855  0.0041744344294578645  1.0000
  C   C23       1.0  0.8378697914121566  0.3285197331711215  0.026641758616464117  1.0000
  C   C24       1.0  0.8483118112967047  0.29494879555873904  0.11990055141958983  1.0000
  C   C25       1.0  0.8560119026671736  0.35689934239350646  0.18927986509706152  1.0000
  C   C26       1.0  0.8534154258856401  0.4529103294939048  0.16660076164612503  1.0000
  H   H9        1.0  0.795044228089741  0.013712691589016227  0.02159944768099731  1.0000
  H   H10       1.0  0.8967234978218985  0.7550222131789928  0.8835421362802602  1.0000
  H   H11       1.0  0.9016833894153643  0.5872358702837449  0.9237946285698442  1.0000
  H   H12       1.0  0.7784871051675863  0.6201695246027279  0.16912800014538834  1.0000
  H   H13       1.0  0.774599506562475  0.7881578631449012  0.12989390576454973  1.0000
  H   H14       1.0  0.8263569179272454  0.4520046708590987  0.9326689487755828  1.0000
  H   H15       1.0  0.8262311501502484  0.12112885893970685  0.9266709921204088  1.0000
  H   H16       1.0  0.8505495625352063  0.22081238974991063  0.13936173344519398  1.0000
  H   H17       1.0  0.8642206678045762  0.330380651972992  0.2609249020761534  1.0000
  H   H18       1.0  0.8604150797183157  0.4995456565990186  0.22148022821940858  1.0000
  C   C27       1.0  0.835840978030759  0.06827129442383  0.7414870908484897  1.0000
  C   C28       1.0  0.8739393895950147  0.1231103713866215  0.6742680663556313  1.0000
  C   C29       1.0  0.8753594176062488  0.10022834053628962  0.5816536377107935  1.0000
  C   C30       1.0  0.8387615408678648  0.02199493985864542  0.554230327393437  1.0000
  C   C31       1.0  0.8007184990643786  0.9671693697165489  0.6215423692172706  1.0000
  C   C32       1.0  0.7992511274422068  0.990092964946463  0.7141461959791122  1.0000
  C   C33       1.0  0.8402908706081736  0.9976376376682421  0.4558164186348657  1.0000
  C   C34       1.0  0.83584733498999  0.0676951538224626  0.3821458786667131  1.0000
  C   C35       1.0  0.8373212564590956  0.045079549749519346  0.2887545024271824  1.0000
  C   C36       1.0  0.8433231729871893  0.9512138265152666  0.2696678448199832  1.0000
  C   C37       1.0  0.847720170410563  0.8813879671039487  0.34239380639192896  1.0000
  C   C38       1.0  0.8462036002368578  0.9042188475149016  0.43488219928325234  1.0000
  H   H19       1.0  0.7948121717873768  0.05323395392824941  0.9730535736953568  1.0000
  H   H20       1.0  0.9028528153525537  0.18365477996834786  0.6932275254530169  1.0000
  H   H21       1.0  0.9058954555805113  0.14310737711667842  0.5316941657327051  1.0000
  H   H22       1.0  0.7712908106355915  0.907155304665844  0.6023371380414799  1.0000
  H   H23       1.0  0.7692702961867702  0.946607836043935  0.7642331132408671  1.0000
  H   H24       1.0  0.8302843335286909  0.13973615170905074  0.3976416138073855  1.0000
  H   H25       1.0  0.8304431031786441  0.14573336237003875  0.06583577427790055  1.0000
  H   H26       1.0  0.8446342579601984  0.9316217631480743  0.19855425791632864  1.0000
  H   H27       1.0  0.8525175457360155  0.8092630575493299  0.3270030077203716  1.0000
  H   H28       1.0  0.8505888242532481  0.8489199739207381  0.49004332445493065  1.0000
  Zn  Zn1       1.0  0.760424247622023  0.05667646445055597  0.015122193904748551  1.0000
  Zn  Zn2       1.0  0.9127313454717437  0.056673968945105686  0.015118933902535707  1.0000
  C   C39       1.0  0.8370224316750371  0.04577539152458755  0.1851529317517046  1.0000
  C   C40       1.0  0.8361348303919486  0.06757620601085712  0.8450883369802613  1.0000
  C   C41       1.0  0.8373690008718818  0.2259083591207971  0.018573141530369704  1.0000
  C   C42       1.0  0.8357882040852899  0.8874421240934908  0.011668129745049384  1.0000
  O   O1        1.0  0.894033180662473  0.06733794229788506  0.879856453275591  1.0000
  O   O2        1.0  0.8947216404899687  0.046011074206826715  0.15038204335676644  1.0000
  O   O3        1.0  0.8950007229518833  0.19147068258629418  0.01586772498422772  1.0000
  O   O4        1.0  0.893754046070874  0.9218783435023006  0.014370702063192346  1.0000
  O   O5        1.0  0.7794014950479465  0.19147208989542833  0.01587042574034569  1.0000
  O   O6        1.0  0.7791224177208997  0.04601359583918453  0.15038474156568482  1.0000
  O   O7        1.0  0.7784339547563929  0.06734047914662057  0.8798580298061941  1.0000
  O   O8        1.0  0.778154820319532  0.9218808707692204  0.014372348174986777  1.0000
