data_image0
_chemical_formula_structural       NC11NC3H8C12OCH12C12NCOCH12Zn2C4O8
_chemical_formula_sum              "N3 C45 H32 O10 Zn2"
_cell_length_a       17.807433833752565
_cell_length_b       10.299790755002418
_cell_length_c       10.299158637457994
_cell_angle_alpha    85.57636928067032
_cell_angle_beta     88.50589662061446
_cell_angle_gamma    90.6669456681986

_space_group_name_H-M_alt    "P 1"
_space_group_IT_number       1

loop_
  _space_group_symop_operation_xyz
  'x, y, z'

loop_
  _atom_site_type_symbol
  _atom_site_label
  _atom_site_symmetry_multiplicity
  _atom_site_fract_x
  _atom_site_fract_y
  _atom_site_fract_z
  _atom_site_occupancy
  N   N1        1.0  0.7074272260167848  0.43794211085600826  0.5345415601418599  1.0000
  C   C1        1.0  0.6566016882981018  0.403239356295835  0.6011070356861712  1.0000
  C   C2        1.0  0.5933695948025053  0.3600719890515305  0.6839059926796984  1.0000
  C   C3        1.0  0.6050854538143068  0.29656596505119315  0.8066301440727769  1.0000
  C   C4        1.0  0.5437608751941654  0.2550775454480416  0.8871450328001761  1.0000
  C   C5        1.0  0.4705660278514983  0.27678211184653995  0.8455765945025905  1.0000
  C   C6        1.0  0.4578734325674413  0.3404425224053722  0.7223922300412629  1.0000
  C   C7        1.0  0.38011064077241125  0.3634762079204715  0.6780430184974158  1.0000
  C   C8        1.0  0.361353810453482  0.3465581442560579  0.5484621100432812  1.0000
  C   C9        1.0  0.288129035518066  0.3682239674135844  0.5068496021960773  1.0000
  C   C10       1.0  0.23271811124037262  0.40712608729019495  0.5939976974046945  1.0000
  C   C11       1.0  0.1573567481755447  0.4294498855104592  0.5510238348472694  1.0000
  N   N2        1.0  0.09677158543346612  0.44739656078129203  0.5164759769825118  1.0000
  C   C12       1.0  0.2507834382629163  0.42425453720120276  0.7230474512552529  1.0000
  C   C13       1.0  0.3239554108046195  0.4025538751010145  0.7649153939553477  1.0000
  C   C14       1.0  0.5200553208688707  0.38192638295275877  0.6418937576496075  1.0000
  H   H1        1.0  0.6615482023986229  0.2791635177299996  0.8399972482230903  1.0000
  H   H2        1.0  0.5529503356225648  0.20565942643403992  0.9818856148332884  1.0000
  H   H3        1.0  0.42392123620951017  0.24224897390758438  0.9090187352377199  1.0000
  H   H4        1.0  0.4030503582106557  0.314892268208143  0.47974679361295225  1.0000
  H   H5        1.0  0.2747083539261013  0.3543078783618852  0.4068147153620636  1.0000
  H   H6        1.0  0.20837041762876138  0.45469721776467753  0.7912480726743111  1.0000
  H   H7        1.0  0.33684742030436277  0.4180152907434629  0.8647674229941007  1.0000
  H   H8        1.0  0.5115640541101306  0.43270692209914113  0.5473874054938213  1.0000
  C   C15       1.0  0.9021705017644531  0.06130331757969998  0.525544397174464  1.0000
  C   C16       1.0  0.8803994213111841  0.04965394237663135  0.6579942634398082  1.0000
  C   C17       1.0  0.8693082381108261  0.9266133710963648  0.7250772322459414  1.0000
  C   C18       1.0  0.8802644635852173  0.8143683492684224  0.6579347396002346  1.0000
  C   C19       1.0  0.9020355108613719  0.8240255085754421  0.525483942348089  1.0000
  C   C20       1.0  0.9128683729958387  0.9479314754570031  0.46003099628275645  1.0000
  C   C21       1.0  0.8462802449824893  0.9153432070863928  0.8652027972302172  1.0000
  C   C22       1.0  0.7914561761055965  0.8231612462208949  0.9128127517865745  1.0000
  C   C23       1.0  0.7698505180800256  0.8128293368601119  0.044555911749488246  1.0000
  C   C24       1.0  0.8025826115952817  0.8939996119517191  0.13038638215324871  1.0000
  C   C25       1.0  0.8576063367315809  0.9867961520087167  0.08463889226889898  1.0000
  C   C26       1.0  0.8789791928064657  0.99676103885769  0.9523798281827258  1.0000
  O   O1        1.0  0.8923169368964079  0.07036789211279504  0.16689777547220985  1.0000
  C   C27       1.0  0.8761855502737095  0.0709998833785348  0.30298403934057516  1.0000
  H   H9        1.0  0.9104990899904198  0.3931945124152146  0.4750950795801463  1.0000
  H   H10       1.0  0.871021443887544  0.13646972183288497  0.7088587836968736  1.0000
  H   H11       1.0  0.8727656376049259  0.7193036150738141  0.7096511916590291  1.0000
  H   H12       1.0  0.929664419921826  0.9561500938092302  0.3578514936142246  1.0000
  H   H13       1.0  0.910293895232102  0.5002529501402216  0.47500024666331897  1.0000
  H   H14       1.0  0.7645975616035466  0.7602575055933245  0.8478486542233559  1.0000
  H   H15       1.0  0.7274148927076968  0.7418402811661261  0.08020414263682119  1.0000
  H   H16       1.0  0.7847602529236575  0.8838515640194131  0.23188116677860326  1.0000
  H   H17       1.0  0.9220207008410367  0.06733911149257053  0.918216360429523  1.0000
  H   H18       1.0  0.8891536915559706  0.9748029523448407  0.3530055172673797  1.0000
  H   H19       1.0  0.9116291706114718  0.1465139253860357  0.3435542825590888  1.0000
  H   H20       1.0  0.8162097598047069  0.09445906030137086  0.3202025876218063  1.0000
  C   C28       1.0  0.9021734533808428  0.44252817088181073  0.1441378442508927  1.0000
  C   C29       1.0  0.9038947790235208  0.579272807706293  0.13273248080688216  1.0000
  C   C30       1.0  0.904708526684848  0.648742654982779  0.009794896272288021  1.0000
  C   C31       1.0  0.9037508993708296  0.579629182521264  0.8974276468013973  1.0000
  C   C32       1.0  0.9020325376800844  0.44280070904087654  0.9068905739006952  1.0000
  C   C33       1.0  0.9012576801079732  0.37509160960893606  0.030632846058676673  1.0000
  C   C34       1.0  0.9065303783005596  0.7934017227520209  0.9987029180702067  1.0000
  C   C35       1.0  0.9526290246988527  0.8623548290746896  0.07912538728118412  1.0000
  C   C36       1.0  0.9543496057754843  0.9984867898499608  0.06855610944762436  1.0000
  C   C37       1.0  0.9104820816206466  0.06840670393895021  0.9764358074648861  1.0000
  C   C38       1.0  0.8634886997879377  0.9997922576806729  0.8978379019750338  1.0000
  C   C39       1.0  0.8617989572105943  0.863688955118534  0.9081447596010701  1.0000
  N   N3        1.0  0.910170394055849  0.20844467653081414  0.9652026495849975  1.0000
  C   C40       1.0  0.974522531969778  0.28899498414989333  0.9854413628922698  1.0000
  O   O2        1.0  0.039304426825729655  0.2411555667614742  0.9909559267838121  1.0000
  C   C41       1.0  0.9656846289742672  0.4325950786245905  0.990441431105491  1.0000
  H   H21       1.0  0.9035570199636437  0.6320816900164583  0.21969439090223733  1.0000
  H   H22       1.0  0.9053702333479531  0.6326819434957744  0.802376266859079  1.0000
  H   H23       1.0  0.8999325531821333  0.2696173388535188  0.03871505288161248  1.0000
  H   H24       1.0  0.89924530468673  0.18453982094804844  0.7174379764089163  1.0000
  H   H25       1.0  0.9877997413506708  0.8109819978176068  0.14969056658165458  1.0000
  H   H26       1.0  0.9890077494681061  0.04866781991310498  0.1339751703873402  1.0000
  H   H27       1.0  0.8283392189922939  0.05204060922662414  0.8278409514109333  1.0000
  H   H28       1.0  0.8246795908921721  0.8134013793753581  0.8465241457063373  1.0000
  H   H29       1.0  0.8614627027819121  0.25471675926140325  0.9325118113661867  1.0000
  H   H30       1.0  0.9128549504850939  0.45302682994054955  0.0443086394442409  1.0000
  H   H31       1.0  0.9636565195363346  0.4792130270020074  0.8898126609835955  1.0000
  H   H32       1.0  0.013606694581870249  0.47452628412826936  0.040869037602740306  1.0000
  Zn  Zn1       1.0  0.8197835968744411  0.4406669889379944  0.5293357080200913  1.0000
  Zn  Zn2       1.0  0.9844151997392656  0.44466106696796515  0.5216924161652641  1.0000
  C   C42       1.0  0.9020584113230535  0.43757549238509724  0.7627144378891  1.0000
  C   C43       1.0  0.9021421827490285  0.44775424578910705  0.2883137301709058  1.0000
  C   C44       1.0  0.9020580975405963  0.6798528596292431  0.5203203153084484  1.0000
  C   C45       1.0  0.9021424406176308  0.20547531691573018  0.5307079247232318  1.0000
  O   O3        1.0  0.964608524344641  0.45101823036621985  0.3337998855718065  1.0000
  O   O4        1.0  0.9645436472283505  0.43734194076721417  0.7114268270483899  1.0000
  O   O5        1.0  0.964542551377939  0.6329839588820407  0.5156918970808346  1.0000
  O   O6        1.0  0.9646095640337838  0.25537622014384787  0.5295347207701973  1.0000
  O   O7        1.0  0.8395891763992377  0.6299518344005408  0.5214934060166072  1.0000
  O   O8        1.0  0.839590271982819  0.4343113765533733  0.7172282666139365  1.0000
  O   O9        1.0  0.8396551494455577  0.44798762034009676  0.33959976370749234  1.0000
  O   O10       1.0  0.8396561891152841  0.25234560086369817  0.5353346962764969  1.0000
