data_image0
_chemical_formula_structural       NC8NH4C6NH7C6IH3Zn2C4O8
_chemical_formula_sum              "N3 C24 H14 I1 Zn2 O8"
_cell_length_a       13.859017981522156
_cell_length_b       9.274771166103582
_cell_length_c       9.275433903346869
_cell_angle_alpha    86.06373460888793
_cell_angle_beta     89.965620414742
_cell_angle_gamma    90.59707920365587

_space_group_name_H-M_alt    "P 1"
_space_group_IT_number       1

loop_
  _space_group_symop_operation_xyz
  'x, y, z'

loop_
  _atom_site_type_symbol
  _atom_site_label
  _atom_site_symmetry_multiplicity
  _atom_site_fract_x
  _atom_site_fract_y
  _atom_site_fract_z
  _atom_site_occupancy
  N   N1        1.0  0.9201201277215278  0.5617190697998393  0.40768681818391506  1.0000
  C   C1        1.0  0.847736564953175  0.5540346633437394  0.3464079274820424  1.0000
  C   C2        1.0  0.7576956940621609  0.544476639232794  0.2701849604382238  1.0000
  C   C3        1.0  0.7574429376325894  0.5258375862385192  0.12154643613737857  1.0000
  C   C4        1.0  0.6699752995661004  0.516556365109285  0.04752413757767648  1.0000
  C   C5        1.0  0.5825776737770311  0.5258393063899343  0.12154618477816781  1.0000
  C   C6        1.0  0.5824654640218717  0.5444776107941509  0.27018477493470966  1.0000
  C   C7        1.0  0.6701157830600243  0.5537950732327446  0.3444928977529271  1.0000
  C   C8        1.0  0.4924967545690301  0.5540355647728452  0.34640768549088524  1.0000
  N   N2        1.0  0.4201712142733068  0.5617193823676607  0.40768672404047224  1.0000
  H   H1        1.0  0.8247107542352673  0.5185029938018633  0.0630587453567375  1.0000
  H   H2        1.0  0.6699209656726465  0.5021587576414412  0.9327072727788643  1.0000
  H   H3        1.0  0.5152545062544469  0.5185060878638958  0.06305831988910793  1.0000
  H   H4        1.0  0.6701702179208854  0.5682217266054208  0.4595431932597174  1.0000
  C   C9        1.0  0.16718771887632267  0.1381310423526172  0.4084721794276521  1.0000
  C   C10       1.0  0.14502641988714407  0.22006875814413315  0.27961401509386863  1.0000
  C   C11       1.0  0.13187420282458673  0.153639644409731  0.14993829966609934  1.0000
  C   C12       1.0  0.14093417571964073  0.0038853484813232775  0.1481814952201059  1.0000
  C   C13       1.0  0.16131180562256495  0.9206093695708361  0.2752695254327282  1.0000
  C   C14       1.0  0.17311279743032576  0.9852965050947018  0.4069138660095923  1.0000
  N   N3        1.0  0.1103061882680756  0.23866179027467838  0.019663909266448783  1.0000
  H   H5        1.0  0.27567517280870013  0.22114674102002493  0.7238277397096757  1.0000
  H   H6        1.0  0.14016150383746995  0.33665557370166765  0.279060507234439  1.0000
  H   H7        1.0  0.13127154992148848  0.9513365645851595  0.04840911511958779  1.0000
  H   H8        1.0  0.1655654267664009  0.8044014488928422  0.27114271752526364  1.0000
  H   H9        1.0  0.24227197655213262  0.6905130379901372  0.6214673051670816  1.0000
  H   H10       1.0  0.10365822794641533  0.35073518900636413  0.01961710892610857  1.0000
  H   H11       1.0  0.10073362631928306  0.19015542735526964  0.9222612419333487  1.0000
  C   C15       1.0  0.17028812234446966  0.5572116082168144  0.9845489613460682  1.0000
  C   C16       1.0  0.259151664596464  0.5545112356767823  0.05800877292737994  1.0000
  C   C17       1.0  0.3461502649263142  0.5651030012095666  0.9818705277427057  1.0000
  C   C18       1.0  0.34568004747928316  0.5787319040236052  0.8312998141474908  1.0000
  C   C19       1.0  0.2584361003566136  0.5792519418163709  0.7563234914174605  1.0000
  C   C20       1.0  0.17001236900850206  0.5662158559945543  0.8308370217287631  1.0000
  I   I1        1.0  0.4783035157007156  0.5631882225615237  0.09465841190872992  1.0000
  H   H12       1.0  0.9408763191080813  0.6426675679015525  0.08188143199988751  1.0000
  H   H13       1.0  0.4130371922804046  0.5875495838593849  0.7720726464681145  1.0000
  H   H14       1.0  0.015034733246584999  0.6176842296889649  0.5462668572925761  1.0000
  Zn  Zn1       1.0  0.06442404594484485  0.5617153966203663  0.40769511543414727  1.0000
  Zn  Zn2       1.0  0.2758672125986201  0.5617114118610396  0.40769023822970585  1.0000
  C   C21       1.0  0.17002215630912826  0.5587674675749275  0.6708810530243201  1.0000
  C   C22       1.0  0.1702714238702745  0.5646611623902511  0.1445044386674983  1.0000
  C   C23       1.0  0.17198972408946145  0.8251030744593542  0.4014663358826214  1.0000
  C   C24       1.0  0.16830377179330827  0.2983238232891121  0.4139192358217712  1.0000
  O   O1        1.0  0.2505073554966537  0.5671534956622042  0.19818511877001765  1.0000
  O   O2        1.0  0.25026668823554044  0.556271017367095  0.6171962584410596  1.0000
  O   O3        1.0  0.25185444191838746  0.7713404041616716  0.39964196546132924  1.0000
  O   O4        1.0  0.2489195297699485  0.3520841180381513  0.4157393036913475  1.0000
  O   O5        1.0  0.09137165661835424  0.7713426904461039  0.3996460499665875  1.0000
  O   O6        1.0  0.08978391507697725  0.5562750358710893  0.6172002629278255  1.0000
  O   O7        1.0  0.09002458261517776  0.5671574454674941  0.19818739091280912  1.0000
  O   O8        1.0  0.08843675677716867  0.35208805867576665  0.41574168388662147  1.0000
