data_image0
_chemical_formula_structural       NC9NC5H8C6NO2H5C12H10Zn2C4O8
_chemical_formula_sum              "N3 C36 H23 O10 Zn2"
_cell_length_a       17.807436237873137
_cell_length_b       9.273392599741051
_cell_length_c       10.299141136925906
_cell_angle_alpha    85.66774758485903
_cell_angle_beta     89.41385425082623
_cell_angle_gamma    87.79638846343423

_space_group_name_H-M_alt    "P 1"
_space_group_IT_number       1

loop_
  _space_group_symop_operation_xyz
  'x, y, z'

loop_
  _atom_site_type_symbol
  _atom_site_label
  _atom_site_symmetry_multiplicity
  _atom_site_fract_x
  _atom_site_fract_y
  _atom_site_fract_z
  _atom_site_occupancy
  N   N1        1.0  0.6987508636214105  0.542097838133516  0.5601583147465374  1.0000
  C   C1        1.0  0.6383722186700341  0.5030106745100653  0.5490547144953695  1.0000
  C   C2        1.0  0.5632678204756978  0.45439054747194985  0.5352430415212359  1.0000
  C   C3        1.0  0.5455817202365569  0.37509415127022466  0.4300734845346208  1.0000
  C   C4        1.0  0.47265986938789867  0.3277639259118865  0.41658035772750246  1.0000
  C   C5        1.0  0.416377660598532  0.3593107244876107  0.5082234865856738  1.0000
  C   C6        1.0  0.33887985938111687  0.3091385131029418  0.4939661243552111  1.0000
  C   C7        1.0  0.2762182789555921  0.3999494706296405  0.5200901829371833  1.0000
  C   C8        1.0  0.2031553458728147  0.35239369329139003  0.5066102821752447  1.0000
  C   C9        1.0  0.1394275920700507  0.4461942472298599  0.5331043088712633  1.0000
  N   N2        1.0  0.0882035012343746  0.5216034027260037  0.5544047666847975  1.0000
  C   C10       1.0  0.1921719922098546  0.2137403869552188  0.46698039227440974  1.0000
  C   C11       1.0  0.25397628412807977  0.12291404430491622  0.4408479123824174  1.0000
  C   C12       1.0  0.3269221094265498  0.1700316101993926  0.45412437658588306  1.0000
  C   C13       1.0  0.43475224526763784  0.43915621861090415  0.6136133965422792  1.0000
  C   C14       1.0  0.5077280760159454  0.4862749952588816  0.6269504356436522  1.0000
  H   H1        1.0  0.588095553987541  0.3501406741507983  0.35830589534021695  1.0000
  H   H2        1.0  0.46005109207877753  0.2681586639241629  0.33353433986098113  1.0000
  H   H3        1.0  0.2841368223503333  0.5082096238040983  0.5491878048346011  1.0000
  H   H4        1.0  0.1359090196854176  0.17593466017220252  0.45630844789550146  1.0000
  H   H5        1.0  0.2453541998921822  0.015565318445608604  0.41055164781092746  1.0000
  H   H6        1.0  0.373953552187942  0.09700447268356682  0.4349272079374209  1.0000
  H   H7        1.0  0.39295882106620666  0.46351044417277937  0.6866743522455556  1.0000
  H   H8        1.0  0.5208576369131851  0.5472365151046725  0.7089575041674645  1.0000
  C   C15       1.0  0.8957713914072182  0.1082015038947606  0.5564309755260151  1.0000
  C   C16       1.0  0.8861748737140902  0.19207927601815822  0.4379347345035967  1.0000
  C   C17       1.0  0.8699475671594649  0.12786287416138675  0.32384130405167544  1.0000
  C   C18       1.0  0.8627797174583626  0.9778237851493604  0.32506287229270203  1.0000
  C   C19       1.0  0.873548232027935  0.8927161712816261  0.4426361474085705  1.0000
  C   C20       1.0  0.8911902149086364  0.9554882550049084  0.5581432239632693  1.0000
  N   N3        1.0  0.8453822020110372  0.9122523854000626  0.20717850958315176  1.0000
  O   O1        1.0  0.8354958454118669  0.9958963894975836  0.09202320856783452  1.0000
  O   O2        1.0  0.8387647099496193  0.7786673248384126  0.20748361052303  1.0000
  H   H9        1.0  0.880539755618673  0.1854126859396673  0.8754113324127479  1.0000
  H   H10       1.0  0.8894591644277228  0.3087496708304285  0.43404908214806803  1.0000
  H   H11       1.0  0.8622489085291566  0.19620502534459888  0.2346934179739444  1.0000
  H   H12       1.0  0.8699187188645944  0.7763048154388559  0.4436142461303217  1.0000
  H   H13       1.0  0.8834952668329068  0.6577605189153524  0.773684736470095  1.0000
  C   C21       1.0  0.8933947203005189  0.5319725136245612  0.17589562514668833  1.0000
  C   C22       1.0  0.9718050377626313  0.5433790112419068  0.17295215198722325  1.0000
  C   C23       1.0  0.011650822792506068  0.5490314316796335  0.054324421477622176  1.0000
  C   C24       1.0  0.9720264203994324  0.5431234731196206  0.9376827033100931  1.0000
  C   C25       1.0  0.8935669065737986  0.531717272588951  0.9386786317392809  1.0000
  C   C26       1.0  0.8547341785098961  0.5262096476503211  0.05822401392309672  1.0000
  C   C27       1.0  0.09460103952915609  0.5611001758297361  0.05225529032877629  1.0000
  C   C28       1.0  0.13975038038975174  0.47985758141532653  0.9692117760899848  1.0000
  C   C29       1.0  0.21782037965527043  0.4913970652646416  0.9675025879650843  1.0000
  C   C30       1.0  0.2516448631302104  0.5839447676682847  0.048344128186341484  1.0000
  C   C31       1.0  0.20746773205218094  0.665145767749229  0.1311286174160815  1.0000
  C   C32       1.0  0.12937608506182885  0.6539690218283225  0.13330864382477925  1.0000
  H   H14       1.0  0.8632286451270564  0.5276584770023498  0.5044987112495318  1.0000
  H   H15       1.0  0.0021909258980818964  0.5458971428161052  0.2632636341576804  1.0000
  H   H16       1.0  0.002333652838096613  0.5494261852661315  0.8458244651669856  1.0000
  H   H17       1.0  0.7942542879951052  0.517415574125176  0.059778478795254664  1.0000
  H   H18       1.0  0.7454248947639223  0.511106421203625  0.7332056684914825  1.0000
  H   H19       1.0  0.11478885587630104  0.4061008453322586  0.9069234191164086  1.0000
  H   H20       1.0  0.25213422326695967  0.42822238284993663  0.9036478916690037  1.0000
  H   H21       1.0  0.31208455042218985  0.5927365286399648  0.04683904149745177  1.0000
  H   H22       1.0  0.23372908886225763  0.7371317730197975  0.19347467732342194  1.0000
  H   H23       1.0  0.0961341607790136  0.7192585850421225  0.19704759493924828  1.0000
  Zn  Zn1       1.0  0.8111385035124646  0.5361797348047317  0.5585054685169704  1.0000
  Zn  Zn2       1.0  0.9758159091398632  0.5275097426841358  0.5560682663929797  1.0000
  C   C33       1.0  0.8935637384966564  0.5260183594506188  0.7944846961303745  1.0000
  C   C34       1.0  0.8933924626145375  0.5376728436027927  0.320089143317998  1.0000
  C   C35       1.0  0.8920511169746561  0.7953349858755929  0.5526441740931198  1.0000
  C   C36       1.0  0.894905037330936  0.2683544868293968  0.5619297319268468  1.0000
  O   O3        1.0  0.9558859561567724  0.5362894157236553  0.36755688701664235  1.0000
  O   O4        1.0  0.9560565912499586  0.5208203757069848  0.745166796345061  1.0000
  O   O5        1.0  0.9548342880940985  0.7382970014205743  0.5498788792379738  1.0000
  O   O6        1.0  0.9571082030416099  0.31881280332130246  0.5628447075958061  1.0000
  O   O7        1.0  0.8298461534143918  0.7448766771277804  0.5517290281390133  1.0000
  O   O8        1.0  0.831068447179527  0.5274017847228278  0.7470168794993761  1.0000
  O   O9        1.0  0.830897812055706  0.5428707749861424  0.36940540857551407  1.0000
  O   O10       1.0  0.8321200590152394  0.32539415223276835  0.5646933265074705  1.0000
