data_image0
_chemical_formula_structural       NC8NH4C7NH5C6NH7Zn2C4O8
_chemical_formula_sum              "N4 C25 H16 Zn2 O8"
_cell_length_a       13.859017981522156
_cell_length_b       9.275154477615127
_cell_length_c       9.274774538082514
_cell_angle_alpha    85.29330631285735
_cell_angle_beta     90.34966334456435
_cell_angle_gamma    89.43373755438122

_space_group_name_H-M_alt    "P 1"
_space_group_IT_number       1

loop_
  _space_group_symop_operation_xyz
  'x, y, z'

loop_
  _atom_site_type_symbol
  _atom_site_label
  _atom_site_symmetry_multiplicity
  _atom_site_fract_x
  _atom_site_fract_y
  _atom_site_fract_z
  _atom_site_occupancy
  N   N1        1.0  0.8915859110232308  0.5916848678795508  0.4143674440805427  1.0000
  C   C1        1.0  0.8190234616123996  0.5851902582700017  0.35295252653856335  1.0000
  C   C2        1.0  0.7287600738911122  0.5771121864279729  0.27656036199458356  1.0000
  C   C3        1.0  0.7280734046570352  0.5613591131823872  0.12759189173424446  1.0000
  C   C4        1.0  0.6403896626353334  0.553515115478451  0.053405285576487695  1.0000
  C   C5        1.0  0.5532081163136668  0.5613608372687569  0.12759164997591377  1.0000
  C   C6        1.0  0.553529829818714  0.5771131610541307  0.2765601818487824  1.0000
  C   C7        1.0  0.6413970817884261  0.5849878502608366  0.35103324905034405  1.0000
  C   C8        1.0  0.46378363788623495  0.5851911638947087  0.3529522894140765  1.0000
  N   N2        1.0  0.3916369929014274  0.5916851821001903  0.4143673516093287  1.0000
  H   H1        1.0  0.795170485513594  0.5551601234957557  0.06897436883421126  1.0000
  H   H2        1.0  0.6400001462571534  0.5413468030563946  0.9383335532221871  1.0000
  H   H3        1.0  0.4857141936093278  0.5551632241199005  0.06897396067561279  1.0000
  H   H4        1.0  0.6417873836405259  0.597180676396823  0.46633892896874407  1.0000
  C   C9        1.0  0.1444013139938629  0.1683102752765566  0.4126973726239578  1.0000
  C   C10       1.0  0.1173891220583716  0.25259648007911917  0.28545270949518153  1.0000
  C   C11       1.0  0.08255653457359835  0.18760652301262448  0.1649483876968327  1.0000
  C   C12       1.0  0.07416494539299115  0.037439693905903404  0.17026952937390472  1.0000
  C   C13       1.0  0.10205940633885202  0.9519710510226004  0.29461375144460716  1.0000
  C   C14       1.0  0.13883096109126258  0.015048619688326388  0.4160498947829747  1.0000
  C   C15       1.0  0.0542542911765036  0.27548788314801653  0.036170094753663846  1.0000
  N   N3        1.0  0.031507126705769405  0.3461283036529885  0.9326653334903371  1.0000
  H   H5        1.0  0.16457787562540616  0.24189908988931613  0.7669445722549937  1.0000
  H   H6        1.0  0.12131191126734332  0.36959314091366924  0.2811706264998705  1.0000
  H   H7        1.0  0.04687978196028819  0.9861189312463867  0.07765438990027283  1.0000
  H   H8        1.0  0.09699217115190972  0.8355045565522295  0.2944867451196922  1.0000
  H   H9        1.0  0.15650611919733515  0.7142131867411561  0.6534055941643635  1.0000
  C   C16       1.0  0.13986023904899672  0.5953668846860845  0.9905718972313812  1.0000
  C   C17       1.0  0.20767081367689522  0.680446414415673  0.057645244333418555  1.0000
  C   C18       1.0  0.279888307066017  0.7536497835970275  0.9771701431011302  1.0000
  C   C19       1.0  0.284881839339833  0.742105626918542  0.8281470202064924  1.0000
  C   C20       1.0  0.21735993690439903  0.6602020938493844  0.7593836851391869  1.0000
  C   C21       1.0  0.14337202230123036  0.5879919485741709  0.838175323361606  1.0000
  N   N4        1.0  0.34880790221282165  0.8385287373956363  0.04724794095704497  1.0000
  H   H10       1.0  0.997486794309209  0.3135330255366571  0.11537638526954018  1.0000
  H   H11       1.0  0.20588898096652675  0.6872841658904693  0.17369244667054096  1.0000
  H   H12       1.0  0.3406445351166526  0.7978085089337126  0.7648367797865832  1.0000
  H   H13       1.0  0.22168895388730286  0.65619174298386  0.6431947564977869  1.0000
  H   H14       1.0  0.04448626859730198  0.40255598881780624  0.5713593719205172  1.0000
  H   H15       1.0  0.345946487071666  0.8475698010772408  0.15865366060719577  1.0000
  H   H16       1.0  0.4031853691845797  0.893097864799976  0.988221896650021  1.0000
  Zn  Zn1       1.0  0.03588991738894819  0.5916810361440508  0.4143757324120709  1.0000
  Zn  Zn2       1.0  0.247333115547697  0.5916771479016452  0.4143708248185518  1.0000
  C   C22       1.0  0.1427438573107891  0.5836424683345789  0.6779373882044639  1.0000
  C   C23       1.0  0.1404814731987092  0.599717533541128  0.1508093178238567  1.0000
  C   C24       1.0  0.13985507802644626  0.8550470682845408  0.4096651768168672  1.0000
  C   C25       1.0  0.14337019204626603  0.32831120076129583  0.41908159929743416  1.0000
  O   O1        1.0  0.22093159818822805  0.6011698856796834  0.20458457265235852  1.0000
  O   O2        1.0  0.2227742326950462  0.5821860810909156  0.624157988877978  1.0000
  O   O3        1.0  0.22044043141171385  0.8013487148932286  0.4075262860725215  1.0000
  O   O4        1.0  0.22326532680414027  0.3820072631337026  0.42121616729131794  1.0000
  O   O5        1.0  0.05995763397727718  0.8013509209149561  0.40753038993339424  1.0000
  O   O6        1.0  0.06229142354216789  0.5821900199454753  0.6241620226469604  1.0000
  O   O7        1.0  0.060448782241047994  0.6011737893907234  0.2045868710933596  1.0000
  O   O8        1.0  0.06278251136915226  0.3820111555913728  0.4212185738929061  1.0000
