data_image0
_chemical_formula_structural       NC8NH4C6ClH5C6NCH8Zn2C4O8
_chemical_formula_sum              "N3 C25 H17 Cl1 Zn2 O8"
_cell_length_a       14.927258825633057
_cell_length_b       9.276545438789551
_cell_length_c       9.274690524155615
_cell_angle_alpha    86.08901854457557
_cell_angle_beta     89.68735870548748
_cell_angle_gamma    89.40960858786079

_space_group_name_H-M_alt    "P 1"
_space_group_IT_number       1

loop_
  _space_group_symop_operation_xyz
  'x, y, z'

loop_
  _atom_site_type_symbol
  _atom_site_label
  _atom_site_symmetry_multiplicity
  _atom_site_fract_x
  _atom_site_fract_y
  _atom_site_fract_z
  _atom_site_occupancy
  N   N1        1.0  0.8389391075625913  0.5641995372334626  0.41110368917293116  1.0000
  C   C1        1.0  0.7614126833511949  0.5641995108692976  0.4111036988087686  1.0000
  C   C2        1.0  0.6649800414174782  0.5641995110599936  0.4111037538853848  1.0000
  C   C3        1.0  0.6188025855884628  0.4751130273895848  0.3213208273539938  1.0000
  C   C4        1.0  0.5250912747059564  0.4751129373207866  0.3213207988393043  1.0000
  C   C5        1.0  0.47716404397160417  0.5641995633306107  0.41110366610606364  1.0000
  C   C6        1.0  0.5233415001106522  0.6532860563719103  0.5008864845829855  1.0000
  C   C7        1.0  0.6170528779846934  0.6532861464377948  0.5008865131035972  1.0000
  C   C8        1.0  0.3807314030425778  0.5641994652435693  0.41110361111556704  1.0000
  N   N2        1.0  0.3032049781365235  0.564199546528033  0.4111036227640481  1.0000
  H   H1        1.0  0.6551794075659332  0.40579851975006265  0.2514646904084723  1.0000
  H   H2        1.0  0.49007575149967714  0.40579849692690595  0.2514647876170293  1.0000
  H   H3        1.0  0.4869646781331818  0.7226005640114328  0.570742621528507  1.0000
  H   H4        1.0  0.6520683338894053  0.7226005774636983  0.5707426323744191  1.0000
  C   C9        1.0  0.07378085260646206  0.14076230392471123  0.4108660794806045  1.0000
  C   C10       1.0  0.0745697981964577  0.22325341938070253  0.2778341562855893  1.0000
  C   C11       1.0  0.06719871562659963  0.15703893074268316  0.1476976970763053  1.0000
  C   C12       1.0  0.0588604913340276  0.0074555809070755395  0.1485910435737885  1.0000
  C   C13       1.0  0.059461923453316676  0.9234047517338344  0.2791811640579518  1.0000
  C   C14       1.0  0.06837187329349037  0.9876257855216785  0.4113537371595206  1.0000
  Cl  Cl1       1.0  0.06706102920311552  0.26222511318957253  0.983152192627878  1.0000
  H   H5        1.0  0.11883149310287931  0.4056978176758994  0.6374670994560627  1.0000
  H   H6        1.0  0.07877710186736575  0.33994909465804835  0.27498057006084453  1.0000
  H   H7        1.0  0.05276600062420746  0.9558558029752794  0.0479097081066413  1.0000
  H   H8        1.0  0.055091224153581475  0.8071211694663095  0.2765308429175474  1.0000
  H   H9        1.0  0.03755308971838156  0.6909230738965962  0.6444159443401241  1.0000
  C   C15       1.0  0.07253434528667402  0.5605022401246893  0.987860482024529  1.0000
  C   C16       1.0  0.14491889470158825  0.6228774454161927  0.05663376664687436  1.0000
  C   C17       1.0  0.21262684419113254  0.6961731641353912  0.9761781704080112  1.0000
  C   C18       1.0  0.20725129427490163  0.7068242879144482  0.8252878430192805  1.0000
  C   C19       1.0  0.13678389675244063  0.6435900053876578  0.755303378421555  1.0000
  C   C20       1.0  0.06961832570782844  0.5678857996412197  0.8343592803739622  1.0000
  N   N3        1.0  0.28676005570246743  0.7616098495634804  0.04493763636840864  1.0000
  C   C21       1.0  0.2989502490959855  0.7565339202773713  0.201216260579111  1.0000
  H   H10       1.0  0.9713910776269574  0.3866898745756271  0.2807591795706035  1.0000
  H   H11       1.0  0.2584913487978413  0.7632696138304799  0.7612617833421771  1.0000
  H   H12       1.0  0.13605728855015897  0.6510297208660594  0.6382349474802127  1.0000
  H   H13       1.0  0.9284816655650258  0.5002388009936976  0.5588821540314037  1.0000
  H   H14       1.0  0.3351561614635479  0.8155475391016073  0.9803345450725551  1.0000
  H   H15       1.0  0.36127925626719937  0.8136682577628274  0.22692747153384982  1.0000
  H   H16       1.0  0.3046920337061467  0.6425398708170841  0.24537527129289602  1.0000
  H   H17       1.0  0.2414689984145595  0.8105912133109643  0.25244940705798147  1.0000
  Zn  Zn1       1.0  0.9729162137601387  0.5641957411270575  0.41111199947494037  1.0000
  Zn  Zn2       1.0  0.16922791987081595  0.5641916083026095  0.4111071409659386  1.0000
  C   C22       1.0  0.07020423300971212  0.5607457751016963  0.6743496070224095  1.0000
  C   C23       1.0  0.07194203223113728  0.5676433948905042  0.14786967587739341  1.0000
  C   C24       1.0  0.0694094419305864  0.8275004302728171  0.40551805914802963  1.0000
  C   C25       1.0  0.07273676712321975  0.30088700797336143  0.4167012995980197  1.0000
  O   O1        1.0  0.14624255612026849  0.5700321725572686  0.20156837563525465  1.0000
  O   O2        1.0  0.14489976009199146  0.5583527693033263  0.62064680424185  1.0000
  O   O3        1.0  0.1442569467957311  0.7737605400203618  0.4035634281936815  1.0000
  O   O4        1.0  0.1468853027350272  0.35462441121403826  0.4186516436230321  1.0000
  O   O5        1.0  0.9952587639043929  0.7737629382185429  0.4035674968119247  1.0000
  O   O6        1.0  0.9959015663961617  0.5583568992504426  0.6206507970079249  1.0000
  O   O7        1.0  0.9972443687742754  0.5700362371413832  0.2015706355045359  1.0000
  O   O8        1.0  0.997887115079001  0.3546284664272619  0.4186540115467825  1.0000
