data_image0
_chemical_formula_structural       NC5NC3H4C7NH5C6BrH3Zn2C4O8
_chemical_formula_sum              "N3 C25 H12 Br1 Zn2 O8"
_cell_length_a       13.859018345313864
_cell_length_b       9.275154477615127
_cell_length_c       9.275428193871798
_cell_angle_alpha    86.39200360318996
_cell_angle_beta     89.94092420878668
_cell_angle_gamma    89.43370600770291

_space_group_name_H-M_alt    "P 1"
_space_group_IT_number       1

loop_
  _space_group_symop_operation_xyz
  'x, y, z'

loop_
  _atom_site_type_symbol
  _atom_site_label
  _atom_site_symmetry_multiplicity
  _atom_site_fract_x
  _atom_site_fract_y
  _atom_site_fract_z
  _atom_site_occupancy
  N   N1        1.0  0.8993566457415925  0.561103799866925  0.41672576304947007  1.0000
  C   C1        1.0  0.8272247810094485  0.522112616287854  0.46780767814795676  1.0000
  C   C2        1.0  0.7374969599555163  0.47361280697102437  0.531346785940906  1.0000
  C   C3        1.0  0.6496117935638295  0.5208944443701788  0.46940393818936577  1.0000
  C   C4        1.0  0.5622666575022074  0.4736125152514837  0.5313466592766877  1.0000
  C   C5        1.0  0.4719849022039641  0.5221125025912657  0.46780758041820203  1.0000
  N   N2        1.0  0.3994077434608228  0.5611037652435245  0.4167256939095032  1.0000
  C   C6        1.0  0.5629892471031586  0.3790349671215291  0.6552507618055223  1.0000
  C   C7        1.0  0.6506908328037762  0.33193533895655936  0.7169552388441699  1.0000
  C   C8        1.0  0.7378545885487432  0.37903526438473306  0.655250966571155  1.0000
  H   H1        1.0  0.6491936960930046  0.5941000466655221  0.37349883024422126  1.0000
  H   H2        1.0  0.49590629766063715  0.3418194768822205  0.7040055824703746  1.0000
  H   H3        1.0  0.6511080185288007  0.258878359306121  0.8126658335808176  1.0000
  H   H4        1.0  0.8053625554980931  0.34182001124481504  0.7040060097485192  1.0000
  C   C9        1.0  0.15218022800767647  0.13769678828697507  0.4150582098454507  1.0000
  C   C10       1.0  0.12579162807366573  0.21952898963021017  0.28800278487927344  1.0000
  C   C11       1.0  0.09154960017628633  0.15221502905210893  0.16767767575166248  1.0000
  C   C12       1.0  0.08313193370447491  0.002150829846924381  0.1729909025326708  1.0000
  C   C13       1.0  0.1104170169021439  0.9190802521173677  0.297150200178701  1.0000
  C   C14       1.0  0.1465934454231609  0.9844997936856722  0.4184057452795047  1.0000
  C   C15       1.0  0.06387846470959332  0.23761280939268928  0.039090901652620635  1.0000
  N   N3        1.0  0.04163854935804777  0.30625706790538393  0.9357400724829414  1.0000
  H   H5        1.0  0.17062072017385388  0.21811755681115108  0.7687785658172237  1.0000
  H   H6        1.0  0.12973540252338545  0.33644306344428215  0.2837270708533064  1.0000
  H   H7        1.0  0.05630065241499448  0.9490439249590812  0.0805134991816907  1.0000
  H   H8        1.0  0.10535040424423503  0.8026113124301532  0.29702338205017353  1.0000
  H   H9        1.0  0.1631053875228774  0.688241960720869  0.6554084449912811  1.0000
  C   C16       1.0  0.14970787514485062  0.5566123381798347  0.9935605307273936  1.0000
  C   C17       1.0  0.2385735370593711  0.5592966008486862  0.066616457883939  1.0000
  C   C18       1.0  0.32504685103674413  0.5751387220486408  0.9901423388810556  1.0000
  C   C19       1.0  0.32401609781885243  0.5887167298598396  0.8396387710213328  1.0000
  C   C20       1.0  0.2368503739417771  0.583952349371294  0.7650674741501735  1.0000
  C   C21       1.0  0.14906581879678082  0.5655842323149656  0.8399033865974168  1.0000
  Br  Br1       1.0  0.44464531566519566  0.5806508531298613  0.09172804933404333  1.0000
  H   H10       1.0  0.9171098768406762  0.6280573348965117  0.09240833331029097  1.0000
  H   H11       1.0  0.3909238877583122  0.6016015834950623  0.7801098313896309  1.0000
  H   H12       1.0  0.9921820066432397  0.6075873878969702  0.5563333385106239  1.0000
  Zn  Zn1       1.0  0.04366060848045472  0.5611000080160102  0.41673405873242797  1.0000
  Zn  Zn2       1.0  0.2551038262824747  0.5610958493487541  0.4167291872711514  1.0000
  C   C22       1.0  0.1492229022819429  0.558144371109098  0.6799037527797906  1.0000
  C   C23       1.0  0.14954382932457566  0.5640533069534628  0.15355964180050474  1.0000
  C   C24       1.0  0.1476488521008463  0.8243751064953062  0.4120305229854  1.0000
  C   C25       1.0  0.15111781872541497  0.29782084008910453  0.4214329415766336  1.0000
  O   O1        1.0  0.22973041475910683  0.5665426955819823  0.20725493152636318  1.0000
  O   O2        1.0  0.22951683418704705  0.555650734034048  0.6262043466037457  1.0000
  O   O3        1.0  0.22824468592732394  0.7706354357110394  0.4098948242486506  1.0000
  O   O4        1.0  0.23100249088150496  0.3515580030752965  0.4235643458758189  1.0000
  O   O5        1.0  0.06776187172622739  0.7706378542923764  0.4098989001218494  1.0000
  O   O6        1.0  0.06903400861101014  0.5556548840964424  0.6262083524892947  1.0000
  O   O7        1.0  0.06924759089313803  0.5665467770335268  0.20725720466475803  1.0000
  O   O8        1.0  0.07051966699766285  0.3515620753594435  0.4235667270139418  1.0000
