data_image0
_chemical_formula_structural       NC8NH4C10H5C6BrH3Zn2C4O8
_chemical_formula_sum              "N2 C28 H12 Br1 Zn2 O8"
_cell_length_a       14.927258825633057
_cell_length_b       9.275150299802176
_cell_length_c       9.2754281938718
_cell_angle_alpha    85.84136921910526
_cell_angle_beta     89.94092440913882
_cell_angle_gamma    89.48389196497259

_space_group_name_H-M_alt    "P 1"
_space_group_IT_number       1

loop_
  _space_group_symop_operation_xyz
  'x, y, z'

loop_
  _atom_site_type_symbol
  _atom_site_label
  _atom_site_symmetry_multiplicity
  _atom_site_fract_x
  _atom_site_fract_y
  _atom_site_fract_z
  _atom_site_occupancy
  N   N1        1.0  0.8358494747150037  0.5621103721570204  0.40168354960785635  1.0000
  C   C1        1.0  0.7583230505087183  0.5621103457958678  0.40168355940644207  1.0000
  C   C2        1.0  0.6618904087260258  0.5621103460901162  0.40168361446909717  1.0000
  C   C3        1.0  0.615395091443304  0.4728042577503237  0.31247898827456  1.0000
  C   C4        1.0  0.521683780409974  0.4728041675764314  0.3124789603301146  1.0000
  C   C5        1.0  0.47407441108189824  0.5621103982257787  0.40168352638302496  1.0000
  C   C6        1.0  0.5205697283862263  0.6514164957388788  0.49088804448950113  1.0000
  C   C7        1.0  0.6142811064111048  0.651416585909867  0.49088807243988586  1.0000
  C   C8        1.0  0.37764176992305043  0.5621102999793288  0.40168347201908716  1.0000
  N   N2        1.0  0.30011534511452664  0.5621103813321822  0.4016834831562044  1.0000
  H   H1        1.0  0.6515245992414349  0.40331888526051163  0.24307280284159827  1.0000
  H   H2        1.0  0.48642094342303527  0.4033188626068698  0.2430729001704437  1.0000
  H   H3        1.0  0.48444022058809516  0.7209018682286914  0.5602942299224625  1.0000
  H   H4        1.0  0.6495438763848889  0.7209018817090249  0.5602942406816789  1.0000
  C   C9        1.0  0.07034872195697628  0.1384303951969763  0.40409578799962886  1.0000
  C   C10       1.0  0.11753593947852137  0.21932672262670194  0.2950832923825745  1.0000
  C   C11       1.0  0.15704424756416846  0.15196269564458675  0.18053092468760323  1.0000
  C   C12       1.0  0.14976645891733553  0.0027208073794837634  0.17351556596548345  1.0000
  C   C13       1.0  0.10453548847934613  0.9203737734880728  0.28188047181984843  1.0000
  C   C14       1.0  0.06562471403580392  0.9857793133801296  0.39928380765792504  1.0000
  C   C15       1.0  0.204244087474452  0.23657473562041262  0.06902596938744998  1.0000
  C   C16       1.0  0.24376227846913467  0.30743999210011724  0.9756730810541597  1.0000
  C   C17       1.0  0.29003624647469195  0.3904281923241075  0.8663609201362057  1.0000
  C   C18       1.0  0.32954681792454393  0.46128815637560594  0.7730259268954369  1.0000
  H   H5        1.0  0.12183863620601754  0.33579868629358733  0.29730928785081456  1.0000
  H   H6        1.0  0.17985840070358572  0.9496359154556192  0.0848761015713164  1.0000
  H   H7        1.0  0.10180014884361777  0.804307760301372  0.2756595389542633  1.0000
  H   H8        1.0  0.007174560010467125  0.8589380573910729  0.7416374962996077  1.0000
  H   H9        1.0  0.36424039550995313  0.5235092225065536  0.6910700938508612  1.0000
  C   C19       1.0  0.06828234548672583  0.5576160348313594  0.9785615951779825  1.0000
  C   C20       1.0  0.15078997535878133  0.5603020353001151  0.05159165772768626  1.0000
  C   C21       1.0  0.23108365528055153  0.5761543774524707  0.9749648899112473  1.0000
  C   C22       1.0  0.23013408987138728  0.5897411394112282  0.8243304894425032  1.0000
  C   C23       1.0  0.14920360791986909  0.5849736801328609  0.7498051004151843  1.0000
  C   C24       1.0  0.06769114215629467  0.5665937134180035  0.824818001228989  1.0000
  Br  Br1       1.0  0.3421263002877546  0.581670072038059  0.07649748745510142  1.0000
  H   H10       1.0  0.8523688377404933  0.629107075971939  0.07672098061231436  1.0000
  H   H11       1.0  0.2922607978237859  0.6026343057657417  0.7646773961345368  1.0000
  H   H12       1.0  0.9220573831731638  0.6086239373082971  0.5408432265267783  1.0000
  Zn  Zn1       1.0  0.9698266006121522  0.5621065894866208  0.40169188173872405  1.0000
  Zn  Zn2       1.0  0.1661382900775199  0.5621024451721794  0.4016870502184773  1.0000
  C   C25       1.0  0.06783291642920952  0.5591490554783523  0.6648900551338377  1.0000
  C   C26       1.0  0.06813410773035855  0.5650618010522988  0.1384890078565144  1.0000
  C   C27       1.0  0.06651707504190599  0.8255514392801648  0.39445152545507356  1.0000
  C   C28       1.0  0.06944989174032011  0.2986576846559852  0.4089276242008929  1.0000
  O   O1        1.0  0.14258365594124833  0.5675528011392172  0.1921603107143155  1.0000
  O   O2        1.0  0.1423794045369673  0.556653817134233  0.6112146766633723  1.0000
  O   O3        1.0  0.14131584064320157  0.7717771270877833  0.39283364205574256  1.0000
  O   O4        1.0  0.1436471528650718  0.3524295003618796  0.4105412372279449  1.0000
  O   O5        1.0  0.9923176708330517  0.7717795342998256  0.392837694723317  1.0000
  O   O6        1.0  0.9933812251126111  0.5566579569436803  0.6112186426593926  1.0000
  O   O7        1.0  0.9935854780670685  0.5675568722935789  0.1921625446242905  1.0000
  O   O8        1.0  0.9946489749692857  0.3524335623429333  0.4105435792259813  1.0000
