data_image0
_chemical_formula_structural       NC6NCNCH5C6NH7C6OCH6Zn2C4O8
_chemical_formula_sum              "N4 C25 H18 O9 Zn2"
_cell_length_a       14.933214217465613
_cell_length_b       9.274771166103582
_cell_length_c       9.273891588657152
_cell_angle_alpha    85.97469330815719
_cell_angle_beta     89.64588733206324
_cell_angle_gamma    90.63112361825276

_space_group_name_H-M_alt    "P 1"
_space_group_IT_number       1

loop_
  _space_group_symop_operation_xyz
  'x, y, z'

loop_
  _atom_site_type_symbol
  _atom_site_label
  _atom_site_symmetry_multiplicity
  _atom_site_fract_x
  _atom_site_fract_y
  _atom_site_fract_z
  _atom_site_occupancy
  N   N1        1.0  0.8588874097741888  0.5651692081040007  0.4063306949538179  1.0000
  C   C1        1.0  0.781406982172173  0.5661572423855417  0.40533842132392106  1.0000
  C   C2        1.0  0.6850208003900788  0.5673890675678166  0.40410117898328357  1.0000
  C   C3        1.0  0.6362516271784908  0.47245714587831555  0.49945988099125554  1.0000
  C   C4        1.0  0.5427288857106396  0.4735306215961817  0.4983816090979384  1.0000
  C   C5        1.0  0.4970724221568219  0.5694816278248591  0.4019992780793813  1.0000
  C   C6        1.0  0.4004760904324603  0.5673912061827566  0.40409910431595675  1.0000
  N   N2        1.0  0.3229730946715714  0.5656473293327697  0.405850450137603  1.0000
  C   C7        1.0  0.5459522908573398  0.6656122819756682  0.3054365837095598  1.0000
  N   N3        1.0  0.501633143408416  0.7653422397964341  0.20525854917239786  1.0000
  C   C8        1.0  0.6399458581725739  0.6635810594837657  0.3074770551905668  1.0000
  H   H1        1.0  0.6705043183885852  0.3976097096337918  0.5746437615056581  1.0000
  H   H2        1.0  0.5059068376992637  0.39931281249266626  0.5729329029955115  1.0000
  H   H3        1.0  0.5386897411785384  0.8357811175977814  0.1345029620049556  1.0000
  H   H4        1.0  0.4319444784217865  0.7706487246191334  0.19992828031301912  1.0000
  H   H5        1.0  0.67788491132919  0.7370521138489632  0.23367570744646413  1.0000
  C   C9        1.0  0.0881825980911273  0.14181595878284248  0.40687907573248605  1.0000
  C   C10       1.0  0.06801543506804619  0.2239405655344806  0.27800393543344293  1.0000
  C   C11       1.0  0.056211928566740836  0.1577082700355621  0.14830235157266486  1.0000
  C   C12       1.0  0.06462573300897013  0.007965466589410445  0.14653632696688756  1.0000
  C   C13       1.0  0.08314301247677829  0.9245037508029105  0.27364252018483026  1.0000
  C   C14       1.0  0.09368636424706228  0.9889895984584977  0.4053146109425627  1.0000
  N   N4        1.0  0.036599777517025256  0.24292016042001732  0.018009995158766667  1.0000
  H   H6        1.0  0.18788779913791043  0.22442610962061793  0.7222240932538324  1.0000
  H   H7        1.0  0.06350213989167508  0.34052362692720317  0.27745493414227695  1.0000
  H   H8        1.0  0.05596795801870204  0.9555685507750378  0.046743605252752764  1.0000
  H   H9        1.0  0.08710351570951325  0.808306557438803  0.2695104032046163  1.0000
  H   H10       1.0  0.1572049965746274  0.6939257719971594  0.6198653425042948  1.0000
  H   H11       1.0  0.030430107064117532  0.3549872833154548  0.017969563739855365  1.0000
  H   H12       1.0  0.028018228626405906  0.1945619253197195  0.9205876032234047  1.0000
  C   C15       1.0  0.0923766643256747  0.5615839837039269  0.9828270332339517  1.0000
  C   C16       1.0  0.1661073962416445  0.6225862070062402  0.051212337434687775  1.0000
  C   C17       1.0  0.23482862808463556  0.6943544377880273  0.9711995600268687  1.0000
  C   C18       1.0  0.23006554997353296  0.7054821447187143  0.8197433915240093  1.0000
  C   C19       1.0  0.15821048706977053  0.6436084439541409  0.7500155557218265  1.0000
  C   C20       1.0  0.08949226425112333  0.5692214825631892  0.8293665999012529  1.0000
  O   O1        1.0  0.30610226899608595  0.7535781298704589  0.04622358223929779  1.0000
  C   C21       1.0  0.3803370602433969  0.8295685487036389  0.9789307159931487  1.0000
  H   H13       1.0  0.8788009194189235  0.4727688483507504  0.09422828021853255  1.0000
  H   H14       1.0  0.282008491148836  0.760617297711213  0.754666158153196  1.0000
  H   H15       1.0  0.9470247579192717  0.5037091380438854  0.5541916396561204  1.0000
  H   H16       1.0  0.3569334750531814  0.9271570557710245  0.9143797453894638  1.0000
  H   H17       1.0  0.41721030296930994  0.758017370631447  0.9086116198172788  1.0000
  H   H18       1.0  0.42640053653781806  0.8640945710896102  0.0636631570185433  1.0000
  Zn  Zn1       1.0  0.9928124607037495  0.5653033882350926  0.4062004461294079  1.0000
  Zn  Zn2       1.0  0.1890479118704662  0.565501422312535  0.40599255745541546  1.0000
  C   C22       1.0  0.08999816244078845  0.5620313877363121  0.6693631277661389  1.0000
  C   C23       1.0  0.09186436436050571  0.5687752462902891  0.14283001165858428  1.0000
  C   C24       1.0  0.09266098563559136  0.8288038908231197  0.39986654191934856  1.0000
  C   C25       1.0  0.08920146268346874  0.302001010777039  0.4123266776226371  1.0000
  O   O2        1.0  0.16616272195708565  0.5712575595810812  0.19644959181626964  1.0000
  O   O3        1.0  0.16463796604466951  0.5596982857917385  0.6155853520043225  1.0000
  O   O4        1.0  0.16678722044816752  0.7751204683418305  0.397964950493681  1.0000
  O   O5        1.0  0.16401340102699147  0.35583538630716105  0.4140698853056024  1.0000
  O   O6        1.0  0.01784690458173112  0.7749694241743887  0.3981231183425784  1.0000
  O   O7        1.0  0.015697661694974666  0.5595489739846622  0.6157434397993162  1.0000
  O   O8        1.0  0.017222423245000902  0.5711081818727324  0.19660594675275056  1.0000
  O   O9        1.0  0.015073101876010185  0.3556859992565631  0.4142263483267507  1.0000
