data_image0
_chemical_formula_structural       NC5NC4H6C6ClH5C6IH2Zn2C4O8
_chemical_formula_sum              "N2 C25 H13 Cl1 I1 Zn2 O8"
_cell_length_a       13.854160002989762
_cell_length_b       9.276545438789551
_cell_length_c       9.275433903346869
_cell_angle_alpha    86.20108945286073
_cell_angle_beta     89.96562887878927
_cell_angle_gamma    89.40960627284836

_space_group_name_H-M_alt    "P 1"
_space_group_IT_number       1

loop_
  _space_group_symop_operation_xyz
  'x, y, z'

loop_
  _atom_site_type_symbol
  _atom_site_label
  _atom_site_symmetry_multiplicity
  _atom_site_fract_x
  _atom_site_fract_y
  _atom_site_fract_z
  _atom_site_occupancy
  N   N1        1.0  0.8987755680966081  0.5611633463914414  0.41145857253208207  1.0000
  C   C1        1.0  0.8262969976980595  0.585743021359945  0.35245076972969575  1.0000
  C   C2        1.0  0.7361326342469062  0.6163207966895976  0.27904280348769306  1.0000
  C   C3        1.0  0.6487307558414956  0.5876053115732935  0.35071982930109336  1.0000
  C   C4        1.0  0.560990221787807  0.6163208107701028  0.2790427803328699  1.0000
  C   C5        1.0  0.4711888573064528  0.5857428750414304  0.35245086122775815  1.0000
  N   N2        1.0  0.39900199793685537  0.5611632829052182  0.4114585724079125  1.0000
  C   C6        1.0  0.5606800083217329  0.6743582755536894  0.13570805125309393  1.0000
  C   C7        1.0  0.6480343705250806  0.705222391842052  0.06392889886583131  1.0000
  C   C8        1.0  0.6476953009921452  0.7633788346029693  0.9091099211708391  1.0000
  C   C9        1.0  0.7357570974094088  0.6743582732690521  0.13570796101028693  1.0000
  H   H1        1.0  0.6489969273769868  0.5425741692925845  0.4616582119458197  1.0000
  H   H2        1.0  0.49268316930788725  0.6955492605743159  0.08009367150927749  1.0000
  H   H3        1.0  0.7120906591717128  0.8312741504292647  0.8853731269545865  1.0000
  H   H4        1.0  0.5823821814691885  0.8312741529975545  0.8853731920144311  1.0000
  H   H5        1.0  0.6483537971207303  0.6721105195001642  0.8375309236967299  1.0000
  H   H6        1.0  0.8035061276544807  0.6955493721292993  0.08009358618369912  1.0000
  C   C10       1.0  0.15180663259095856  0.137725641499773  0.4112210502954495  1.0000
  C   C11       1.0  0.1522259109588728  0.2199625540489607  0.27821882988800994  1.0000
  C   C12       1.0  0.14386248746694763  0.15349939588507963  0.1481114257868337  1.0000
  C   C13       1.0  0.1348813038299479  0.003917753715626084  0.14900457160106417  1.0000
  C   C14       1.0  0.13595219046542217  0.9201164614486563  0.27956553469427514  1.0000
  C   C15       1.0  0.1459802701824744  0.9845900553371945  0.4117085983003139  1.0000
  Cl  Cl1       1.0  0.14318131438647325  0.25837115805254784  0.9836026601778262  1.0000
  H   H7        1.0  0.20108051785968772  0.403094150395128  0.6377714825801384  1.0000
  H   H8        1.0  0.15674985856617188  0.33665277626247314  0.27536588141342655  1.0000
  H   H9        1.0  0.12798873282079226  0.9521255902195076  0.04834571484307416  1.0000
  H   H10       1.0  0.13123436868733518  0.8038278151655393  0.27691580466342147  1.0000
  H   H11       1.0  0.11352905121455142  0.688332690826796  0.6447187640554743  1.0000
  C   C16       1.0  0.14909382210632605  0.556657281370901  0.9883098991340677  1.0000
  C   C17       1.0  0.23802598978635678  0.553957795539145  0.06176321384660533  1.0000
  C   C18       1.0  0.3249081471841524  0.5645457258480708  0.9856505713654485  1.0000
  C   C19       1.0  0.32424867819082426  0.5781697859140651  0.8351127710021786  1.0000
  C   C20       1.0  0.23696692340865483  0.5786897104685453  0.7601376801482465  1.0000
  C   C21       1.0  0.1486930476283543  0.5656583296472479  0.8346197044092531  1.0000
  I   I1        1.0  0.45713430393000754  0.5626315192335687  0.09843386775445517  1.0000
  H   H12       1.0  0.9184159626933086  0.6420830618067865  0.08584868007296168  1.0000
  H   H13       1.0  0.3915071062190778  0.586984277071493  0.7759069162636819  1.0000
  Zn  Zn1       1.0  0.04313013843151101  0.5611595561532423  0.41146690060575986  1.0000
  Zn  Zn2       1.0  0.25464750435367633  0.5611553993755349  0.4114620719404777  1.0000
  C   C22       1.0  0.148806176899505  0.5582125880607751  0.6746457480893935  1.0000
  C   C23       1.0  0.14897376306455024  0.5641041883025928  0.14828336688427252  1.0000
  C   C24       1.0  0.14707930879949385  0.8244535489582265  0.4058742234004867  1.0000
  C   C25       1.0  0.15070057087105093  0.29786149580405485  0.4170549674024829  1.0000
  O   O1        1.0  0.22920325146873477  0.5665955700922444  0.2019700879620696  1.0000
  O   O2        1.0  0.22911348273195975  0.5557169591655426  0.6209549467323685  1.0000
  O   O3        1.0  0.2277179321179803  0.7707099181238903  0.4039200398307965  1.0000
  O   O4        1.0  0.23059872988636199  0.35160262030122014  0.4190048868273679  1.0000
  O   O5        1.0  0.06717884071832247  0.770712335230465  0.4039240857129385  1.0000
  O   O6        1.0  0.06857437944530931  0.5557211078761121  0.6209589167792762  1.0000
  O   O7        1.0  0.06866414941239052  0.5665996501285215  0.20197232549909727  1.0000
  O   O8        1.0  0.07005962784586672  0.3516066911730811  0.41900723239473914  1.0000
