data_image0
_chemical_formula_structural       NC12NC2H8C9H10C9NC2H9Zn2C4O8
_chemical_formula_sum              "N3 C38 H27 Zn2 O8"
_cell_length_a       17.80743265337812
_cell_length_b       10.297183801781406
_cell_length_c       9.273598843048156
_cell_angle_alpha    85.08934780367251
_cell_angle_beta     91.13569736745053
_cell_angle_gamma    89.43536064670782

_space_group_name_H-M_alt    "P 1"
_space_group_IT_number       1

loop_
  _space_group_symop_operation_xyz
  'x, y, z'

loop_
  _atom_site_type_symbol
  _atom_site_label
  _atom_site_symmetry_multiplicity
  _atom_site_fract_x
  _atom_site_fract_y
  _atom_site_fract_z
  _atom_site_occupancy
  N   N1        1.0  0.7129590765647859  0.41782585037455733  0.4451929368466625  1.0000
  C   C1        1.0  0.6624114368116771  0.4479207008534245  0.36884462976339316  1.0000
  C   C2        1.0  0.5995251239044349  0.4853564822122931  0.2738769459251509  1.0000
  C   C3        1.0  0.6117534533729045  0.5403650392449095  0.13315837632983296  1.0000
  C   C4        1.0  0.5507650044361062  0.5762784007618218  0.04085369960302043  1.0000
  C   C5        1.0  0.4773965374850714  0.5574518130826243  0.08853422067359129  1.0000
  C   C6        1.0  0.4641895796029051  0.502320823703869  0.22977301946174578  1.0000
  C   C7        1.0  0.5260354100702761  0.46641084383230313  0.32205934783184453  1.0000
  C   C8        1.0  0.38624157371010265  0.4823578237465804  0.2806322685932827  1.0000
  C   C9        1.0  0.366952138933877  0.5085762229674846  0.42178262103266434  1.0000
  C   C10       1.0  0.2935535649916753  0.489790908887892  0.46950819260619836  1.0000
  C   C11       1.0  0.2384981387796893  0.44452641642104074  0.3770146350228094  1.0000
  C   C12       1.0  0.16295741438344014  0.4251773613852177  0.4262971015860997  1.0000
  N   N2        1.0  0.1022280210993679  0.40962202297626193  0.4659168144128909  1.0000
  C   C13       1.0  0.2570939309478992  0.4181348870754438  0.2364676795004148  1.0000
  C   C14       1.0  0.3304406632360379  0.4369369558525069  0.18845777500349592  1.0000
  H   H1        1.0  0.6683554078935677  0.5554574620202931  0.0948868436095072  1.0000
  H   H2        1.0  0.5603500236217036  0.6191382765554838  0.9321869889367167  1.0000
  H   H3        1.0  0.43101673871838914  0.5875994275315325  0.015639230912571463  1.0000
  H   H4        1.0  0.5171492818276257  0.42216622181760144  0.43058846524150163  1.0000
  H   H5        1.0  0.408368432657237  0.545262506473779  0.49462503163476473  1.0000
  H   H6        1.0  0.2797217817435978  0.510890046124636  0.5783987684743037  1.0000
  H   H7        1.0  0.21495910892338874  0.38271307427330314  0.16408349339225103  1.0000
  H   H8        1.0  0.3437428673417509  0.4142995060893093  0.07990500353219021  1.0000
  C   C15       1.0  0.9075990425991418  0.03224683997758593  0.455759653441262  1.0000
  C   C16       1.0  0.9059521022202586  0.043206442407745405  0.3037918631943813  1.0000
  C   C17       1.0  0.90510815276316  0.9322048834946045  0.2259343109929668  1.0000
  C   C18       1.0  0.9059454063371756  0.8080396181252943  0.30320284190047686  1.0000
  C   C19       1.0  0.9075952132701527  0.7951908277392099  0.4553628909022534  1.0000
  C   C20       1.0  0.9084105487443492  0.9077777692955263  0.530647992685207  1.0000
  C   C21       1.0  0.9033266626294983  0.9534906665855445  0.06157040410177129  1.0000
  C   C22       1.0  0.8596318370576754  0.8562579593659074  0.9788987211722883  1.0000
  C   C23       1.0  0.9452212515412114  0.8547945325151499  0.9788702773131881  1.0000
  H   H9        1.0  0.9082407937560217  0.35556205730839396  0.5143180971187817  1.0000
  H   H10       1.0  0.9053164501008081  0.13885981562222316  0.2451239202541238  1.0000
  H   H11       1.0  0.905325583886991  0.7208526729831507  0.2461639993707563  1.0000
  H   H12       1.0  0.9096808213541447  0.8985947709455782  0.6478943140325417  1.0000
  H   H13       1.0  0.9107012562203576  0.5637068409732656  0.7427498474692913  1.0000
  H   H14       1.0  0.9027547499765531  0.05458848484750912  0.008740991713653388  1.0000
  H   H15       1.0  0.8343325843711387  0.7726930892987166  0.04323521838655498  1.0000
  H   H16       1.0  0.8334974376222871  0.8983977040284857  0.8753905047992308  1.0000
  H   H17       1.0  0.9719129692923502  0.7703415037100042  0.04319024972947317  1.0000
  H   H18       1.0  0.9691101030058765  0.8960766104952846  0.8753441053110436  1.0000
  C   C24       1.0  0.9091117094725208  0.416658679251235  0.03180157911906045  1.0000
  C   C25       1.0  0.8589074138665634  0.4997470320812586  0.09548791746528518  1.0000
  C   C26       1.0  0.8049985884208164  0.5726985204614938  0.011814601387210685  1.0000
  C   C27       1.0  0.7998229371847797  0.5646364824290755  0.8618229047262449  1.0000
  C   C28       1.0  0.8505944965315914  0.4834852962906862  0.7967563560211208  1.0000
  C   C29       1.0  0.9060825047158492  0.41077898185995343  0.8793209764894332  1.0000
  C   C30       1.0  0.7420047653641885  0.6418148876932148  0.7731067150376174  1.0000
  C   C31       1.0  0.7596763570864007  0.7042464918253204  0.6374544178139727  1.0000
  C   C32       1.0  0.7044061345553844  0.7763708358157873  0.5559591467588225  1.0000
  N   N3        1.0  0.6338595420379878  0.7861117057030994  0.6075222101384536  1.0000
  C   C33       1.0  0.6149772287139174  0.7269629403317537  0.7381991994165658  1.0000
  C   C34       1.0  0.6685176161319474  0.6539679367945439  0.8233088226907648  1.0000
  H   H19       1.0  0.021191474568535314  0.32263606721060767  0.32613287808911706  1.0000
  H   H20       1.0  0.8602390718663654  0.506325091947917  0.21147750693112677  1.0000
  H   H21       1.0  0.7674051750097415  0.6360101926441821  0.06468200858442154  1.0000
  H   H22       1.0  0.8473793077549165  0.47769073697641873  0.680676770388732  1.0000
  H   H23       1.0  0.07487540983531416  0.27821234191628785  0.7952823663662497  1.0000
  H   H24       1.0  0.815865195039773  0.698878155568263  0.5956776349924238  1.0000
  H   H25       1.0  0.7177083332789772  0.8249676047187282  0.4516750343114793  1.0000
  H   H26       1.0  0.5582594431576533  0.7363315621090848  0.7760213821845983  1.0000
  H   H27       1.0  0.6523614366607695  0.6061572626783902  0.9264077748381889  1.0000
  Zn  Zn1       1.0  0.8252936589076111  0.41545487702291145  0.4511817211924616  1.0000
  Zn  Zn2       1.0  0.9898933942462032  0.41198231820848186  0.45993980609144725  1.0000
  C   C35       1.0  0.9066534616311321  0.4067152633814852  0.7191242786608877  1.0000
  C   C36       1.0  0.9085353884321915  0.4207235320310024  0.19199748504360126  1.0000
  C   C37       1.0  0.9076126130975303  0.6510181457083803  0.4496872908468575  1.0000
  C   C38       1.0  0.9075761805322914  0.17641908961058303  0.4614345476155029  1.0000
  O   O1        1.0  0.9708067115971084  0.42076424843715765  0.24908434500261256  1.0000
  O   O2        1.0  0.9693095304992322  0.40403797806644515  0.6686841876008928  1.0000
  O   O3        1.0  0.9700832100209058  0.6013156525322236  0.4511118681222761  1.0000
  O   O4        1.0  0.9700329762953667  0.22348658519981202  0.46665655328957545  1.0000
  O   O5        1.0  0.8451540206886633  0.6039506112180619  0.4444649709980382  1.0000
  O   O6        1.0  0.8443803414307073  0.4066744980322887  0.6620372127224874  1.0000
  O   O7        1.0  0.8458775287797952  0.42340073516948085  0.24243563519332723  1.0000
  O   O8        1.0  0.845103793088337  0.2261230618901833  0.4600079516756486  1.0000
