data_image0
_chemical_formula_structural       NC6NC2H4C6BrH5C7OH6Zn2C4O8
_chemical_formula_sum              "N2 C25 H15 Br1 O9 Zn2"
_cell_length_a       14.927258858638513
_cell_length_b       9.276564384272257
_cell_length_c       9.274074313596557
_cell_angle_alpha    86.07032153844699
_cell_angle_beta     90.23360497227152
_cell_angle_gamma    90.58593300640023

_space_group_name_H-M_alt    "P 1"
_space_group_IT_number       1

loop_
  _space_group_symop_operation_xyz
  'x, y, z'

loop_
  _atom_site_type_symbol
  _atom_site_label
  _atom_site_symmetry_multiplicity
  _atom_site_fract_x
  _atom_site_fract_y
  _atom_site_fract_z
  _atom_site_occupancy
  N   N1        1.0  0.8494687544112041  0.5626152891846199  0.40888897954170766  1.0000
  C   C1        1.0  0.7719422630898936  0.5626152607792545  0.40888899015235447  1.0000
  C   C2        1.0  0.6755097561474328  0.5626153753865786  0.4088889402051401  1.0000
  C   C3        1.0  0.6279781347806416  0.5376819722414419  0.28224845087225114  1.0000
  C   C4        1.0  0.5342668232536497  0.5376819965675212  0.282248317419266  1.0000
  C   C5        1.0  0.487693691076116  0.5626151980219369  0.4088889589804751  1.0000
  C   C6        1.0  0.3912611171421224  0.5626153126321674  0.4088889090273353  1.0000
  N   N2        1.0  0.3137346258208118  0.5626152842268015  0.408888919637982  1.0000
  C   C7        1.0  0.5352252454513744  0.5875486011699804  0.5355294483074389  1.0000
  C   C8        1.0  0.6289365569783659  0.5875485768439008  0.5355295817604242  1.0000
  H   H1        1.0  0.663301450262909  0.5182823775699174  0.18371488190400376  1.0000
  H   H2        1.0  0.4981977959939432  0.5182825750561846  0.18371487680310228  1.0000
  H   H3        1.0  0.49990199717187045  0.6069481865845825  0.6340631253478324  1.0000
  H   H4        1.0  0.6650055851397014  0.6069480967621792  0.6340631323013226  1.0000
  C   C9        1.0  0.07890790377923268  0.1391379292086039  0.4092575189531391  1.0000
  C   C10       1.0  0.0670855839885458  0.22134452367306465  0.2775292530825739  1.0000
  C   C11       1.0  0.06360363186814744  0.15507503453621974  0.1470313942608712  1.0000
  C   C12       1.0  0.07191766088254381  0.005655631662935257  0.14578391616242592  1.0000
  C   C13       1.0  0.08215662240471343  0.9217361604880512  0.27552022834707435  1.0000
  C   C14       1.0  0.08430403024242517  0.9860816198314444  0.40853282702931404  1.0000
  Br  Br1       1.0  0.0678114977544364  0.9155406228436901  0.9667180531346169  1.0000
  H   H5        1.0  0.0532468393708421  0.4039897614046828  0.6435742497106649  1.0000
  H   H6        1.0  0.06265826699295565  0.33797670286714476  0.27506183519344907  1.0000
  H   H7        1.0  0.05529272419536535  0.22031007604457153  0.04663831939848295  1.0000
  H   H8        1.0  0.08629348709251054  0.8054656842982166  0.2724128684986382  1.0000
  H   H9        1.0  0.13430566064962268  0.6903517966422337  0.6330068776336601  1.0000
  C   C15       1.0  0.08050687483419683  0.5584564029789476  0.9856575736259781  1.0000
  C   C16       1.0  0.002668927880499221  0.6010307719961532  0.05551000568406094  1.0000
  C   C17       1.0  0.9293162186404557  0.6551945569575253  0.9762814368585837  1.0000
  C   C18       1.0  0.9320867073983675  0.6682246559627794  0.8249902864320977  1.0000
  C   C19       1.0  0.00870400020458418  0.6239092657623041  0.7539994581479944  1.0000
  C   C20       1.0  0.08270502458317758  0.5667631303340833  0.8321328721900358  1.0000
  C   C21       1.0  0.8553980363701448  0.7263541397386022  0.7395498493117203  1.0000
  O   O1        1.0  0.7854535493368707  0.7665340095978297  0.8002217538327699  1.0000
  H   H10       1.0  0.29915955553977724  0.5217157183467594  0.09247756256883233  1.0000
  H   H11       1.0  0.9993091604500056  0.5956388744688323  0.17243420297180356  1.0000
  H   H12       1.0  0.8707477935487179  0.6882069699338604  0.03365484870882374  1.0000
  H   H13       1.0  0.009786585131081662  0.6308977782371024  0.63683681571748  1.0000
  H   H14       1.0  0.22964696018303454  0.5367905759904272  0.5546926808773884  1.0000
  H   H15       1.0  0.8586348983307133  0.7351073904183224  0.622672842434218  1.0000
  Zn  Zn1       1.0  0.9834458611919134  0.562611505323624  0.4088972935200841  1.0000
  Zn  Zn2       1.0  0.1797574853665681  0.5626073720116087  0.40889243861372804  1.0000
  C   C22       1.0  0.08225094972126917  0.5594480912722156  0.6721357886976522  1.0000
  C   C23       1.0  0.08095455251425125  0.565772606952295  0.1456540832867399  1.0000
  C   C24       1.0  0.08326451861438633  0.8259348954814476  0.40292651871939533  1.0000
  C   C25       1.0  0.0799409057944618  0.2992840709166231  0.41486343158906336  1.0000
  O   O2        1.0  0.1556039954371109  0.5682201319508451  0.19934853648623863  1.0000
  O   O3        1.0  0.15659747919647193  0.5569963372163945  0.6184372367785258  1.0000
  O   O4        1.0  0.15741494850236992  0.7721878165287441  0.40104884531274054  1.0000
  O   O5        1.0  0.1547864589284494  0.3530286618954186  0.4167368198798771  1.0000
  O   O6        1.0  0.0084168206384998  0.7721902154427202  0.40105291224800954  1.0000
  O   O7        1.0  0.0075993621677410425  0.5570004679597169  0.6184412253838024  1.0000
  O   O8        1.0  0.0066058736478904504  0.5682241954365141  0.19935079231494912  1.0000
  O   O9        1.0  0.005788337350459697  0.35303271612707054  0.4167391837748091  1.0000
