data_image0
_chemical_formula_structural       NC8NC6H8C9H8C6NCOH7Zn2C4O8
_chemical_formula_sum              "N3 C34 H23 O9 Zn2"
_cell_length_a       17.457602349358154
_cell_length_b       9.275152443626249
_cell_length_c       10.29962270195845
_cell_angle_alpha    85.38201048137522
_cell_angle_beta     92.8939802036364
_cell_angle_gamma    92.27213218982278

_space_group_name_H-M_alt    "P 1"
_space_group_IT_number       1

loop_
  _space_group_symop_operation_xyz
  'x, y, z'

loop_
  _atom_site_type_symbol
  _atom_site_label
  _atom_site_symmetry_multiplicity
  _atom_site_fract_x
  _atom_site_fract_y
  _atom_site_fract_z
  _atom_site_occupancy
  N   N1        1.0  0.7307824547620917  0.6137263971983433  0.6222015427683205  1.0000
  C   C1        1.0  0.669429881829529  0.5626948876947089  0.6117227541129496  1.0000
  C   C2        1.0  0.5931047338316761  0.4992180427070403  0.5986966658142194  1.0000
  C   C3        1.0  0.5348289732955183  0.5438700340119449  0.673473533902933  1.0000
  C   C4        1.0  0.45995459973196257  0.48274702219171767  0.6610555656048016  1.0000
  C   C5        1.0  0.39810211239659454  0.5298930382960836  0.7402474858928414  1.0000
  C   C6        1.0  0.3236542784171548  0.550392331362576  0.6844298782604112  1.0000
  C   C7        1.0  0.2653774442455386  0.5948400035893961  0.7593152460131682  1.0000
  C   C8        1.0  0.189494622333481  0.6160116276890113  0.7012804089783675  1.0000
  N   N2        1.0  0.12849771218642664  0.6330265250386964  0.6546205700463186  1.0000
  C   C9        1.0  0.2810578228811059  0.6190587283883042  0.8905260067159773  1.0000
  C   C10       1.0  0.3547233366422655  0.5989917841719932  0.9467300478122831  1.0000
  C   C11       1.0  0.4129897231481732  0.5547443423344585  0.8723018577811112  1.0000
  C   C12       1.0  0.444640334539863  0.3762187997317165  0.5724298500036629  1.0000
  C   C13       1.0  0.5029061084032481  0.33187660014262943  0.49805214887067323  1.0000
  C   C14       1.0  0.576996489702209  0.3931246791676924  0.5110197234342126  1.0000
  H   H1        1.0  0.5476322152473303  0.6274435165733003  0.7398792423891625  1.0000
  H   H2        1.0  0.3112006841053225  0.5337205197654226  0.5824516269463078  1.0000
  H   H3        1.0  0.23639153637788335  0.6533946897008074  0.949268924480112  1.0000
  H   H4        1.0  0.36667239311095257  0.617394172502403  0.048330405953701305  1.0000
  H   H5        1.0  0.4693952745056236  0.5381042607864316  0.9184522108731634  1.0000
  H   H6        1.0  0.3878845325824355  0.32584245711348925  0.5619131890259541  1.0000
  H   H7        1.0  0.49062307110082853  0.2495431681314984  0.4304448137183814  1.0000
  H   H8        1.0  0.6216577569623076  0.35782258823614743  0.4527905123089202  1.0000
  C   C15       1.0  0.9273801420439773  0.19963497228720994  0.6395526817156401  1.0000
  C   C16       1.0  0.8996745674728199  0.2809892036185646  0.5269660671578396  1.0000
  C   C17       1.0  0.8791021441457544  0.21450808082510792  0.4128952783019841  1.0000
  C   C18       1.0  0.8859121806565546  0.06549503270628265  0.4091594005329593  1.0000
  C   C19       1.0  0.9121168885502772  0.9823794774800733  0.5206912580949314  1.0000
  C   C20       1.0  0.9319073073895414  0.04710720885041675  0.6372812572048407  1.0000
  C   C21       1.0  0.8650979124470715  0.9972925365963086  0.2910718472796203  1.0000
  C   C22       1.0  0.8476708248988537  0.9401555482424571  0.19219216655490423  1.0000
  C   C23       1.0  0.8265264984604942  0.8708179369409671  0.07221904715814365  1.0000
  H   H9        1.0  0.03770257760217976  0.2867357339977261  0.9079046160324187  1.0000
  H   H10       1.0  0.8956319351985791  0.39731036040561163  0.5262280400432868  1.0000
  H   H11       1.0  0.8585676768458069  0.27972034183897154  0.3271131067576234  1.0000
  H   H12       1.0  0.9153473006615475  0.8662248750638503  0.517331775178798  1.0000
  H   H13       1.0  0.003724515135168362  0.7553583349648795  0.8205282925054336  1.0000
  H   H14       1.0  0.8405581765920914  0.754781503381416  0.08549517014764274  1.0000
  H   H15       1.0  0.7640615123428952  0.8803626805168677  0.04934865763194929  1.0000
  H   H16       1.0  0.8589191236632407  0.9247073999681187  0.990798550943575  1.0000
  C   C24       1.0  0.9295699443695993  0.6232268610525709  0.25705462512623645  1.0000
  C   C25       1.0  0.849217380927261  0.63045641995437  0.24837661305089842  1.0000
  C   C26       1.0  0.8088895557334325  0.6364682776727033  0.127047267825207  1.0000
  C   C27       1.0  0.8493887193257456  0.6307739353588773  0.013217423249141328  1.0000
  C   C28       1.0  0.9297174978237205  0.6235152805640114  0.01977930200584987  1.0000
  C   C29       1.0  0.9693758972665486  0.6203630130531403  0.14216438318744593  1.0000
  N   N3        1.0  0.7265532254481064  0.641621012674261  0.12218989878564024  1.0000
  C   C30       1.0  0.6819523261085407  0.718195339058337  0.020235431385158934  1.0000
  O   O1        1.0  0.7133119173631971  0.8031060901730092  0.9354218235710502  1.0000
  H   H17       1.0  0.08107221485877703  0.6080422169520228  0.4807823489692662  1.0000
  H   H18       1.0  0.8175507087674638  0.6326735880930483  0.3359393255816219  1.0000
  H   H19       1.0  0.8182402174771861  0.6289900641501573  0.9198270325063626  1.0000
  H   H20       1.0  0.031319942462096906  0.6148085366232257  0.1479767943750998  1.0000
  H   H21       1.0  0.9604627720711365  0.618536909737917  0.695002879511799  1.0000
  H   H22       1.0  0.6971737576375654  0.5953411816294434  0.2020321860509495  1.0000
  H   H23       1.0  0.6200147255028  0.7061923251561535  0.018109575694462036  1.0000
  Zn  Zn1       1.0  0.845554467743703  0.619292130367964  0.631564482462307  1.0000
  Zn  Zn2       1.0  0.013725623811826178  0.6274489650231381  0.6452682944061082  1.0000
  C   C31       1.0  0.9296571864907208  0.6177121734336377  0.875623308986889  1.0000
  C   C32       1.0  0.9296247512392632  0.6290308317596318  0.401209740111202  1.0000
  C   C33       1.0  0.9310466205297852  0.8869147394749419  0.6325352260820567  1.0000
  C   C34       1.0  0.9282352505673804  0.35982652929813197  0.6442978922238792  1.0000
  O   O2        1.0  0.9934631885929768  0.6340678783461937  0.45479005566054553  1.0000
  O   O3        1.0  0.9934567594895911  0.6188648868962103  0.8324434986962558  1.0000
  O   O4        1.0  0.9945778849839955  0.8362493222878142  0.6361480777341646  1.0000
  O   O5        1.0  0.9923420057494533  0.4166834504568235  0.6510853745457938  1.0000
  O   O6        1.0  0.8669380284175211  0.8300576421523191  0.625747397639348  1.0000
  O   O7        1.0  0.8658169121673803  0.6126749403989518  0.8220427447103203  1.0000
  O   O8        1.0  0.8658233407511314  0.6278778809767613  0.4443877404396901  1.0000
  O   O9        1.0  0.864702157868172  0.41049344280319816  0.6406831567185081  1.0000
