data_image0
_chemical_formula_structural       NC5NC4H6C6NH7C6NCH7Zn2C4O8
_chemical_formula_sum              "N4 C26 H20 Zn2 O8"
_cell_length_a       13.854160002989762
_cell_length_b       9.274771166103582
_cell_length_c       9.274690524155615
_cell_angle_alpha    85.95744674106099
_cell_angle_beta     89.68736373973688
_cell_angle_gamma    90.59704847255895

_space_group_name_H-M_alt    "P 1"
_space_group_IT_number       1

loop_
  _space_group_symop_operation_xyz
  'x, y, z'

loop_
  _atom_site_type_symbol
  _atom_site_label
  _atom_site_symmetry_multiplicity
  _atom_site_fract_x
  _atom_site_fract_y
  _atom_site_fract_z
  _atom_site_occupancy
  N   N1        1.0  0.9256423145107552  0.5647627469874601  0.4073241165605074  1.0000
  C   C1        1.0  0.853697760854904  0.5894640934865365  0.3482434695841514  1.0000
  C   C2        1.0  0.7641977307707042  0.6201932327579414  0.2747448830806729  1.0000
  C   C3        1.0  0.6761630324140663  0.5913303637977394  0.346507634604708  1.0000
  C   C4        1.0  0.5890553185827474  0.6201932468877877  0.2747448598865483  1.0000
  C   C5        1.0  0.4985896181326275  0.5894639469403922  0.34824356145663105  1.0000
  N   N2        1.0  0.4258687434697899  0.5647626834786135  0.40732411658971585  1.0000
  C   C6        1.0  0.5900191041714068  0.6785256608157229  0.13123721827049373  1.0000
  C   C7        1.0  0.6780364573504728  0.7095381299376883  0.059367124990741704  1.0000
  C   C8        1.0  0.6790105398454765  0.7680115220647438  0.9043723295100299  1.0000
  C   C9        1.0  0.7650961935220358  0.678525658702803  0.13123712801263676  1.0000
  H   H1        1.0  0.6754416079386694  0.5460708963737566  0.4575801170883227  1.0000
  H   H2        1.0  0.5224981430441104  0.6998306090146245  0.07555895621190811  1.0000
  H   H3        1.0  0.7444262547395086  0.8359766708922971  0.8804660639826869  1.0000
  H   H4        1.0  0.6147177768602029  0.8359766733371208  0.8804661290511557  1.0000
  H   H5        1.0  0.6786353487936297  0.676847196872318  0.8329975547583373  1.0000
  H   H6        1.0  0.8333211032184646  0.6998307207729177  0.07555887059732205  1.0000
  C   C10       1.0  0.172793974035484  0.1411730151062032  0.4081097252885331  1.0000
  C   C11       1.0  0.15104567874989572  0.22335712022765652  0.27922218250007047  1.0000
  C   C12       1.0  0.13831229401368536  0.15717595154785197  0.14951690475916557  1.0000
  C   C13       1.0  0.14738118042125858  0.007425007113355248  0.14775970237261454  1.0000
  C   C14       1.0  0.1673509613963995  0.9239060247559012  0.2748767070559919  1.0000
  C   C15       1.0  0.17872621871438388  0.9883414524100411  0.40655105830581817  1.0000
  N   N3        1.0  0.11716211574818813  0.24244719401746684  0.019212813250461425  1.0000
  H   H7        1.0  0.2802897040247243  0.22358567875848667  0.7235371987190701  1.0000
  H   H8        1.0  0.14618086427293805  0.33994499806223644  0.27866854712425937  1.0000
  H   H9        1.0  0.1380409639741791  0.9550669915466844  0.047964577181219395  1.0000
  H   H10       1.0  0.17161954975943836  0.8077059908603559  0.27074895965040513  1.0000
  H   H11       1.0  0.24720904367141083  0.6931477117966756  0.6211534225778452  1.0000
  H   H12       1.0  0.11051197717792594  0.35452068768773276  0.019166000400047352  1.0000
  H   H13       1.0  0.10790425665255585  0.19412706856717563  0.921787941010822  1.0000
  C   C16       1.0  0.1772797467816626  0.5610641009443306  0.9840898777463996  1.0000
  C   C17       1.0  0.2561371611975105  0.6234617622934653  0.05271245098052346  1.0000
  C   C18       1.0  0.33010739187522975  0.6967838699291296  0.9720797545905002  1.0000
  C   C19       1.0  0.3244633787700832  0.7074388296114863  0.8211636892832224  1.0000
  C   C20       1.0  0.2476596828795291  0.6441817815270618  0.751332012209406  1.0000
  C   C21       1.0  0.17424039544465053  0.5684503195204349  0.8305708342050622  1.0000
  N   N4        1.0  0.4108914282061866  0.7622441137313456  0.040681111729214965  1.0000
  C   C22       1.0  0.4239553466446484  0.7571663556740105  0.1969720030868265  1.0000
  H   H14       1.0  0.06588855419096684  0.38718915265716913  0.2774085566459483  1.0000
  H   H15       1.0  0.38045616667242227  0.7639044778052395  0.757001243939572  1.0000
  H   H16       1.0  0.021232344106096417  0.5007789715861222  0.55525714780399  1.0000
  H   H17       1.0  0.46378516123411606  0.8162012227535915  0.9759476937442986  1.0000
  H   H18       1.0  0.4919055700515169  0.8143212627201863  0.22254516509021197  1.0000
  H   H19       1.0  0.4285588627202448  0.6431312562015339  0.2414064672355527  1.0000
  H   H20       1.0  0.362772463620713  0.811243119205487  0.24807451833621166  1.0000
  Zn  Zn1       1.0  0.06999680501694927  0.5647589394614758  0.4073324556911553  1.0000
  Zn  Zn2       1.0  0.28151412898247363  0.5647547904190959  0.4073276359695539  1.0000
  C   C23       1.0  0.174772533393037  0.561307723793809  0.6705784139301255  1.0000
  C   C24       1.0  0.17674072260567497  0.5682078273047262  0.1440818157906547  1.0000
  C   C25       1.0  0.17762053998081503  0.8281584381344508  0.40110228614139753  1.0000
  C   C26       1.0  0.17389263143043188  0.3013553805944609  0.41355802361017235  1.0000
  O   O1        1.0  0.256829499215131  0.5705974596021934  0.1977747542618924  1.0000
  O   O2        1.0  0.25522050536543084  0.5589138506626803  0.6168814045121973  1.0000
  O   O3        1.0  0.25751921924785076  0.774399190378728  0.3992775219995801  1.0000
  O   O4        1.0  0.2545307136164461  0.3551121292633306  0.4153785286914575  1.0000
  O   O5        1.0  0.09698014820253316  0.7744016006201615  0.3992815629633126  1.0000
  O   O6        1.0  0.09468144672713419  0.558917993276657  0.6168853654392008  1.0000
  O   O7        1.0  0.09629044651082785  0.5706015368296309  0.19777698245004527  1.0000
  O   O8        1.0  0.09399166044796423  0.35511619711650266  0.41538086495672344  1.0000
