data_image0
_chemical_formula_structural       NC5NC4H6C7NH5C6BrH3Zn2C4O8
_chemical_formula_sum              "N3 C26 H14 Br1 Zn2 O8"
_cell_length_a       13.854160002989762
_cell_length_b       9.275154477615127
_cell_length_c       9.275428193871798
_cell_angle_alpha    86.39200360318996
_cell_angle_beta     89.94092944837037
_cell_angle_gamma    89.43370676253429

_space_group_name_H-M_alt    "P 1"
_space_group_IT_number       1

loop_
  _space_group_symop_operation_xyz
  'x, y, z'

loop_
  _atom_site_type_symbol
  _atom_site_label
  _atom_site_symmetry_multiplicity
  _atom_site_fract_x
  _atom_site_fract_y
  _atom_site_fract_z
  _atom_site_occupancy
  N   N1        1.0  0.8996720297395107  0.5611038098784282  0.41672588530625343  1.0000
  C   C1        1.0  0.8272173781626446  0.5856836947398238  0.3578009084612852  1.0000
  C   C2        1.0  0.7370827705625238  0.6162617312046759  0.284495979931104  1.0000
  C   C3        1.0  0.6496521583838463  0.587545908398259  0.35607625184414915  1.0000
  C   C4        1.0  0.561940358114056  0.6162617452849415  0.2844959568237606  1.0000
  C   C5        1.0  0.47210923770356766  0.5856835484288256  0.3578009994654965  1.0000
  N   N2        1.0  0.39989845956196807  0.5611037463968109  0.4167258849676836  1.0000
  C   C6        1.0  0.5616877769112605  0.6742998408417719  0.14135678380343508  1.0000
  C   C7        1.0  0.6490715056249367  0.7051641425472843  0.06968164116560227  1.0000
  C   C8        1.0  0.6487934137377669  0.7633215950054113  0.915058585848656  1.0000
  C   C9        1.0  0.7367648660243205  0.6742998385603456  0.14135669355263358  1.0000
  H   H1        1.0  0.6498736923995829  0.5425142859726808  0.46686290212026305  1.0000
  H   H2        1.0  0.4937129266163626  0.695491166832052  0.08581379652180865  1.0000
  H   H3        1.0  0.7132146808295867  0.8312127912251802  0.8915510082675442  1.0000
  H   H4        1.0  0.5835062031090209  0.8312127937910883  0.8915510733362626  1.0000
  H   H5        1.0  0.6494469267744432  0.6720623099584293  0.8431711440415673  1.0000
  H   H6        1.0  0.8045358850188856  0.6954912783818303  0.08581371157270046  1.0000
  C   C10       1.0  0.1525842715073846  0.13769680111287208  0.4150583664705776  1.0000
  C   C11       1.0  0.12618641768929326  0.21952900216235396  0.28800293791718556  1.0000
  C   C12       1.0  0.09193238188859065  0.15221504120307494  0.1676778241347805  1.0000
  C   C13       1.0  0.0835117635318765  0.0021508419041864615  0.17299104977150723  1.0000
  C   C14       1.0  0.11080641498999366  0.919080264478363  0.2971503511266189  1.0000
  C   C15       1.0  0.1469955297648026  0.9844998064493783  0.41840590114517545  1.0000
  C   C16       1.0  0.06425154278166588  0.23761282123562455  0.03909104627417891  1.0000
  N   N3        1.0  0.04200382839572159  0.30625707950074754  0.9357402140812487  1.0000
  H   H7        1.0  0.17103123033633705  0.21811756984232525  0.7687787249491149  1.0000
  H   H8        1.0  0.1301315751313541  0.3364430760203272  0.28372722442732745  1.0000
  H   H9        1.0  0.0566710731199942  0.9490439367176612  0.08051364277313544  1.0000
  H   H10       1.0  0.10573802558582555  0.8026113247347478  0.2970235323093453  1.0000
  H   H11       1.0  0.1635132622284834  0.6882419736683835  0.6554086031015528  1.0000
  C   C17       1.0  0.15011105164642877  0.5566123509782099  0.993560687016434  1.0000
  C   C18       1.0  0.23900787673505222  0.5592966146363008  0.06661662625320308  1.0000
  C   C19       1.0  0.32551151494431313  0.5751387367988632  0.990142519005333  1.0000
  C   C20       1.0  0.3244804002646229  0.5887167445985879  0.8396389510054907  1.0000
  C   C21       1.0  0.23728410934319655  0.5839523631397268  0.7650676422851936  1.0000
  C   C22       1.0  0.14946877014374516  0.565584245106193  0.8399035427991768  1.0000
  Br  Br1       1.0  0.44515192004443227  0.5806508692114363  0.09172824571630223  1.0000
  H   H12       1.0  0.9174314864944851  0.628057345105641  0.09240845798041386  1.0000
  H   H13       1.0  0.3914116532500087  0.6016015989786181  0.7801100204691038  1.0000
  H   H14       1.0  0.9925299423919764  0.6075873989417913  0.5563334733859064  1.0000
  Zn  Zn1       1.0  0.04402659660844676  0.5611000196338836  0.41673420060560984  1.0000
  Zn  Zn2       1.0  0.2555439627560414  0.5610958633203809  0.41672935788751087  1.0000
  C   C23       1.0  0.14962590871452663  0.5581443839020743  0.6799039090029042  1.0000
  C   C24       1.0  0.1499469482990014  0.5640533197500122  0.1535597980672445  1.0000
  C   C25       1.0  0.148051306549696  0.8243751192707609  0.4120306789945405  1.0000
  C   C26       1.0  0.15152148966226023  0.2978208529031754  0.42143309805733886  1.0000
  O   O1        1.0  0.23016165335216576  0.5665427092711568  0.20725509869351064  1.0000
  O   O2        1.0  0.22994799788223846  0.5556507477208448  0.6262045137418597  1.0000
  O   O3        1.0  0.22867540350894588  0.7706354493836753  0.4098949912138312  1.0000
  O   O4        1.0  0.23143417556283707  0.3515580167786314  0.42356451321588984  1.0000
  O   O5        1.0  0.06813631162114997  0.7706378661785411  0.40989904527131027  1.0000
  O   O6        1.0  0.0694088946155138  0.5556548959967684  0.6262084978116871  1.0000
  O   O7        1.0  0.06962255179610866  0.5665467889362308  0.20725735001618426  1.0000
  O   O8        1.0  0.07089507398890094  0.3515620872763079  0.42356687253829195  1.0000
