data_image0
_chemical_formula_structural       NC9NC4H8C9H10C8H6Zn2C4O8
_chemical_formula_sum              "N2 C34 H24 Zn2 O8"
_cell_length_a       16.32274767691083
_cell_length_b       9.27267660452572
_cell_length_c       9.275144076552241
_cell_angle_alpha    86.20425915631827
_cell_angle_beta     89.93057160658579
_cell_angle_gamma    90.07922574154927

_space_group_name_H-M_alt    "P 1"
_space_group_IT_number       1

loop_
  _space_group_symop_operation_xyz
  'x, y, z'

loop_
  _atom_site_type_symbol
  _atom_site_label
  _atom_site_symmetry_multiplicity
  _atom_site_fract_x
  _atom_site_fract_y
  _atom_site_fract_z
  _atom_site_occupancy
  N   N1        1.0  0.7727422085490633  0.5568019874188569  0.40503012477303124  1.0000
  C   C1        1.0  0.7198486005424268  0.5037082174879177  0.34454680723521847  1.0000
  C   C2        1.0  0.6541018466811365  0.43776534178873017  0.26942604325787833  1.0000
  C   C3        1.0  0.6647065163662901  0.34756722235496307  0.16666944246490312  1.0000
  C   C4        1.0  0.5848782517463472  0.30355008899545877  0.11652762238363157  1.0000
  C   C5        1.0  0.5266223491160587  0.3679682064958849  0.18991733939138308  1.0000
  C   C6        1.0  0.43650592344763767  0.3509431041646676  0.17052501289288768  1.0000
  C   C7        1.0  0.38169919681920844  0.42602652360385385  0.25605726206140367  1.0000
  C   C8        1.0  0.2968377499974348  0.41147605092431205  0.2394833520300461  1.0000
  C   C9        1.0  0.24164335532781742  0.4888676668680185  0.3276441679403941  1.0000
  N   N2        1.0  0.1972858676472008  0.5510777880709345  0.3985105337736656  1.0000
  C   C10       1.0  0.2657287183194288  0.32172073066460666  0.1372395570203708  1.0000
  C   C11       1.0  0.31921457364806805  0.24673676732315755  0.051820980347735836  1.0000
  C   C12       1.0  0.4039131043418717  0.2608953163190373  0.0679482920368415  1.0000
  C   C13       1.0  0.5653636645787936  0.461896887735424  0.2969210329272739  1.0000
  H   H1        1.0  0.7232453807772335  0.3124934097061969  0.1267097401174775  1.0000
  H   H2        1.0  0.5758081661759327  0.22983127697940867  0.032544575598955294  1.0000
  H   H3        1.0  0.4045480285279476  0.4960956830574299  0.3358758989824133  1.0000
  H   H4        1.0  0.2002109931126931  0.30973415725626285  0.12358634218388985  1.0000
  H   H5        1.0  0.29497637069950644  0.17730266052290092  0.9727260410032493  1.0000
  H   H6        1.0  0.44306397107450013  0.2009129753774055  0.9996193667537785  1.0000
  H   H7        1.0  0.5488937126623301  0.4240970675693662  0.40940931314758255  1.0000
  H   H8        1.0  0.5491064376678556  0.5772783826095905  0.27281635202620325  1.0000
  C   C14       1.0  0.9826883892349233  0.13046975307304143  0.3999646590287188  1.0000
  C   C15       1.0  0.950441450923177  0.19585040866474837  0.5198386374882911  1.0000
  C   C16       1.0  0.9257057067876341  0.11291876469170896  0.6431201478864781  1.0000
  C   C17       1.0  0.9324194534842406  0.9621332844191803  0.650675490760211  1.0000
  C   C18       1.0  0.9633191419229232  0.8953132501356323  0.5297116355997401  1.0000
  C   C19       1.0  0.9873475607396238  0.9773988478981592  0.40358831862528644  1.0000
  C   C20       1.0  0.9048257426294846  0.8798716950660995  0.7895660560126556  1.0000
  C   C21       1.0  0.8633575967117963  0.7342345538865862  0.7758509914345957  1.0000
  C   C22       1.0  0.9501370971950844  0.7409406793742268  0.8355093026081726  1.0000
  H   H9        1.0  0.9998020620965354  0.42738866310365436  0.16349672928486814  1.0000
  H   H10       1.0  0.9461183151356718  0.31243024236238237  0.5197664583184991  1.0000
  H   H11       1.0  0.9018507553996868  0.16732963020287572  0.7340554100576733  1.0000
  H   H12       1.0  0.9672333298123366  0.7788696337043276  0.5309900508550973  1.0000
  H   H13       1.0  0.006993694129166616  0.8978136469777834  0.05034136865958283  1.0000
  H   H14       1.0  0.8820501252521495  0.9409458021330761  0.8806724323461421  1.0000
  H   H15       1.0  0.8590544459077664  0.6942624587993722  0.6660294733335896  1.0000
  H   H16       1.0  0.8162603838544701  0.7066774846425629  0.8597323381361437  1.0000
  H   H17       1.0  0.9985232905597766  0.7049146540823096  0.7620125103866028  1.0000
  H   H18       1.0  0.9537563066856022  0.7172971244669332  0.9542771350574364  1.0000
  C   C23       1.0  0.983072142096537  0.5510094177380183  0.9785079865748094  1.0000
  C   C24       1.0  0.9301776589706611  0.6457754734690095  0.04570432345248187  1.0000
  C   C25       1.0  0.8838957665017487  0.7475978157956059  0.9639213959471995  1.0000
  C   C26       1.0  0.8896725493773371  0.7567357593172321  0.8134424106786959  1.0000
  C   C27       1.0  0.9408657713442169  0.6618868828752156  0.7445159054125958  1.0000
  C   C28       1.0  0.9869637808078896  0.5568592368946857  0.8250450194023511  1.0000
  C   C29       1.0  0.8422226537669073  0.8625382536428873  0.7293248009651561  1.0000
  C   C30       1.0  0.802497735741017  0.9511197830038274  0.6588824617411204  1.0000
  H   H19       1.0  0.15233096809335667  0.35941180318881855  0.09368683504332664  1.0000
  H   H20       1.0  0.9260666805530793  0.6434065811232048  0.16242700143296915  1.0000
  H   H21       1.0  0.8441569089245566  0.8202421525256387  0.01828463271007363  1.0000
  H   H22       1.0  0.9432472986185869  0.6678474026212127  0.6274208662367493  1.0000
  H   H23       1.0  0.09912474419724027  0.42330209031628313  0.5529323640713963  1.0000
  H   H24       1.0  0.7676275011587333  0.028875471501058847  0.5970472329792411  1.0000
  Zn  Zn1       1.0  0.8952563610988362  0.5551462942897871  0.40315701906651613  1.0000
  Zn  Zn2       1.0  0.07477171045468745  0.5527217293503262  0.40039539691698356  1.0000
  C   C31       1.0  0.986194744728215  0.5500086627712615  0.6650068054730904  1.0000
  C   C32       1.0  0.9838352977872519  0.5578611548851011  0.13854572960921274  1.0000
  C   C33       1.0  0.9864362341510675  0.8172715991855455  0.39715967271542185  1.0000
  C   C34       1.0  0.9835937379304768  0.2905964872771505  0.4063929327420094  1.0000
  O   O1        1.0  0.05221652472767491  0.5592342594938905  0.1912078100035956  1.0000
  O   O2        1.0  0.054061506354348365  0.5467942787279733  0.6102482981931328  1.0000
  O   O3        1.0  0.054255600647793  0.762612502643855  0.39395986397184846  1.0000
  O   O4        1.0  0.05202236873772703  0.3434160459743534  0.40749613713851196  1.0000
  O   O5        1.0  0.9180056415559917  0.7644519784946628  0.39605627977981905  1.0000
  O   O6        1.0  0.9178115564366651  0.5486354866013501  0.6123446445608063  1.0000
  O   O7        1.0  0.9159665666214557  0.5610754051394524  0.19330242320947325  1.0000
  O   O8        1.0  0.9157724110682063  0.34525718205247263  0.40959085836558895  1.0000
