data_image0
_chemical_formula_structural       NC9NC3NH7C6NO2H5C7NC2NH8Zn2C4O8
_chemical_formula_sum              "N6 C31 H20 O10 Zn2"
_cell_length_a       16.053384444249904
_cell_length_b       9.273392599741053
_cell_length_c       9.27399911348925
_cell_angle_alpha    85.18319751875556
_cell_angle_beta     89.45501548333611
_cell_angle_gamma    88.5803697124526

_space_group_name_H-M_alt    "P 1"
_space_group_IT_number       1

loop_
  _space_group_symop_operation_xyz
  'x, y, z'

loop_
  _atom_site_type_symbol
  _atom_site_label
  _atom_site_symmetry_multiplicity
  _atom_site_fract_x
  _atom_site_fract_y
  _atom_site_fract_z
  _atom_site_occupancy
  N   N1        1.0  0.7804233277745353  0.5731070993609124  0.40806522802514644  1.0000
  C   C1        1.0  0.7300889563517281  0.5507083392583396  0.324832122484088  1.0000
  C   C2        1.0  0.6675369262788955  0.5228774453048399  0.2214363017124763  1.0000
  C   C3        1.0  0.6817270292075803  0.5107151836375003  0.07611563923815279  1.0000
  C   C4        1.0  0.605468595470397  0.48308523492547256  0.017981680274965498  1.0000
  C   C5        1.0  0.548003416550884  0.4799293081918831  0.13097052702127687  1.0000
  C   C6        1.0  0.4575485111480354  0.45356938955844495  0.11952485821546643  1.0000
  C   C7        1.0  0.4010139853508405  0.5001103138088783  0.22399277811979637  1.0000
  C   C8        1.0  0.3156531489558475  0.47511131156957753  0.21303053384969806  1.0000
  C   C9        1.0  0.2583179798646336  0.5235675043937345  0.32013872618312855  1.0000
  N   N2        1.0  0.2122372654755554  0.5625194646809385  0.4062369409300417  1.0000
  C   C10       1.0  0.286101504025606  0.40344687460208584  0.09761533476360329  1.0000
  C   C11       1.0  0.34162588277411804  0.3570367764516795  0.9933829450216082  1.0000
  C   C12       1.0  0.4267833525158668  0.38185550808679536  0.003904041433128831  1.0000
  N   N3        1.0  0.5866186881236078  0.5043756001063964  0.2550037660342257  1.0000
  H   H1        1.0  0.7405982378182485  0.5208004530052541  0.018772741670243228  1.0000
  H   H2        1.0  0.5936811101708072  0.46875647196124426  0.9055062089205507  1.0000
  H   H3        1.0  0.4226812343749916  0.5576110936696543  0.3128046741879573  1.0000
  H   H4        1.0  0.2202308685497283  0.3835722988230865  0.08820016351887827  1.0000
  H   H5        1.0  0.3186582242176638  0.30136171697872016  0.9043151400759744  1.0000
  H   H6        1.0  0.4684148754242362  0.34318971504859097  0.9224134993704483  1.0000
  H   H7        1.0  0.5600896279574434  0.5061168390671842  0.3580981957132355  1.0000
  C   C13       1.0  0.998877286607358  0.1442300896019437  0.4062326946618321  1.0000
  C   C14       1.0  0.9887073699420795  0.22896210755237487  0.2744328172408559  1.0000
  C   C15       1.0  0.9711683546866762  0.16539142437046817  0.147448141204527  1.0000
  C   C16       1.0  0.9632164242426652  0.015159672216186857  0.14872166468525583  1.0000
  C   C17       1.0  0.9746894086099352  0.929236010104515  0.279509570319928  1.0000
  C   C18       1.0  0.993791288165268  0.9913850802349611  0.4080818458366877  1.0000
  N   N4        1.0  0.9443950153517069  0.9502394804287316  0.01751032685065157  1.0000
  O   O1        1.0  0.9338905029776566  0.03469946645903386  0.8894199087124598  1.0000
  O   O2        1.0  0.9370569074685937  0.8164841660486492  0.017771812898213838  1.0000
  H   H8        1.0  0.9807249456605093  0.21810275130721823  0.7605437337656485  1.0000
  H   H9        1.0  0.992364112580731  0.34575157187467265  0.2701531125836638  1.0000
  H   H10       1.0  0.9629862455636684  0.23436412978328391  0.04828595944658276  1.0000
  H   H11       1.0  0.9706614425543726  0.8127237686338189  0.28055400208408  1.0000
  H   H12       1.0  0.9844051284310373  0.6914671543346541  0.6475274685724732  1.0000
  C   C19       1.0  0.9977511523981094  0.5714639927596383  0.9833078637340479  1.0000
  C   C20       1.0  0.06357226296005258  0.5007904340169136  0.06136469271310308  1.0000
  C   C21       1.0  0.12393957676817036  0.4199830485853884  0.992285764975935  1.0000
  C   C22       1.0  0.12011190925675908  0.4070704456870024  0.8429775126107018  1.0000
  C   C23       1.0  0.055530176527488935  0.4801491816201288  0.7633620473323877  1.0000
  C   C24       1.0  0.9949174193960557  0.5641512143031067  0.8310066642600726  1.0000
  C   C25       1.0  0.18457468914377326  0.31923407550636124  0.7718229098191189  1.0000
  N   N5        1.0  0.2546512748937837  0.26712403323081596  0.8394562917296572  1.0000
  C   C26       1.0  0.2954200286114899  0.19396129924755434  0.739804970701603  1.0000
  C   C27       1.0  0.24986382519916742  0.20226596497537083  0.6144712877126471  1.0000
  N   N6        1.0  0.18015045941866537  0.28098575761179734  0.6347656836194402  1.0000
  H   H13       1.0  0.9079641591362784  0.7557046529025031  0.2506579918708314  1.0000
  H   H14       1.0  0.06732087888581262  0.5049903512642809  0.17750923350786407  1.0000
  H   H15       1.0  0.17312176883869745  0.3656469241156574  0.05669061290211076  1.0000
  H   H16       1.0  0.053492555890989786  0.47629681243373434  0.6472572584423313  1.0000
  H   H17       1.0  0.8644254122391581  0.6487496766384688  0.5459726616899898  1.0000
  H   H18       1.0  0.3546914325864765  0.13761653612355595  0.7578040183258068  1.0000
  H   H19       1.0  0.2661462946514508  0.15370907197412162  0.5156057606764834  1.0000
  H   H20       1.0  0.13288176959529374  0.304005167365855  0.5593075854825523  1.0000
  Zn  Zn1       1.0  0.9050354954888687  0.5700478179509891  0.4075459429274455  1.0000
  Zn  Zn2       1.0  0.08762510541916323  0.5655668927693402  0.4067679969405343  1.0000
  C   C28       1.0  0.9954856950483724  0.5597871696485706  0.6707609389077862  1.0000
  C   C29       1.0  0.9971768883323597  0.5758293109182766  0.14355313810264891  1.0000
  C   C30       1.0  0.994767586312549  0.8313045034165775  0.4019807282669067  1.0000
  C   C31       1.0  0.9978949449102419  0.3043102450012942  0.41233342217722885  1.0000
  O   O3        1.0  0.06627600324086469  0.5755875709275785  0.1970376758554726  1.0000
  O   O4        1.0  0.06496787716285123  0.5566269065231588  0.6166855402875  1.0000
  O   O5        1.0  0.06438705617331886  0.7758805973227256  0.3996436257841032  1.0000
  O   O6        1.0  0.06685676222475045  0.3563338929091988  0.41407948242566583  1.0000
  O   O7        1.0  0.9258037763744246  0.7792808193418863  0.4002344577002004  1.0000
  O   O8        1.0  0.9263845872130415  0.5600288622220502  0.6172762990277831  1.0000
  O   O9        1.0  0.9276927194491799  0.57898949132971  0.1976266991614135  1.0000
  O   O10       1.0  0.9282734781298556  0.35973580206089895  0.41466861392269605  1.0000
