data_image0
_chemical_formula_structural       NC6NC2H4C12H9C12H9Zn2C4O8
_chemical_formula_sum              "N2 C36 H22 Zn2 O8"
_cell_length_a       14.927258858638513
_cell_length_b       14.994057918209652
_cell_length_c       14.388202922059104
_cell_angle_alpha    85.84309809662012
_cell_angle_beta     92.42189218729648
_cell_angle_gamma    89.9901835886132

_space_group_name_H-M_alt    "P 1"
_space_group_IT_number       1

loop_
  _space_group_symop_operation_xyz
  'x, y, z'

loop_
  _atom_site_type_symbol
  _atom_site_label
  _atom_site_symmetry_multiplicity
  _atom_site_fract_x
  _atom_site_fract_y
  _atom_site_fract_z
  _atom_site_occupancy
  N   N1        1.0  0.8016140717911416  0.9715612831392922  0.9740775022897374  1.0000
  C   C1        1.0  0.7240875809047416  0.971561265534703  0.9740775091208009  1.0000
  C   C2        1.0  0.6276550720380274  0.9715613365860947  0.974077476953954  1.0000
  C   C3        1.0  0.5772757779111224  0.9565283090213813  0.8923345093784137  1.0000
  C   C4        1.0  0.4835644630575131  0.95652832448177  0.8923344232677335  1.0000
  C   C5        1.0  0.4398390085545329  0.971561226808678  0.9740774889671227  1.0000
  C   C6        1.0  0.34340643269612703  0.971561297861885  0.9740774567964536  1.0000
  N   N2        1.0  0.2658799418097268  0.9715612802572956  0.9740774636275169  1.0000
  C   C7        1.0  0.49021823568974615  0.9865942543752063  0.055820456538840685  1.0000
  C   C8        1.0  0.5839295505433554  0.9865942389148179  0.05582054264952152  1.0000
  H   H1        1.0  0.6103834403954175  0.9448317656185926  0.8287337891511926  1.0000
  H   H2        1.0  0.4452797847339095  0.9448318878012164  0.82873378597468  1.0000
  H   H3        1.0  0.45711064303492943  0.9982907917178947  0.11942124650583147  1.0000
  H   H4        1.0  0.6222142317461905  0.9982907361314365  0.11942125094083522  1.0000
  C   C9        1.0  0.033788236351141906  0.7095930409272586  0.9740679008766996  1.0000
  C   C10       1.0  0.08819377663627997  0.6574656567220956  0.03908898825181828  1.0000
  C   C11       1.0  0.08815052492369427  0.564242188707573  0.039127482394602495  1.0000
  C   C12       1.0  0.033776621376035536  0.5210923384577125  0.97411741936537  1.0000
  C   C13       1.0  0.9794217528292615  0.5733189468260839  0.9090989840808681  1.0000
  C   C14       1.0  0.9794080553106344  0.666542673763931  0.9091097362543201  1.0000
  C   C15       1.0  0.03375596282210849  0.4220178732732818  0.9741250566371197  1.0000
  C   C16       1.0  0.03169687063345705  0.3801943190839778  0.8897253020368288  1.0000
  C   C17       1.0  0.03171452463954518  0.2869699254982561  0.889724526093315  1.0000
  C   C18       1.0  0.033714720011340585  0.23352267342387845  0.9740951178676334  1.0000
  C   C19       1.0  0.035737195051546385  0.2752444096968482  0.05852975165467697  1.0000
  C   C20       1.0  0.03579518377874136  0.3684651809042855  0.05853074269249103  1.0000
  H   H5        1.0  0.9788535262368707  0.9269729880815449  0.9082479202192766  1.0000
  H   H6        1.0  0.13104905545982878  0.6886888506314662  0.08988081742434229  1.0000
  H   H7        1.0  0.1316370263418678  0.5259431219042475  0.08930185995848447  1.0000
  H   H8        1.0  0.9359216917725143  0.5420193915560529  0.8589329289058047  1.0000
  H   H9        1.0  0.9365598743331718  0.7048199725506509  0.8583035332191195  1.0000
  H   H10       1.0  0.03128628285944333  0.41959119348719465  0.8235899470222248  1.0000
  H   H11       1.0  0.030388255824625773  0.25683863900687726  0.8235299044281459  1.0000
  H   H12       1.0  0.037048692675806905  0.235876663957815  0.12471809864077982  1.0000
  H   H13       1.0  0.03622138117885257  0.39866641357121463  0.12466370297696956  1.0000
  C   C21       1.0  0.022625625221452512  0.9702953143913542  0.7009394794318553  1.0000
  C   C22       1.0  0.9325955093415483  0.9594592733890615  0.7242695334465965  1.0000
  C   C23       1.0  0.865678029960288  0.9512758276399524  0.6546837957004786  1.0000
  C   C24       1.0  0.8875857141087804  0.9537982199820743  0.5611785816366099  1.0000
  C   C25       1.0  0.977121693499942  0.9646514355207616  0.5360600202005945  1.0000
  C   C26       1.0  0.04427438617719303  0.9728202645716785  0.6065894557003283  1.0000
  C   C27       1.0  0.00046406799526765505  0.9674547285172611  0.4365483799809268  1.0000
  C   C28       1.0  0.9593432176350861  0.908825749104545  0.37595066757291756  1.0000
  C   C29       1.0  0.9813314878807442  0.9114379521454216  0.28232380433624815  1.0000
  C   C30       1.0  0.044877327838091424  0.9728204267544112  0.24722356182578942  1.0000
  C   C31       1.0  0.0859528240640901  0.03147228028966229  0.3077077089955167  1.0000
  C   C32       1.0  0.06401489261324045  0.028808821180807964  0.40135483814821127  1.0000
  H   H14       1.0  0.23214479465844573  0.99549112872119  0.800676247381793  1.0000
  H   H15       1.0  0.9138285323227545  0.9573092481630188  0.7962760285725539  1.0000
  H   H16       1.0  0.7964903064991142  0.9431887037989368  0.6732874177750827  1.0000
  H   H17       1.0  0.834347924742361  0.9484561754978891  0.5084008127391539  1.0000
  H   H18       1.0  0.11357679093542948  0.9799207010523806  0.5879359141177184  1.0000
  H   H19       1.0  0.9109647853550327  0.8600565850349531  0.40124900666211505  1.0000
  H   H20       1.0  0.9486786846637764  0.8651891688300514  0.23750587563912587  1.0000
  H   H21       1.0  0.1349697859587058  0.07970390097964293  0.28271452310752987  1.0000
  H   H22       1.0  0.09595804293171484  0.0756441439642101  0.44598854164617685  1.0000
  Zn  Zn1       1.0  0.9355914004198994  0.9715589167370443  0.9740828655677016  1.0000
  Zn  Zn2       1.0  0.1319029358816504  0.9715563748209726  0.974079730001994  1.0000
  C   C33       1.0  0.04066976077429074  0.968789230924812  0.1439639734344531  1.0000
  C   C34       1.0  0.02682672280376108  0.9743271866207531  0.8041987134528334  1.0000
  C   C35       1.0  0.03357300708339396  0.13447169420646787  0.9703834427391462  1.0000
  C   C36       1.0  0.03392341167762348  0.8086436517730344  0.97777929368325  1.0000
  O   O1        1.0  0.10273585469773931  0.975675463242598  0.8388522655419719  1.0000
  O   O2        1.0  0.11375653114414487  0.9674383508231928  0.10930777373449327  1.0000
  O   O3        1.0  0.10802484789837435  0.1012290397473884  0.9691402671512148  1.0000
  O   O4        1.0  0.1084674681140314  0.8418847803785035  0.979019702385481  1.0000
  O   O5        1.0  0.9590268011958263  0.10123051118132978  0.9691428931803919  1.0000
  O   O6        1.0  0.9647584822669389  0.9674408938250143  0.10931035022473853  1.0000
  O   O7        1.0  0.9537377603330603  0.9756779699882704  0.8388537237324394  1.0000
  O   O8        1.0  0.9594693765871387  0.8418872810658913  0.9790212303118956  1.0000
