data_image0
_chemical_formula_structural       NC10NC3NCH9C6NCOC6H11C7OC6H10Zn2C4O8
_chemical_formula_sum              "N4 C44 H30 O10 Zn2"
_cell_length_a       19.437513618241372
_cell_length_b       10.29965916528486
_cell_length_c       10.299382801718288
_cell_angle_alpha    85.58981362736998
_cell_angle_beta     90.32786270847616
_cell_angle_gamma    89.53922106887035

_space_group_name_H-M_alt    "P 1"
_space_group_IT_number       1

loop_
  _space_group_symop_operation_xyz
  'x, y, z'

loop_
  _atom_site_type_symbol
  _atom_site_label
  _atom_site_symmetry_multiplicity
  _atom_site_fract_x
  _atom_site_fract_y
  _atom_site_fract_z
  _atom_site_occupancy
  N   N1        1.0  0.6483247262532402  0.4101763061140018  0.5762046146758146  1.0000
  C   C1        1.0  0.5893945211916368  0.42718541234816115  0.5732355599023882  1.0000
  C   C2        1.0  0.5159579572539772  0.4484367363486926  0.5695502412091358  1.0000
  C   C3        1.0  0.47418101419433123  0.3472485681832716  0.5578495477820771  1.0000
  C   C4        1.0  0.3982936646189194  0.3573120918731744  0.5506323133874407  1.0000
  C   C5        1.0  0.3587231917113857  0.43816627518116924  0.6164079415123558  1.0000
  C   C6        1.0  0.2825407569036978  0.4295572366768585  0.6079603119835888  1.0000
  C   C7        1.0  0.24938490428952462  0.30821709877656334  0.6125540470655013  1.0000
  C   C8        1.0  0.17765018611422684  0.3018446567434707  0.6053833776066004  1.0000
  C   C9        1.0  0.1381005694277932  0.41633972756740234  0.5939810116213373  1.0000
  C   C10       1.0  0.06425134678493248  0.4096290959153336  0.5866421123208143  1.0000
  N   N2        1.0  0.0048816698413905015  0.4042343381694782  0.5807420959304976  1.0000
  C   C11       1.0  0.17053967547791732  0.5373693945593105  0.5901324260275949  1.0000
  C   C12       1.0  0.2422588308122141  0.5439958269709297  0.5973652208687449  1.0000
  C   C13       1.0  0.3874098439727488  0.5304587937344825  0.7063656941776466  1.0000
  N   N3        1.0  0.4444079614750641  0.5936668518931647  0.6859873509033079  1.0000
  C   C14       1.0  0.48826197784680103  0.5843929823230516  0.57287594830406  1.0000
  H   H1        1.0  0.4965510280762671  0.2521941167663466  0.5456894438894047  1.0000
  H   H2        1.0  0.37357571561249425  0.287795510458392  0.4922857101932594  1.0000
  H   H3        1.0  0.2788190611682509  0.21830953684675714  0.6235381097621846  1.0000
  H   H4        1.0  0.15304066915362063  0.20762201107763945  0.6092319960634907  1.0000
  H   H5        1.0  0.140419826720384  0.6266223341263855  0.5814602441887471  1.0000
  H   H6        1.0  0.266386895700046  0.6386312565940835  0.593501311521347  1.0000
  H   H7        1.0  0.35739895322657483  0.5508532964168231  0.7907407250361884  1.0000
  H   H8        1.0  0.5310253573832184  0.6547037119138175  0.578668121047454  1.0000
  H   H9        1.0  0.4586113271498273  0.6124904802488287  0.48224183617884897  1.0000
  C   C15       1.0  0.8265459992726264  0.025845539844068236  0.5783571688348668  1.0000
  C   C16       1.0  0.827038329536188  0.03509292062910152  0.4415491217423637  1.0000
  C   C17       1.0  0.828300854854784  0.9228985604955979  0.3727304387567831  1.0000
  C   C18       1.0  0.8271679043167937  0.7999005233980016  0.4418471513628232  1.0000
  C   C19       1.0  0.8266669759492874  0.7885549174531225  0.578600866099175  1.0000
  C   C20       1.0  0.8266009479344166  0.9021310613646814  0.6460870629852502  1.0000
  N   N4        1.0  0.8277473001711486  0.9359546198864739  0.23265898351511716  1.0000
  C   C21       1.0  0.8600116507214121  0.8442732954737948  0.15334444640214917  1.0000
  O   O1        1.0  0.907464813640005  0.7706725385068635  0.20092579507927977  1.0000
  C   C22       1.0  0.8400388989353628  0.8383839165533362  0.014725752817388972  1.0000
  C   C23       1.0  0.7764291741208789  0.8892926942312219  0.9675710660936816  1.0000
  C   C24       1.0  0.7580168709351645  0.8825620214673022  0.8368157420593362  1.0000
  C   C25       1.0  0.802573670275636  0.824716696990296  0.7519272146629694  1.0000
  C   C26       1.0  0.8655779986495689  0.7730302325494514  0.7976979951181669  1.0000
  C   C27       1.0  0.8842529700154568  0.7794001761040104  0.9283521885761726  1.0000
  H   H10       1.0  0.8249606327546127  0.2156768090222703  0.8364126434890486  1.0000
  H   H11       1.0  0.8269688994212978  0.1296934268374834  0.38772592990366683  1.0000
  H   H12       1.0  0.8254688595093056  0.7131284730292718  0.38902086886951803  1.0000
  H   H13       1.0  0.8262306164322831  0.8941368330130549  0.7515507460619569  1.0000
  H   H14       1.0  0.8255595031832503  0.45676891508811207  0.6310475882018494  1.0000
  H   H15       1.0  0.808125082237407  0.02240607190158017  0.18646943805413496  1.0000
  H   H16       1.0  0.7403648425161459  0.9326024378210961  0.03159363334863552  1.0000
  H   H17       1.0  0.7089913868769059  0.9218059229404267  0.8014065557928367  1.0000
  H   H18       1.0  0.7881839970041475  0.8195805520233714  0.6507879079999155  1.0000
  H   H19       1.0  0.9000148117165339  0.7279515117012676  0.7318910198504409  1.0000
  H   H20       1.0  0.9334511414194075  0.7389668672776032  0.9615448931338382  1.0000
  C   C28       1.0  0.8266751126986335  0.40712588020750085  0.19711009104311628  1.0000
  C   C29       1.0  0.8989544502588458  0.4067847905982098  0.19672653358137482  1.0000
  C   C30       1.0  0.9354098623992636  0.4051247148606152  0.0794744870260693  1.0000
  C   C31       1.0  0.8987868006364411  0.40681562058627824  0.9614788402953072  1.0000
  C   C32       1.0  0.8265378465950748  0.4072746199756445  0.9598479248619584  1.0000
  C   C33       1.0  0.7909010428118023  0.4070823742625451  0.07823459870257254  1.0000
  C   C34       1.0  0.011727667205257756  0.4061484864639491  0.07881794088919514  1.0000
  O   O2        1.0  0.042051066632361245  0.4663506507960767  0.9846962574275441  1.0000
  C   C35       1.0  0.05364526114343726  0.33886823816022527  0.18483640356517017  1.0000
  C   C36       1.0  0.11832008826070539  0.38824908369131816  0.21677689312612933  1.0000
  C   C37       1.0  0.15856029627910906  0.3246460218036169  0.31552341347580315  1.0000
  C   C38       1.0  0.13496808196833854  0.21073819292014773  0.3825508227973089  1.0000
  C   C39       1.0  0.0712053393824601  0.15989521724144032  0.35059846197210914  1.0000
  C   C40       1.0  0.030769079637680722  0.22312284252758996  0.25195138712989884  1.0000
  H   H21       1.0  0.6902735020683956  0.40978121078833696  0.4049991077294279  1.0000
  H   H22       1.0  0.9269833518469024  0.4092680966090139  0.28768300937628455  1.0000
  H   H23       1.0  0.9268223240974178  0.4065197544060202  0.8708841909043324  1.0000
  H   H24       1.0  0.7351791195781866  0.40734612734018777  0.07772605756189188  1.0000
  H   H25       1.0  0.7987831603439367  0.4085558971700647  0.6316799414431431  1.0000
  H   H26       1.0  0.13743509776974205  0.47660157271788656  0.16611282930158278  1.0000
  H   H27       1.0  0.2080906976834687  0.363703442880607  0.3400390919100116  1.0000
  H   H28       1.0  0.16621432709900952  0.161591308499027  0.4588764143987569  1.0000
  H   H29       1.0  0.05321013406847318  0.07106816827209704  0.4019053935960728  1.0000
  H   H30       1.0  0.9820642823196174  0.18076956792793733  0.22725895186669076  1.0000
  Zn  Zn1       1.0  0.7512193617229631  0.40845809485143675  0.5775215415907892  1.0000
  Zn  Zn2       1.0  0.9019870369691513  0.40594188222159844  0.5794358354793385  1.0000
  C   C41       1.0  0.8265614580798317  0.40207297032041156  0.8156725033594578  1.0000
  C   C42       1.0  0.8266465872275992  0.4123286178804946  0.3412850226047597  1.0000
  C   C43       1.0  0.8266415075194855  0.6443856877182557  0.5733796038965382  1.0000
  C   C44       1.0  0.8265664860815148  0.1700143410898911  0.5835779901545228  1.0000
  O   O3        1.0  0.8838525599437943  0.4131141489869947  0.3903979094349703  1.0000
  O   O4        1.0  0.8837846622608136  0.3993767122773393  0.7680121471377945  1.0000
  O   O5        1.0  0.8838485316597826  0.5950473091743504  0.5723589071972832  1.0000
  O   O6        1.0  0.8837886391170248  0.2174435622196065  0.5860510513505575  1.0000
  O   O7        1.0  0.7694177081254829  0.5969564157135012  0.5709063250594855  1.0000
  O   O8        1.0  0.7693538389833379  0.40128737906932166  0.7665594962530675  1.0000
  O   O9        1.0  0.7694217369858405  0.4150247702188736  0.3889436971355824  1.0000
  O   O10       1.0  0.7693578161372648  0.21935417418193495  0.5845969364160088  1.0000
