data_image0
_chemical_formula_structural       NC12NC2H8C7OC4NC3H8C6NCOC6H11Zn2C4O8
_chemical_formula_sum              "N4 C45 H27 O10 Zn2"
_cell_length_a       19.240039667572717
_cell_length_b       10.299371701877257
_cell_length_c       10.299662537453274
_cell_angle_alpha    85.55951811676591
_cell_angle_beta     89.98643935911939
_cell_angle_gamma    90.00851160782973

_space_group_name_H-M_alt    "P 1"
_space_group_IT_number       1

loop_
  _space_group_symop_operation_xyz
  'x, y, z'

loop_
  _atom_site_type_symbol
  _atom_site_label
  _atom_site_symmetry_multiplicity
  _atom_site_fract_x
  _atom_site_fract_y
  _atom_site_fract_z
  _atom_site_occupancy
  N   N1        1.0  0.6547716243135904  0.4218194936290209  0.5679739027390094  1.0000
  C   C1        1.0  0.5946232555133676  0.42181957764148503  0.5679738208330414  1.0000
  C   C2        1.0  0.519805218398926  0.4218196949794159  0.5679736835712088  1.0000
  C   C3        1.0  0.4833132761324794  0.357315108788588  0.6713626005469988  1.0000
  C   C4        1.0  0.4106425082525936  0.357204194465099  0.6714491014231572  1.0000
  C   C5        1.0  0.3734729834978047  0.42181978763093925  0.5679734559212609  1.0000
  C   C6        1.0  0.410679137120437  0.486435567710145  0.46449800503588756  1.0000
  C   C7        1.0  0.48334980577003334  0.48632441784014996  0.46458462832360437  1.0000
  C   C8        1.0  0.2962678930640175  0.42181970900561194  0.5679733604735165  1.0000
  C   C9        1.0  0.2590657765035705  0.3085427400385145  0.6098007960332573  1.0000
  C   C10       1.0  0.18639510818870678  0.3086496751381022  0.6097095105381545  1.0000
  C   C11       1.0  0.14993560612283546  0.42181957980929563  0.5679734213346566  1.0000
  C   C12       1.0  0.0751175689273314  0.42181946597198977  0.5679736699556428  1.0000
  N   N2        1.0  0.0149692520455755  0.42181942506943915  0.5679738783628164  1.0000
  C   C13       1.0  0.18642361492630607  0.5349895603283514  0.5262372792689494  1.0000
  C   C14       1.0  0.25909433124837744  0.5350966756109696  0.5261458312464284  1.0000
  H   H1        1.0  0.5110139434367401  0.3073739987231403  0.752085894010493  1.0000
  H   H2        1.0  0.38353492489413527  0.3080607494955401  0.7532882319040108  1.0000
  H   H3        1.0  0.3836001896993609  0.5355790397514654  0.38265882371622284  1.0000
  H   H4        1.0  0.5110789098859356  0.5362654275383718  0.38386161062143714  1.0000
  H   H5        1.0  0.2861480158384345  0.21937528155414296  0.6409342850297064  1.0000
  H   H6        1.0  0.15866917092312097  0.22038100827856574  0.6418763343549926  1.0000
  H   H7        1.0  0.1587197287403081  0.6232582026454475  0.49407046999326  1.0000
  H   H8        1.0  0.2861985707426896  0.6242642132891507  0.4950122975084474  1.0000
  C   C15       1.0  0.8348374375577162  0.04044908394806068  0.5678468790126451  1.0000
  C   C16       1.0  0.8382316135342436  0.049841420666192786  0.43118236417371847  1.0000
  C   C17       1.0  0.8391543611545897  0.9374097662553608  0.36219017300016176  1.0000
  C   C18       1.0  0.8382401710691624  0.8145729854329566  0.43149975916486183  1.0000
  C   C19       1.0  0.8349101121286416  0.803179842081055  0.5681120903169208  1.0000
  C   C20       1.0  0.833045152631163  0.9167197978908281  0.6354793818857808  1.0000
  C   C21       1.0  0.8434683008142146  0.9471836459768089  0.21794058542618178  1.0000
  O   O1        1.0  0.8769265525131208  0.8614575039928279  0.16299486399626817  1.0000
  C   C22       1.0  0.8098142380134079  0.05412776274937281  0.13602863362024853  1.0000
  C   C23       1.0  0.8395961298644148  0.0988172094968611  0.016058690384213703  1.0000
  C   C24       1.0  0.8077747184043634  0.19875009099159602  0.9372681333080565  1.0000
  C   C25       1.0  0.838905236114514  0.2446244116487741  0.8151120467764511  1.0000
  N   N3        1.0  0.8639327847331946  0.2814977293362275  0.7169162674913538  1.0000
  C   C26       1.0  0.7456526460179038  0.25391340641032256  0.9774398732870461  1.0000
  C   C27       1.0  0.7152842592580899  0.20901398772124022  0.09567027161718354  1.0000
  C   C28       1.0  0.7469061160613754  0.10937858497978056  0.17444943114614664  1.0000
  H   H9        1.0  0.8409400653551476  0.14478506139708336  0.37829588601046316  1.0000
  H   H10       1.0  0.839466644222955  0.7277554171857852  0.3784876452845287  1.0000
  H   H11       1.0  0.830428871196907  0.9086751008245463  0.7408379817641007  1.0000
  H   H12       1.0  0.8342158346769675  0.47134268525178313  0.6206372150692128  1.0000
  H   H13       1.0  0.8877995475798  0.05673794169803245  0.9844818796607873  1.0000
  H   H14       1.0  0.7206050524195461  0.33115231628266395  0.9172005552989111  1.0000
  H   H15       1.0  0.6669623109667299  0.25110987486703834  0.12609407937909745  1.0000
  H   H16       1.0  0.7217849989698026  0.07463476402704661  0.26460551866375787  1.0000
  C   C29       1.0  0.8349216311472505  0.4219550001825889  0.186603553512324  1.0000
  C   C30       1.0  0.9058735971584803  0.45432962197652244  0.18280081367692946  1.0000
  C   C31       1.0  0.9418202033939658  0.4687547211085061  0.06420115873955301  1.0000
  C   C32       1.0  0.9057519506528077  0.45401954812974504  0.9476574093086092  1.0000
  C   C33       1.0  0.8348259371076573  0.4216739306852386  0.9493554121218746  1.0000
  C   C34       1.0  0.7998705135224107  0.4053797372366632  0.06939678037976327  1.0000
  N   N4        1.0  0.014198302957313613  0.5038403570194703  0.06372977023415016  1.0000
  C   C35       1.0  0.0633844490331712  0.46399023651458826  0.9695029020420382  1.0000
  O   O2        1.0  0.05069851745337849  0.36543183923446726  0.907917116476048  1.0000
  C   C36       1.0  0.13012111197329612  0.5343190715145603  0.9471769091472438  1.0000
  C   C37       1.0  0.13851824411507963  0.6623895676663221  0.9835752529326193  1.0000
  C   C38       1.0  0.20157680029898617  0.727945223706217  0.9614074452586845  1.0000
  C   C39       1.0  0.2567436762553388  0.6669180815824268  0.9024113817467456  1.0000
  C   C40       1.0  0.2489106571780477  0.54029397138568  0.8650075728812382  1.0000
  C   C41       1.0  0.18597056086921815  0.47428128230910066  0.8868461421477022  1.0000
  H   H17       1.0  0.7009224265948406  0.3620917800105989  0.40094762378668886  1.0000
  H   H18       1.0  0.9337213455119899  0.4675488157470895  0.2722257810514259  1.0000
  H   H19       1.0  0.932673250085825  0.4699834980859867  0.8555497550112463  1.0000
  H   H20       1.0  0.7451767402247542  0.3804056009375467  0.07146414611544993  1.0000
  H   H21       1.0  0.807394482548071  0.4109468750070541  0.6224281131233746  1.0000
  H   H22       1.0  0.0331710391093043  0.5510442717261259  0.14266877180363613  1.0000
  H   H23       1.0  0.09629233744588905  0.7129248991110946  0.027366684450172308  1.0000
  H   H24       1.0  0.20756511299302247  0.8264249694569283  0.9895575421961714  1.0000
  H   H25       1.0  0.30548230815199284  0.7178963116136022  0.8853115842222525  1.0000
  H   H26       1.0  0.29165062697729294  0.49317595728219077  0.8190203488386354  1.0000
  H   H27       1.0  0.18117322770617839  0.3760241579289467  0.8573210850306001  1.0000
  Zn  Zn1       1.0  0.7587168868814674  0.4218160038693723  0.5679813830626113  1.0000
  Zn  Zn2       1.0  0.911024005909392  0.42181231740269154  0.5679769934505321  1.0000
  C   C42       1.0  0.8348419640200234  0.4165533722972925  0.8051771857273653  1.0000
  C   C43       1.0  0.8349005920999715  0.4270765875134258  0.3307813187764214  1.0000
  C   C44       1.0  0.8348934452907069  0.6590094158307949  0.5628866964315198  1.0000
  C   C45       1.0  0.8348490587001601  0.1846189836470928  0.5730718767711204  1.0000
  O   O3        1.0  0.8926932885795564  0.42878837424985056  0.3791670260742034  1.0000
  O   O4        1.0  0.892646846689357  0.4148378080294439  0.7567877726219998  1.0000
  O   O5        1.0  0.892687639128663  0.6106241289791863  0.561136488762197  1.0000
  O   O6        1.0  0.8926524441812524  0.2330020626275049  0.5748182125622747  1.0000
  O   O7        1.0  0.7770883966346633  0.6106262586472331  0.5611401639455362  1.0000
  O   O8        1.0  0.7770476043495417  0.4148414980329951  0.7567913791011527  1.0000
  O   O9        1.0  0.7770940464775922  0.42879201957260893  0.37916907110819653  1.0000
  O   O10       1.0  0.7770532020633426  0.23300569862554066  0.5748203549626669  1.0000
