data_image0
_chemical_formula_structural       NC12NC2H8C7OC3FC3H9C7OC3FC3H9Zn2C4O8
_chemical_formula_sum              "N2 C44 H26 O10 F2 Zn2"
_cell_length_a       19.240039667572717
_cell_length_b       10.299378350833068
_cell_length_c       10.29938172300155
_cell_angle_alpha    85.56710995607625
_cell_angle_beta     89.98344622294186
_cell_angle_gamma    90.01886762376958

_space_group_name_H-M_alt    "P 1"
_space_group_IT_number       1

loop_
  _space_group_symop_operation_xyz
  'x, y, z'

loop_
  _atom_site_type_symbol
  _atom_site_label
  _atom_site_symmetry_multiplicity
  _atom_site_fract_x
  _atom_site_fract_y
  _atom_site_fract_z
  _atom_site_occupancy
  N   N1        1.0  0.654949189034422  0.4209660287561852  0.5672931544136173  1.0000
  C   C1        1.0  0.5948008202446158  0.42096611271993695  0.5672930724673664  1.0000
  C   C2        1.0  0.5199827831453591  0.4209662299753421  0.5672929351497715  1.0000
  C   C3        1.0  0.4834817153056932  0.35652471093091553  0.6707118946380575  1.0000
  C   C4        1.0  0.4108109342762001  0.3564138472098425  0.670798449170616  1.0000
  C   C5        1.0  0.37365054825954946  0.42096632248612376  0.5672927074584058  1.0000
  C   C6        1.0  0.4108658406330014  0.4855189848061984  0.4637871602648411  1.0000
  C   C7        1.0  0.48353649610677146  0.48540788560724435  0.4638738373242494  1.0000
  C   C8        1.0  0.296445457820806  0.42096624379732495  0.5672926120521304  1.0000
  C   C9        1.0  0.2592312068355714  0.3077114780618702  0.6091758656802222  1.0000
  C   C10       1.0  0.1865605514182015  0.30781835937589563  0.6090845286264726  1.0000
  C   C11       1.0  0.15011317086541787  0.42096611463466865  0.5672926729766448  1.0000
  C   C12       1.0  0.0752951336519667  0.4209660009505894  0.5672929216492009  1.0000
  N   N2        1.0  0.015146816760446392  0.42096596017855203  0.5672931300722965  1.0000
  C   C13       1.0  0.18661330119079322  0.5341139457106869  0.5255007644277776  1.0000
  C   C14       1.0  0.25928403043233306  0.5342210071115936  0.5254092647599256  1.0000
  H   H1        1.0  0.5111752985064428  0.3066328580440663  0.7514584329626979  1.0000
  H   H2        1.0  0.3836963129881041  0.3073203968203045  0.752660400569934  1.0000
  H   H3        1.0  0.3837939311456001  0.5346124622363096  0.38192515801426663  1.0000
  H   H4        1.0  0.5112726843087865  0.5352996382978047  0.383127574805165  1.0000
  H   H5        1.0  0.2863039442851261  0.21856036185726446  0.6403533318391115  1.0000
  H   H6        1.0  0.1588251705315935  0.21956672375730554  0.6412948568212558  1.0000
  H   H7        1.0  0.1589188586230358  0.6223655567951191  0.49329045078611666  1.0000
  H   H8        1.0  0.2863977718208696  0.6233722024846644  0.4942317538208203  1.0000
  C   C15       1.0  0.8349780740630914  0.039581052635746294  0.567357140555111  1.0000
  C   C16       1.0  0.7624647833841574  0.039584684538420456  0.5513324221718519  1.0000
  C   C17       1.0  0.725802611378243  0.9222990760746258  0.5447273430230102  1.0000
  C   C18       1.0  0.7626347286551408  0.8043406833302587  0.551339297369104  1.0000
  C   C19       1.0  0.8351245883610919  0.80234099636532  0.5672403472464134  1.0000
  C   C20       1.0  0.8708553320858935  0.9204812801557439  0.5754991932926541  1.0000
  C   C21       1.0  0.6493196745335071  0.9222649413506833  0.5264331521821592  1.0000
  O   O1        1.0  0.6224842842541081  0.8375577770894593  0.4597723839682159  1.0000
  C   C22       1.0  0.6032798863607235  0.018226916498441437  0.5837718796066615  1.0000
  C   C23       1.0  0.5413777615068032  0.05820903627014861  0.5199912601970929  1.0000
  C   C24       1.0  0.49721921887997  0.14747950037239727  0.5740519795647825  1.0000
  F   F1        1.0  0.43792647098360415  0.18615396061950598  0.5113327162934602  1.0000
  C   C25       1.0  0.5141174001554005  0.19680606049924854  0.6926566452164362  1.0000
  C   C26       1.0  0.5750215442193285  0.15657189796214263  0.7576518235736531  1.0000
  C   C27       1.0  0.6193237370691362  0.06737314344824742  0.7039958149525845  1.0000
  H   H9        1.0  0.9719408350926809  0.24704839991404004  0.5956015950411127  1.0000
  H   H10       1.0  0.7345010836194424  0.13109390855354253  0.5425193222768645  1.0000
  H   H11       1.0  0.7344989126464037  0.7138705789389523  0.5452870132360768  1.0000
  H   H12       1.0  0.926757690556231  0.9196744767118782  0.5878523182132251  1.0000
  H   H13       1.0  0.8630374627662009  0.4742007036956816  0.5722527427644253  1.0000
  H   H14       1.0  0.5275442614861559  0.021184034718902952  0.4278332061309422  1.0000
  H   H15       1.0  0.47991477585960923  0.2658046013268636  0.7345354856036115  1.0000
  H   H16       1.0  0.587780515139316  0.19408411645815465  0.8500234473621284  1.0000
  H   H17       1.0  0.6656347834574813  0.03582458272816292  0.7571477896196954  1.0000
  C   C28       1.0  0.8351098286588028  0.4208598670733459  0.18593108935192193  1.0000
  C   C29       1.0  0.8570793267751963  0.29040019191539046  0.1948123050135986  1.0000
  C   C30       1.0  0.8689152941442803  0.2250561887199012  0.08208290335768442  1.0000
  C   C31       1.0  0.8570129080485162  0.29069333773528805  0.9595462101172245  1.0000
  C   C32       1.0  0.8349928229315761  0.4210621208445865  0.9486664139582124  1.0000
  C   C33       1.0  0.8243439105934472  0.4854949562379276  0.062448644279995635  1.0000
  C   C34       1.0  0.8914100319213772  0.08688222612985719  0.09134935252990983  1.0000
  O   O2        1.0  0.8699891439725596  0.013635201073721296  0.007179314688047442  1.0000
  C   C35       1.0  0.9382104382842413  0.03180691657925651  0.19600299368460394  1.0000
  C   C36       1.0  0.9325860937903022  0.8998408008184855  0.24129635067994262  1.0000
  C   C37       1.0  0.9770191831176961  0.8466315429853576  0.3388609609840987  1.0000
  F   F2        1.0  0.9708401318645619  0.7195592971263199  0.3825492195576974  1.0000
  C   C38       1.0  0.02779518332378194  0.9242582165063239  0.3913169903266245  1.0000
  C   C39       1.0  0.03442019368312943  0.0550188360674646  0.34595875934447995  1.0000
  C   C40       1.0  0.9901250066550453  0.10863988065151832  0.24846506182355935  1.0000
  H   H18       1.0  0.7926296093007541  0.6664398523390751  0.37653887750171955  1.0000
  H   H19       1.0  0.8642700957226735  0.23900766983371646  0.2896257634090422  1.0000
  H   H20       1.0  0.8656177605464993  0.24014183521710142  0.8725281431881492  1.0000
  H   H21       1.0  0.8074067383647143  0.5860693432833544  0.05479783347696032  1.0000
  H   H22       1.0  0.8259734939906044  0.4708053124445716  0.6170566360175962  1.0000
  H   H23       1.0  0.8934209538362639  0.8383220851948557  0.2019328307391357  1.0000
  H   H24       1.0  0.062213610366217635  0.8830481391250409  0.46673997886305374  1.0000
  H   H25       1.0  0.07413036388914618  0.11478974430817782  0.3859614708149923  1.0000
  H   H26       1.0  0.996977735549378  0.20960282002616906  0.21318887692850774  1.0000
  Zn  Zn1       1.0  0.7588944510560547  0.4209625436042431  0.567300636321225  1.0000
  Zn  Zn2       1.0  0.9112015698492167  0.4209588542158505  0.5672962486516238  1.0000
  C   C41       1.0  0.835012413590831  0.4158500224907087  0.804493880141736  1.0000
  C   C42       1.0  0.835085270798687  0.4260730140113853  0.330103131998301  1.0000
  C   C43       1.0  0.8350941210441383  0.6581617366128691  0.5620872643640054  1.0000
  C   C44       1.0  0.8350035110632366  0.18375973954066077  0.5725098172548639  1.0000
  O   O3        1.0  0.8928767856948326  0.4278155276631632  0.3784869223081673  1.0000
  O   O4        1.0  0.8928184775809818  0.4141037288156606  0.7561063859973978  1.0000
  O   O5        1.0  0.892883678007368  0.6097735027961941  0.5603613285055187  1.0000
  O   O6        1.0  0.892811533313063  0.23214576294867653  0.5742318824257753  1.0000
  O   O7        1.0  0.7772844356172652  0.6097756348740885  0.5603650025417395  1.0000
  O   O8        1.0  0.7772192354980783  0.41410742124478916  0.7561099905494522  1.0000
  O   O9        1.0  0.7772775438889339  0.4278191744203179  0.3784889654716359  1.0000
  O   O10       1.0  0.7772122914876041  0.2321494004424549  0.5742340229581815  1.0000
