data_image0
_chemical_formula_structural       NC9NC3NH7C7ONH7C7NC2NH8Zn2C4O8
_chemical_formula_sum              "N6 C32 H22 O9 Zn2"
_cell_length_a       16.053384444249904
_cell_length_b       10.297852080636378
_cell_length_c       9.27399911348925
_cell_angle_alpha    85.0628220767755
_cell_angle_beta     89.45501548333611
_cell_angle_gamma    89.15396345524235

_space_group_name_H-M_alt    "P 1"
_space_group_IT_number       1

loop_
  _space_group_symop_operation_xyz
  'x, y, z'

loop_
  _atom_site_type_symbol
  _atom_site_label
  _atom_site_symmetry_multiplicity
  _atom_site_fract_x
  _atom_site_fract_y
  _atom_site_fract_z
  _atom_site_occupancy
  N   N1        1.0  0.7895378772457897  0.4165925172922802  0.4046239913420744  1.0000
  C   C1        1.0  0.7390737278777096  0.39642229749553537  0.3214398840128678  1.0000
  C   C2        1.0  0.6763604461902402  0.37136040810472415  0.21810494447002604  1.0000
  C   C3        1.0  0.6904800812304421  0.360408217450761  0.07281088744488962  1.0000
  C   C4        1.0  0.6140615601511278  0.3355272804728975  0.014737370134466413  1.0000
  C   C5        1.0  0.5565780958584494  0.3326853492415518  0.12773312060071462  1.0000
  C   C6        1.0  0.4659704616410527  0.308948082079175  0.11634511520447123  1.0000
  C   C7        1.0  0.4097055929808009  0.3508584676262334  0.22071122491681905  1.0000
  C   C8        1.0  0.3241999128922446  0.3283467139596499  0.20980366699552722  1.0000
  C   C9        1.0  0.2671454979638362  0.3719818105141435  0.3168058594079506  1.0000
  N   N2        1.0  0.2212904704139975  0.40705828782400794  0.4028188651346565  1.0000
  C   C10       1.0  0.2942330457204054  0.26381245230298633  0.09454523682202898  1.0000
  C   C11       1.0  0.3494885253356483  0.2220198764552421  0.9904143710845249  1.0000
  C   C12       1.0  0.4347897942868686  0.24436929534558538  0.0008811754966229212  1.0000
  N   N3        1.0  0.5953350087327313  0.35469938389673294  0.2517128823414956  1.0000
  H   H1        1.0  0.7494097236798625  0.36949006389785954  0.015445927934141011  1.0000
  H   H2        1.0  0.602191054300075  0.32262414221522506  0.9022932435402106  1.0000
  H   H3        1.0  0.4317060003149549  0.4026382698547899  0.3093973356566688  1.0000
  H   H4        1.0  0.2282472573701739  0.245915275852427  0.0851735420318056  1.0000
  H   H5        1.0  0.3261982866547464  0.17188414654769857  0.901468357628529  1.0000
  H   H6        1.0  0.4761972884030247  0.20955051338512964  0.9194752164514853  1.0000
  H   H7        1.0  0.5688160372685093  0.35626738017853216  0.35480350298843844  1.0000
  C   C13       1.0  0.005506931697899952  0.03038615975307457  0.40372964413220647  1.0000
  C   C14       1.0  0.9946168407795721  0.04134710712381384  0.25299419944138934  1.0000
  C   C15       1.0  0.9883586747516976  0.9298273853189106  0.17668519048966314  1.0000
  C   C16       1.0  0.9944063949639557  0.8060999357593255  0.25294528667655003  1.0000
  C   C17       1.0  0.0053292984780439695  0.7932544168838714  0.40372558783737955  1.0000
  C   C18       1.0  0.01061082449203132  0.9059302441447366  0.478167587721124  1.0000
  C   C19       1.0  0.9770632571447339  0.9440005815156552  0.01745813778165828  1.0000
  O   O1        1.0  0.9995645859603026  0.0471724647715761  0.9454898053439975  1.0000
  N   N4        1.0  0.9400959506627158  0.8435921895428495  0.9430935649386806  1.0000
  H   H8        1.0  0.026391176429138033  0.21693735451528173  0.6885418787937474  1.0000
  H   H9        1.0  0.9902502679974473  0.1370269640769446  0.1948320870033058  1.0000
  H   H10       1.0  0.9922462437207391  0.7194019540951299  0.19506594274408506  1.0000
  H   H11       1.0  0.019001874737815342  0.8967290025468516  0.5943412765558409  1.0000
  H   H12       1.0  0.027309313908404853  0.561693287724396  0.6884017194966447  1.0000
  H   H13       1.0  0.9362812327709398  0.8536326545725103  0.8303381243712398  1.0000
  H   H14       1.0  0.9114569493058694  0.7636533948823934  0.9986730283894797  1.0000
  C   C20       1.0  0.0068561817442494  0.41511288979748096  0.979870221414457  1.0000
  C   C21       1.0  0.07226781119220393  0.35147092001294866  0.05808165171911007  1.0000
  C   C22       1.0  0.13216692870748337  0.27870337761818353  0.9891794934715232  1.0000
  C   C23       1.0  0.12826444584626695  0.26707550011890113  0.8398994879578785  1.0000
  C   C24       1.0  0.06410612977707619  0.3328833466018913  0.7601241599296298  1.0000
  C   C25       1.0  0.0039800786575137055  0.4085276882900009  0.8275850189450664  1.0000
  C   C26       1.0  0.1922183036505365  0.1879783141774214  0.7689370308500165  1.0000
  N   N5        1.0  0.2619929649108137  0.14105290395372405  0.8366844056279876  1.0000
  C   C27       1.0  0.3023378152855033  0.0751694167153538  0.7371931310990685  1.0000
  C   C28       1.0  0.2568297289318662  0.08264781874749659  0.611841281311198  1.0000
  N   N6        1.0  0.18757246397542304  0.15353547112467125  0.6319634744237801  1.0000
  H   H15       1.0  0.9181366749950477  0.5810227255902272  0.24681731550578093  1.0000
  H   H16       1.0  0.07604076135022453  0.3552529710559349  0.17421700502161253  1.0000
  H   H17       1.0  0.1810342984148305  0.22977336683013608  0.05370320391177485  1.0000
  H   H18       1.0  0.06204618859447742  0.3294142647030738  0.6440277982561091  1.0000
  H   H19       1.0  0.8739782332133571  0.48470911851010073  0.5423659537482632  1.0000
  H   H20       1.0  0.36128275888716344  0.024430614594068707  0.7553154352172768  1.0000
  H   H21       1.0  0.27283086076663476  0.03892204107064523  0.5130819744818349  1.0000
  H   H22       1.0  0.14043714812836128  0.17426458971000486  0.556455020378321  1.0000
  Zn  Zn1       1.0  0.9141323195479318  0.413837615763103  0.4041113985486773  1.0000
  Zn  Zn2       1.0  0.09669596709190054  0.4098025153650122  0.4033432547704745  1.0000
  C   C29       1.0  0.004523069126822102  0.4045978395179393  0.6673488401205134  1.0000
  C   C30       1.0  0.006307210240164002  0.4190438853677377  0.1401059464694825  1.0000
  C   C31       1.0  0.005378126116292624  0.6491008510974865  0.3979746741097594  1.0000
  C   C32       1.0  0.005452091056717289  0.17453931397749553  0.40948018970308353  1.0000
  O   O2        1.0  0.07540492451224368  0.4188261970348246  0.19359101303850879  1.0000
  O   O3        1.0  0.07398694074317258  0.40175200333936495  0.6132803547061996  1.0000
  O   O4        1.0  0.0746764710300154  0.5991912863364114  0.39575881370821486  1.0000
  O   O5        1.0  0.07471533229380833  0.22138692554731554  0.41111244607533104  1.0000
  O   O6        1.0  0.9361128920460365  0.6022532069592552  0.3963422074983589  1.0000
  O   O7        1.0  0.9354233616531825  0.4048154851513579  0.6138636715280337  1.0000
  O   O8        1.0  0.9368413513758695  0.4218896470618707  0.19417259450321356  1.0000
  O   O9        1.0  0.9361517587890393  0.22445036544327923  0.41169413575573643  1.0000
