data_image0
_chemical_formula_structural       NC12NC2H8C9H8C6NCH7Zn2C4O8
_chemical_formula_sum              "N3 C34 H23 Zn2 O8"
_cell_length_a       19.240039667572717
_cell_length_b       9.275152443626249
_cell_length_c       9.273390368590327
_cell_angle_alpha    85.97038560770253
_cell_angle_beta     89.99083702737411
_cell_angle_gamma    90.57354334366605

_space_group_name_H-M_alt    "P 1"
_space_group_IT_number       1

loop_
  _space_group_symop_operation_xyz
  'x, y, z'

loop_
  _atom_site_type_symbol
  _atom_site_label
  _atom_site_symmetry_multiplicity
  _atom_site_fract_x
  _atom_site_fract_y
  _atom_site_fract_z
  _atom_site_occupancy
  N   N1        1.0  0.6621368877650721  0.5618382846871226  0.4048066150572496  1.0000
  C   C1        1.0  0.6019885194003189  0.5618383770060862  0.4048065238074148  1.0000
  C   C2        1.0  0.5271704828917981  0.5618385056664079  0.4048063709858525  1.0000
  C   C3        1.0  0.4903482402559574  0.49145051543359103  0.5198143032871954  1.0000
  C   C4        1.0  0.4176768952989442  0.4913283707487124  0.5199107660294846  1.0000
  C   C5        1.0  0.3808382484571868  0.5618386058026366  0.4048061179609992  1.0000
  C   C6        1.0  0.41837528099940097  0.6323490508496954  0.2897016850767844  1.0000
  C   C7        1.0  0.49104537134021087  0.6322266460206156  0.28979828466039503  1.0000
  C   C8        1.0  0.3036331575986341  0.5618385173030123  0.404806012370857  1.0000
  C   C9        1.0  0.26583701716155034  0.43652425229970326  0.4517026648670579  1.0000
  C   C10       1.0  0.1931669044310506  0.43664191858427553  0.45160090924634666  1.0000
  C   C11       1.0  0.1573008699812634  0.5618383745383002  0.40480608045735056  1.0000
  C   C12       1.0  0.08248283220946678  0.5618382511254663  0.4048063568442555  1.0000
  N   N2        1.0  0.022334515132558897  0.5618382082356363  0.4048065882957739  1.0000
  C   C13       1.0  0.19438234679607697  0.6870349140967544  0.3580111926841718  1.0000
  C   C14       1.0  0.26705361963778634  0.6871527785397957  0.35790925593787337  1.0000
  H   H1        1.0  0.5177932482469976  0.43696258432861906  0.6096076267263584  1.0000
  H   H2        1.0  0.3903179766928685  0.4377400811343619  0.610939010444197  1.0000
  H   H3        1.0  0.39154766896382004  0.6859373699141007  0.19867338412955737  1.0000
  H   H4        1.0  0.5190301342668915  0.6867144690061633  0.20000526767001564  1.0000
  H   H5        1.0  0.2924514835262931  0.3378596127346962  0.4866298454798934  1.0000
  H   H6        1.0  0.1649780440494019  0.3389882420004518  0.4876710269830042  1.0000
  H   H7        1.0  0.16714138359798958  0.7846885635970209  0.32194109118822567  1.0000
  H   H8        1.0  0.29462563251596113  0.7858175055249225  0.3229820253385809  1.0000
  C   C15       1.0  0.8401886940288678  0.13822160726952748  0.4062780034440321  1.0000
  C   C16       1.0  0.8151190155637725  0.21965958258942586  0.28383544922437265  1.0000
  C   C17       1.0  0.7965100166105312  0.15289244527773338  0.1591004636704183  1.0000
  C   C18       1.0  0.8026785125465412  0.0034998889903496964  0.15433831642188012  1.0000
  C   C19       1.0  0.8263890942045143  0.9203627682684098  0.27574607263751605  1.0000
  C   C20       1.0  0.8442893340709621  0.985443978766219  0.4033476269333931  1.0000
  C   C21       1.0  0.7838512923804075  0.9349774395242251  0.025167394020386705  1.0000
  C   C22       1.0  0.7680878952180615  0.8775724628220698  0.9170069990733908  1.0000
  C   C23       1.0  0.7489621286895772  0.8079096758342463  0.7857733289998068  1.0000
  H   H9        1.0  0.9400515606112123  0.22293243352870332  0.6941154687733024  1.0000
  H   H10       1.0  0.8114578189123809  0.3361722504043243  0.2833820962676983  1.0000
  H   H11       1.0  0.7779296628251617  0.2181400733214203  0.06575682165352514  1.0000
  H   H12       1.0  0.8293155064050406  0.8040100034888977  0.2717254752853302  1.0000
  H   H13       1.0  0.9092958847316576  0.6922370917839841  0.6002187899196068  1.0000
  H   H14       1.0  0.7616677012917882  0.6913309578743105  0.7992378458940526  1.0000
  H   H15       1.0  0.6923932420607941  0.8202825319493602  0.766042526272734  1.0000
  H   H16       1.0  0.778316096402549  0.85926662591584  0.6924823059635146  1.0000
  C   C24       1.0  0.842249452539882  0.557334320581232  0.9815826204383707  1.0000
  C   C25       1.0  0.9060707273821049  0.554468050523372  0.05519501091971745  1.0000
  C   C26       1.0  0.9688434790338919  0.5650117700148072  0.9797437453859096  1.0000
  C   C27       1.0  0.9693904581379396  0.5788125618809015  0.8280680229184244  1.0000
  C   C28       1.0  0.9059810426651409  0.5792460485821358  0.753654444827978  1.0000
  C   C29       1.0  0.8422285866912884  0.5663312582334978  0.8280430366169158  1.0000
  N   N3        1.0  0.03334596166191384  0.5910172409489844  0.7472375292400737  1.0000
  C   C30       1.0  0.10197001450682941  0.5911872513970373  0.8142251291981601  1.0000
  H   H17       1.0  0.7322118158818574  0.4880407454793006  0.2676623020929609  1.0000
  H   H18       1.0  0.016724343418311298  0.56368436609654  0.040869334148756487  1.0000
  H   H19       1.0  0.6797111282159666  0.4542601917322309  0.732939603597047  1.0000
  H   H20       1.0  0.03113711571880717  0.6005776539524859  0.6343286288774661  1.0000
  H   H21       1.0  0.10692862610427721  0.6837252083147933  0.883373595529672  1.0000
  H   H22       1.0  0.10994884164957995  0.48807130074563065  0.8801357213447885  1.0000
  H   H23       1.0  0.14275385019206108  0.6020927289708637  0.7292968370463377  1.0000
  Zn  Zn1       1.0  0.7660821326521745  0.5618344996584146  0.4048149310547515  1.0000
  Zn  Zn2       1.0  0.9183892317728908  0.5618303512651988  0.4048100752950778  1.0000
  C   C31       1.0  0.8422031505575721  0.5588838070463624  0.6680637773289138  1.0000
  C   C32       1.0  0.842269885862459  0.5647828654802735  0.14156136413036277  1.0000
  C   C33       1.0  0.8435107855064812  0.8252398444098998  0.39815833079423046  1.0000
  C   C34       1.0  0.8409621905512714  0.29842509578298326  0.41146689349993215  1.0000
  O   O1        1.0  0.9000764633727873  0.56727479750955  0.1952498709691086  1.0000
  O   O2        1.0  0.899994131876464  0.5563876338173852  0.6143711739633695  1.0000
  O   O3        1.0  0.901049284429756  0.7714735184699899  0.3964206110976807  1.0000
  O   O4        1.0  0.8990212589000123  0.35218892202915986  0.41320032573767773  1.0000
  O   O5        1.0  0.785450053550123  0.7714759288973597  0.39642468060622216  1.0000
  O   O6        1.0  0.784394909384179  0.5563917765814119  0.6143751606310957  1.0000
  O   O7        1.0  0.7844772407261682  0.567278871586608  0.19525212502148204  1.0000
  O   O8        1.0  0.783422036197946  0.352192986936908  0.4132026878812425  1.0000
