data_image0
_chemical_formula_structural       NC8NH3C6ClH5C9H7Zn2C4O8
_chemical_formula_sum              "N2 C27 H15 Cl1 Zn2 O8"
_cell_length_a       13.859017981522156
_cell_length_b       9.276545438789551
_cell_length_c       9.273585224739813
_cell_angle_alpha    86.17382153224601
_cell_angle_beta     90.10206682284496
_cell_angle_gamma    89.4096370293992

_space_group_name_H-M_alt    "P 1"
_space_group_IT_number       1

loop_
  _space_group_symop_operation_xyz
  'x, y, z'

loop_
  _atom_site_type_symbol
  _atom_site_label
  _atom_site_symmetry_multiplicity
  _atom_site_fract_x
  _atom_site_fract_y
  _atom_site_fract_z
  _atom_site_occupancy
  N   N1        1.0  0.895923094320754  0.5619610759503937  0.4110864005941363  1.0000
  C   C1        1.0  0.8235481950753323  0.5543101540433566  0.34977460071529526  1.0000
  C   C2        1.0  0.7335180952426944  0.5447937802200926  0.2735106998494936  1.0000
  C   C3        1.0  0.7332863489668283  0.5262359474855391  0.12479235153204882  1.0000
  C   C4        1.0  0.6458291592129716  0.516995173836611  0.05073030302008008  1.0000
  C   C5        1.0  0.5584210608594803  0.526237667149692  0.12479210426907716  1.0000
  C   C6        1.0  0.5582878514351782  0.5447947515280791  0.27351051664939  1.0000
  C   C7        1.0  0.6459276762219444  0.5540716101615677  0.3478585438820492  1.0000
  C   C8        1.0  0.4683083718061306  0.5543110552724404  0.34977436084491664  1.0000
  N   N2        1.0  0.3959741763883315  0.5619613884539927  0.41108630718367023  1.0000
  H   H1        1.0  0.8005624373047592  0.5189333144787327  0.06627325006597218  1.0000
  H   H2        1.0  0.6457910511679358  0.5026603054325114  0.9358517782285696  1.0000
  H   H3        1.0  0.6459658553718401  0.5684353969979861  0.46297062419605894  1.0000
  C   C9        1.0  0.1488650833416285  0.13852369773546624  0.4108487531526836  1.0000
  C   C10       1.0  0.1490717665346537  0.22082733962136133  0.27781539285909584  1.0000
  C   C11       1.0  0.14050345047812907  0.15442945122350893  0.14767752904986242  1.0000
  C   C12       1.0  0.13152684170127804  0.004847353585460953  0.14857088644624983  1.0000
  C   C13       1.0  0.13280590166839956  0.9209805580153013  0.2791624174448948  1.0000
  C   C14       1.0  0.14304154204733704  0.9853878621853815  0.4113364169095055  1.0000
  Cl  Cl1       1.0  0.1395597416741845  0.25938374908033546  0.9831302472391936  1.0000
  H   H4        1.0  0.1984835718270408  0.4037785836579706  0.637452214071277  1.0000
  H   H5        1.0  0.15358957124786568  0.3375189969073329  0.2749617751802538  1.0000
  H   H6        1.0  0.12447590153971944  0.9531056863315334  0.047888464355405835  1.0000
  H   H7        1.0  0.12808550116014586  0.8046932372681346  0.27651206833111974  1.0000
  H   H8        1.0  0.11097389206478983  0.6890135667453794  0.6444011461917912  1.0000
  C   C15       1.0  0.14547769586290102  0.557667515562744  0.9878385866737316  1.0000
  C   C16       1.0  0.23180798038946088  0.525552377118496  0.0637768522508757  1.0000
  C   C17       1.0  0.31935485805967967  0.5064153131818389  0.9915054437610412  1.0000
  C   C18       1.0  0.3197812155283539  0.5202040948153237  0.8394541578942609  1.0000
  C   C19       1.0  0.2345007489320965  0.5496081385648384  0.7625106116025084  1.0000
  C   C20       1.0  0.14642891064909236  0.5662439972039426  0.8343465657455029  1.0000
  C   C21       1.0  0.4090154060008846  0.47334788483057727  0.08300159305381438  1.0000
  C   C22       1.0  0.48514512694750844  0.37441179604504105  0.022706667367510477  1.0000
  C   C23       1.0  0.5040412620780899  0.5356378020502919  0.02670338515601722  1.0000
  H   H9        1.0  0.23139623294042716  0.5185935322488651  0.18094235391575575  1.0000
  H   H10       1.0  0.3853140533397095  0.5071754579615853  0.7785123173525106  1.0000
  H   H11       1.0  0.0021930786041088903  0.6686988445217434  0.5457354689198874  1.0000
  H   H12       1.0  0.40273756960761276  0.4640482730248483  0.2027580881688011  1.0000
  H   H13       1.0  0.4724222985462927  0.33730658044172857  0.9131074672972574  1.0000
  H   H14       1.0  0.5256545414510518  0.3068996794525862  0.10618907962659341  1.0000
  H   H15       1.0  0.5027537638121524  0.5962910610332977  0.9195191619345517  1.0000
  Zn  Zn1       1.0  0.040227076726963476  0.5619573999178642  0.4110946909143003  1.0000
  Zn  Zn2       1.0  0.25167029083982784  0.5619534190263834  0.41108980294262626  1.0000
  C   C24       1.0  0.14628645512334226  0.5588784781416758  0.6743351273190581  1.0000
  C   C25       1.0  0.1456132090445803  0.565034161567588  0.14784950899801164  1.0000
  C   C26       1.0  0.14413087600177588  0.8252542838916468  0.4055006757069148  1.0000
  C   C27       1.0  0.14776872801489496  0.2986566241784361  0.41668403645722907  1.0000
  O   O1        1.0  0.22590032957549644  0.5674986738067558  0.20154877766569407  1.0000
  O   O2        1.0  0.2264798486552844  0.5564098524989385  0.6206317332627014  1.0000
  O   O3        1.0  0.22473811124254114  0.7715116996284044  0.40354601242590604  1.0000
  O   O4        1.0  0.22764199464462553  0.35239683589875725  0.4186343904409415  1.0000
  O   O5        1.0  0.06425530076695488  0.7715139830483413  0.4035501034100728  1.0000
  O   O6        1.0  0.0659970261757381  0.5564138675609078  0.620635748393882  1.0000
  O   O7        1.0  0.06541750555843873  0.5675026210636569  0.20155105988136232  1.0000
  O   O8        1.0  0.06715917081597067  0.3524007739370423  0.4186367807122455  1.0000
