data_image0
_chemical_formula_structural       NC8NC6H8C7F3H5C6NCOH6Zn2C4O8
_chemical_formula_sum              "N3 C32 H19 F3 O9 Zn2"
_cell_length_a       17.457602349358154
_cell_length_b       9.27228830945605
_cell_length_c       10.29962270195845
_cell_angle_alpha    85.28125625353759
_cell_angle_beta     92.8939802036364
_cell_angle_gamma    91.12935064675003

_space_group_name_H-M_alt    "P 1"
_space_group_IT_number       1

loop_
  _space_group_symop_operation_xyz
  'x, y, z'

loop_
  _atom_site_type_symbol
  _atom_site_label
  _atom_site_symmetry_multiplicity
  _atom_site_fract_x
  _atom_site_fract_y
  _atom_site_fract_z
  _atom_site_occupancy
  N   N1        1.0  0.7135651104531318  0.613622191001653  0.6182257973554559  1.0000
  C   C1        1.0  0.6527570084242217  0.5625939768518815  0.6078727352731721  1.0000
  C   C2        1.0  0.5771091144501588  0.49912123087418503  0.595003035179853  1.0000
  C   C3        1.0  0.5183569480562844  0.5437703387818816  0.6696698939448588  1.0000
  C   C4        1.0  0.44413471474496535  0.4826512739731197  0.6574025147021503  1.0000
  C   C5        1.0  0.3817792120325951  0.5297942456289124  0.7364782811257014  1.0000
  C   C6        1.0  0.30711266477720683  0.5502922149559107  0.6806101692872809  1.0000
  C   C7        1.0  0.24836160469109272  0.594737016979404  0.7553860310982161  1.0000
  C   C8        1.0  0.1722528961960703  0.6159072739238247  0.6972990334322552  1.0000
  N   N2        1.0  0.11107444886491862  0.6329210725384689  0.6505972748165438  1.0000
  C   C9        1.0  0.2637835862871676  0.6189541778569403  0.886537124013355  1.0000
  C   C10       1.0  0.3376632004611362  0.5988885294612466  0.9427906041357297  1.0000
  C   C11       1.0  0.3964016765618042  0.5546439448971847  0.8684714267378159  1.0000
  C   C12       1.0  0.429957031992057  0.3761299305608443  0.5690392531902061  1.0000
  C   C13       1.0  0.4886959064498597  0.3317905943642014  0.4947707981455982  1.0000
  C   C14       1.0  0.5621328131160279  0.39303471830159836  0.5075874755250466  1.0000
  H   H1        1.0  0.5302685187639153  0.6273384245952025  0.7358697020439426  1.0000
  H   H2        1.0  0.2948369471618336  0.533621479939075  0.5786729923948367  1.0000
  H   H3        1.0  0.21875095882978912  0.6532879219286865  0.9451954481060216  1.0000
  H   H4        1.0  0.34941591617680456  0.6172897294595441  0.044345624225345714  1.0000
  H   H5        1.0  0.4529847660780397  0.5380049378805118  0.9146627760780539  1.0000
  H   H6        1.0  0.373738710760848  0.3257568409891538  0.558646704647808  1.0000
  H   H7        1.0  0.4772913099100967  0.24946247902498264  0.42736630826200384  1.0000
  H   H8        1.0  0.607170729264966  0.3577349069985194  0.44944523832936767  1.0000
  C   C15       1.0  0.9145808667772424  0.19955750599670627  0.6365971353191358  1.0000
  C   C16       1.0  0.9510049127805912  0.28329772745181114  0.5369897670820885  1.0000
  C   C17       1.0  0.9798533286627197  0.2190425595076948  0.4322376677369215  1.0000
  C   C18       1.0  0.9719962016572138  0.06945334655300119  0.4232967405653993  1.0000
  C   C19       1.0  0.9383703976050578  0.9841671355178138  0.5247850225611579  1.0000
  C   C20       1.0  0.9100661033500504  0.04697500208432404  0.6322378451304576  1.0000
  C   C21       1.0  0.005128085085464025  0.9994785639686642  0.3119235734414796  1.0000
  F   F1        1.0  0.00444276224492368  0.09400424209520075  0.20061895282817033  1.0000
  F   F2        1.0  0.9628864205857418  0.8770655320084172  0.283728224484759  1.0000
  F   F3        1.0  0.0799291203728465  0.9605631630931394  0.34613799531320355  1.0000
  H   H9        1.0  0.7856711997759367  0.275961793809093  0.8596911802988995  1.0000
  H   H10       1.0  0.9558433167658692  0.39979739370410744  0.5387275698597449  1.0000
  H   H11       1.0  0.00778630172899275  0.28684755701194553  0.35744950247106577  1.0000
  H   H12       1.0  0.9359189769969668  0.8676082302552929  0.5216652316323929  1.0000
  H   H13       1.0  0.8744041299921411  0.9156722653803203  0.9438433513603477  1.0000
  C   C22       1.0  0.9122512366835781  0.6231220413645191  0.2530554733753116  1.0000
  C   C23       1.0  0.8318215388490466  0.6303511334183827  0.24435964980126434  1.0000
  C   C24       1.0  0.7914295712922671  0.6363626029216942  0.12301549313307047  1.0000
  C   C25       1.0  0.8319894895778169  0.630668628319369  0.009199677735293173  1.0000
  C   C26       1.0  0.9123957129010365  0.6234104422513029  0.015779439674401097  1.0000
  C   C27       1.0  0.9520877448575188  0.6202583782977434  0.13817228711248153  1.0000
  N   N3        1.0  0.7090382648890504  0.6415150051859817  0.11814542927573202  1.0000
  C   C28       1.0  0.6636203704598158  0.718084386791729  0.016002305342524222  1.0000
  O   O1        1.0  0.6940740227399272  0.8029896548044044  0.9309795025063637  1.0000
  H   H14       1.0  0.80013121103901  0.6325681583836833  0.33191689988428186  1.0000
  H   H15       1.0  0.8008600204010019  0.6288848723039275  0.9158136819245087  1.0000
  H   H16       1.0  0.014091052474079603  0.6147042605475062  0.14399838289017808  1.0000
  H   H17       1.0  0.9431941029212123  0.6184323929029325  0.6910152824162723  1.0000
  H   H18       1.0  0.6801525708601389  0.5952381626559367  0.19810173638127138  1.0000
  H   H19       1.0  0.6018108337089253  0.7060821479827892  0.013906021534362713  1.0000
  Zn  Zn1       1.0  0.8282777409121052  0.6191875647646945  0.6275750247261157  1.0000
  Zn  Zn2       1.0  0.9963618691972207  0.6273438726932072  0.6412587406375164  1.0000
  C   C29       1.0  0.9123973167066246  0.6176077098559054  0.8716377437981244  1.0000
  C   C30       1.0  0.9122441192008884  0.6289256372808381  0.39719628908999494  1.0000
  C   C31       1.0  0.9109145455958967  0.8867928921724371  0.6278864252488057  1.0000
  C   C32       1.0  0.9137268422051998  0.3597387186562399  0.6409476811251853  1.0000
  O   O2        1.0  0.9760288147520685  0.6339623586006958  0.4507641948436662  1.0000
  O   O3        1.0  0.9761845910502771  0.618760348882138  0.8284550935618418  1.0000
  O   O4        1.0  0.9749863750019984  0.8361307466988032  0.6316241015306164  1.0000
  O   O5        1.0  0.9772269733711845  0.4165919682857799  0.6475950847795645  1.0000
  O   O6        1.0  0.8474125793792681  0.8299394663903423  0.6212386759076485  1.0000
  O   O7        1.0  0.8486107861750899  0.6125708020999636  0.8180695897765813  1.0000
  O   O8        1.0  0.8484550099000178  0.627772760949632  0.4403771299488203  1.0000
  O   O9        1.0  0.8496531685894229  0.4104023603511875  0.6372081173036255  1.0000
