data_image0
_chemical_formula_structural       NC9NC5H8C9H8C6SCH8Zn2C4O8
_chemical_formula_sum              "N2 C34 H24 S1 Zn2 O8"
_cell_length_a       17.807436237873137
_cell_length_b       9.275152443626249
_cell_length_c       10.302812801239593
_cell_angle_alpha    85.3632325581603
_cell_angle_beta     89.39214003622364
_cell_angle_gamma    88.96355956710403

_space_group_name_H-M_alt    "P 1"
_space_group_IT_number       1

loop_
  _space_group_symop_operation_xyz
  'x, y, z'

loop_
  _atom_site_type_symbol
  _atom_site_label
  _atom_site_symmetry_multiplicity
  _atom_site_fract_x
  _atom_site_fract_y
  _atom_site_fract_z
  _atom_site_occupancy
  N   N1        1.0  0.7154742961204114  0.5411300366567369  0.5526642864056848  1.0000
  C   C1        1.0  0.6546823432484674  0.5020514825137763  0.5417685687363667  1.0000
  C   C2        1.0  0.5790638355206452  0.4534420647155595  0.5282154788072224  1.0000
  C   C3        1.0  0.5605576184575956  0.37413549154494413  0.4234987914060191  1.0000
  C   C4        1.0  0.48713530814325556  0.3268156752929785  0.4102574054234196  1.0000
  C   C5        1.0  0.4311683031950295  0.3583831810256167  0.5017016035876756  1.0000
  C   C6        1.0  0.3531399817573188  0.3082220191482975  0.4877110808661438  1.0000
  C   C7        1.0  0.291438564292229  0.3990130837458805  0.5133520439225592  1.0000
  C   C8        1.0  0.2178727695794411  0.35146779105036363  0.5001250544457057  1.0000
  C   C9        1.0  0.1551368972503669  0.445247633243204  0.5261202662176523  1.0000
  N   N2        1.0  0.10471021025030439  0.5206401382945973  0.5470197109322714  1.0000
  C   C10       1.0  0.2054233487902968  0.2128449439634292  0.4612326745662272  1.0000
  C   C11       1.0  0.2662673159657999  0.12203849627608675  0.4355833735507717  1.0000
  C   C12       1.0  0.3397113867872681  0.16914564764137838  0.44860928681486073  1.0000
  C   C13       1.0  0.4503687965498907  0.4382387527020517  0.6066356993649575  1.0000
  C   C14       1.0  0.5238428722401222  0.48534713470053537  0.6197221583950501  1.0000
  H   H1        1.0  0.6028219659420263  0.3491658765921344  0.3518882841113806  1.0000
  H   H2        1.0  0.4739109551893905  0.26720142808044084  0.32755330333426474  1.0000
  H   H3        1.0  0.3005022192483127  0.507248837190299  0.5418745150816731  1.0000
  H   H4        1.0  0.1487606032380247  0.17504756702973262  0.45076177204727363  1.0000
  H   H5        1.0  0.2565100814820234  0.01471348186185329  0.40585796149721554  1.0000
  H   H6        1.0  0.38597029618458095  0.09613511308283539  0.4297999251611835  1.0000
  H   H7        1.0  0.4088181969072016  0.4626097376426703  0.6795422088251919  1.0000
  H   H8        1.0  0.5376026663307334  0.5463168646542733  0.7013806345612641  1.0000
  C   C15       1.0  0.9078802409818728  0.10736925531098553  0.5511995627342539  1.0000
  C   C16       1.0  0.8807862488802771  0.1915349161476689  0.44129543463804394  1.0000
  C   C17       1.0  0.8606737194173198  0.12715231831071927  0.32922502872421777  1.0000
  C   C18       1.0  0.867339377648252  0.9774594905970309  0.3248385947584893  1.0000
  C   C19       1.0  0.892964678363246  0.8916829966652544  0.43383186836151516  1.0000
  C   C20       1.0  0.9123113865901126  0.9543895129578474  0.5484956030769783  1.0000
  C   C21       1.0  0.8469909164912754  0.9113811493612731  0.20877569014029837  1.0000
  C   C22       1.0  0.8299538352331107  0.8560226477334777  0.11159118220721663  1.0000
  C   C23       1.0  0.8092827047575122  0.7888428793511877  0.9936748205657947  1.0000
  H   H9        1.0  0.0158014648914977  0.18333959703076252  0.8089203661126905  1.0000
  H   H10       1.0  0.876829883482268  0.30826067010888386  0.4409444243404441  1.0000
  H   H11       1.0  0.8405929796248846  0.19444915751772848  0.2454316831873471  1.0000
  H   H12       1.0  0.8961269037579495  0.7752065032470384  0.43016423200152903  1.0000
  H   H13       1.0  0.9825638437176255  0.6553919376033159  0.7248196349649774  1.0000
  H   H14       1.0  0.8230129276644458  0.6713982743061553  0.005604635042441684  1.0000
  H   H15       1.0  0.7481528484238218  0.8046433960213207  0.9767876581169483  1.0000
  H   H16       1.0  0.84100063516931  0.8395217412248612  0.9091777202020346  1.0000
  C   C24       1.0  0.9100958333191072  0.5308793742153763  0.16859913865719345  1.0000
  C   C25       1.0  0.8855190983408696  0.6760358223094614  0.15731004702492402  1.0000
  C   C26       1.0  0.8730957486083354  0.7480585644241985  0.03472085319426287  1.0000
  C   C27       1.0  0.8855190298390193  0.6760356744804676  0.9221588788008668  1.0000
  C   C28       1.0  0.9100957845518781  0.5308793670607176  0.9310960430242229  1.0000
  C   C29       1.0  0.9222408495737201  0.45899910928608584  0.05485602597518979  1.0000
  S   S1        1.0  0.8418501453231594  0.9336160547623525  0.021789646095894843  1.0000
  C   C30       1.0  0.7427933574969349  0.8884279072474149  0.02689529467662832  1.0000
  H   H17       1.0  0.9193296111556893  0.47615992515166505  0.5001682792557918  1.0000
  H   H18       1.0  0.8757561957867994  0.7336924278513604  0.24339264411076986  1.0000
  H   H19       1.0  0.8757560443307191  0.7336922280155149  0.8280423339724665  1.0000
  H   H20       1.0  0.9411843051109415  0.3470246629539337  0.06265761185321495  1.0000
  H   H21       1.0  0.9193282087819433  0.4761592500152989  0.6071527164118016  1.0000
  H   H22       1.0  0.7291395975847762  0.8249702945588949  0.9436469189735622  1.0000
  H   H23       1.0  0.729139926883996  0.8249717351522945  0.11988160168943084  1.0000
  H   H24       1.0  0.7085534245445906  0.9898032612537715  0.020145097572171974  1.0000
  Zn  Zn1       1.0  0.8277993516544873  0.5352132463454959  0.5510429045583851  1.0000
  Zn  Zn2       1.0  0.9923850750170325  0.5265451725073962  0.5486518035481212  1.0000
  C   C31       1.0  0.9100640631343195  0.5251340062972041  0.7869861798225649  1.0000
  C   C32       1.0  0.9101221703278897  0.5366261376111585  0.31270862379035536  1.0000
  C   C33       1.0  0.9114699352852812  0.7942848299551031  0.5438332544391578  1.0000
  C   C34       1.0  0.9087162329505951  0.26747358417265293  0.5558616247378283  1.0000
  O   O1        1.0  0.9725904006233477  0.5352590231694234  0.36016569317085584  1.0000
  O   O2        1.0  0.9725125829248583  0.5199211652655009  0.7377139498468174  1.0000
  O   O3        1.0  0.9736470004834454  0.737263903589854  0.54136624969782  1.0000
  O   O4        1.0  0.9714559269567805  0.31791629811982447  0.5565132967589277  1.0000
  O   O5        1.0  0.8487284435497181  0.7438421236926254  0.5431814121567105  1.0000
  O   O6        1.0  0.8475940350524426  0.5265011181084385  0.7395290375507741  1.0000
  O   O7        1.0  0.8476718525380577  0.5418389257523604  0.3619792201269998  1.0000
  O   O8        1.0  0.8465373788144492  0.324496190387566  0.5583269210851294  1.0000
