data_image0
_chemical_formula_structural       NC6NC3H6C6BrH5C7ONH6Zn2C4O8
_chemical_formula_sum              "N3 C26 H17 Br1 O9 Zn2"
_cell_length_a       14.934028789175542
_cell_length_b       9.276564384272257
_cell_length_c       9.273042158839656
_cell_angle_alpha    86.1127255114725
_cell_angle_beta     90.06873718233021
_cell_angle_gamma    90.54840447220178

_space_group_name_H-M_alt    "P 1"
_space_group_IT_number       1

loop_
  _space_group_symop_operation_xyz
  'x, y, z'

loop_
  _atom_site_type_symbol
  _atom_site_label
  _atom_site_symmetry_multiplicity
  _atom_site_fract_x
  _atom_site_fract_y
  _atom_site_fract_z
  _atom_site_occupancy
  N   N1        1.0  0.8514915113275872  0.5606123482899656  0.40827294622742016  1.0000
  C   C1        1.0  0.7739977334252284  0.5595070960652679  0.4075951110915242  1.0000
  C   C2        1.0  0.6775915330716239  0.5581270825561335  0.40674896027400953  1.0000
  C   C3        1.0  0.6305814368722574  0.6656023303154719  0.47254075706814724  1.0000
  C   C4        1.0  0.5370619538190421  0.6644942862170398  0.4718623304710678  1.0000
  C   C5        1.0  0.4896404021403293  0.55596584406157  0.40542588296441595  1.0000
  C   C6        1.0  0.39301093921644376  0.5582944450025458  0.4068526384346279  1.0000
  N   N2        1.0  0.3155437600108846  0.5601424868864693  0.4079852770926027  1.0000
  C   C7        1.0  0.5366345168047544  0.4470036939173907  0.3387233161978378  1.0000
  C   C8        1.0  0.48749216729884876  0.3290107308076764  0.2664943185361401  1.0000
  C   C9        1.0  0.630792983937504  0.4492423895353502  0.3400938029317577  1.0000
  H   H1        1.0  0.6662185872824312  0.7502828623773381  0.5243791794456227  1.0000
  H   H2        1.0  0.5016145928895932  0.7485226538862639  0.5233013821513313  1.0000
  H   H3        1.0  0.44495868109497483  0.3771460752049942  0.17785487497704788  1.0000
  H   H4        1.0  0.44443465890436556  0.26701097407634716  0.34665318080606167  1.0000
  H   H5        1.0  0.5344159185115217  0.25258491218669715  0.219703252402629  1.0000
  H   H6        1.0  0.6677412313594883  0.36633185264230894  0.2893393292610346  1.0000
  C   C10       1.0  0.0808245391946769  0.1369030506264617  0.4084993510867208  1.0000
  C   C11       1.0  0.06920747997552998  0.2190269607233799  0.276770981998621  1.0000
  C   C12       1.0  0.06592508468510605  0.15266723046992992  0.14626792183701862  1.0000
  C   C13       1.0  0.07423718082978659  0.0032385170994320193  0.14501522220890872  1.0000
  C   C14       1.0  0.08427463190086071  0.9194019014664229  0.2747525062994289  1.0000
  C   C15       1.0  0.08621928225852545  0.9838407594285954  0.4077712749795215  1.0000
  Br  Br1       1.0  0.07040453550489208  0.912999001927945  0.9659418058739594  1.0000
  H   H7        1.0  0.054819841410190334  0.4019492136350321  0.6428451938118399  1.0000
  H   H8        1.0  0.06478594281604355  0.3356618476734634  0.27430616803958197  1.0000
  H   H9        1.0  0.05777028904108583  0.2178385487929908  0.04587433513373252  1.0000
  H   H10       1.0  0.08841430687875967  0.8031250058952912  0.27164240812097007  1.0000
  H   H11       1.0  0.13585739826613258  0.6882216209451235  0.6322270036268618  1.0000
  C   C16       1.0  0.08306534184096614  0.5559155421627049  0.9848745285811173  1.0000
  C   C17       1.0  0.0008809682604720181  0.5651817395310201  0.057598429614801105  1.0000
  C   C18       1.0  0.9204024258545813  0.5883949566561282  0.9813723688210588  1.0000
  C   C19       1.0  0.9225935894124928  0.6005996609376713  0.8298618651692468  1.0000
  C   C20       1.0  0.0032985988093849907  0.5892176993572025  0.7561312622624795  1.0000
  C   C21       1.0  0.08397850256404917  0.5648282587438833  0.8313961742145627  1.0000
  C   C22       1.0  0.834900296999061  0.5984368081636606  0.06127687887401966  1.0000
  O   O1        1.0  0.8285627260777964  0.5426377738902866  0.18869917958162372  1.0000
  N   N3        1.0  0.7592004560427849  0.6716737319800328  0.9977247480327929  1.0000
  H   H12       1.0  0.30066453921551695  0.6107782330054681  0.08465255010194928  1.0000
  H   H13       1.0  0.9999783421555517  0.5587889238680601  0.17474851282255854  1.0000
  H   H14       1.0  0.8617928869342792  0.6149194783458801  0.7672642262688077  1.0000
  H   H15       1.0  0.2306046105511219  0.5950900315641949  0.5483574677793643  1.0000
  H   H16       1.0  0.7639093689733197  0.7339416404969694  0.9000027169028009  1.0000
  H   H17       1.0  0.6986779821897423  0.6715727002230125  0.054004869802602114  1.0000
  Zn  Zn1       1.0  0.9854069640876246  0.5604729796902241  0.4081982514741882  1.0000
  Zn  Zn2       1.0  0.1816282747845589  0.5602701669098455  0.40807176602939776  1.0000
  C   C23       1.0  0.0837672817131967  0.5573987120375758  0.6713903730690955  1.0000
  C   C24       1.0  0.08327011163208015  0.5633462533706171  0.1448797829573476  1.0000
  C   C25       1.0  0.08518875322009362  0.8236910588789439  0.40216529459197825  1.0000
  C   C26       1.0  0.08184856221550696  0.29705217483785074  0.41410493981116714  1.0000
  O   O2        1.0  0.15780375896457455  0.565756810264741  0.19853101283292712  1.0000
  O   O3        1.0  0.1581610615705119  0.554833132677492  0.6176427296911753  1.0000
  O   O4        1.0  0.15930791558259638  0.7698675872952965  0.4002415733669638  1.0000
  O   O5        1.0  0.1566568379445834  0.35072236489422015  0.4159320611205344  1.0000
  O   O6        1.0  0.010378333966899468  0.7700207817765496  0.40033795641863174  1.0000
  O   O7        1.0  0.009231490903789823  0.5549880589208447  0.6177390344017207  1.0000
  O   O8        1.0  0.008874186168036374  0.565911668010227  0.198625584672146  1.0000
  O   O9        1.0  0.007727265195250683  0.35087721346312306  0.4160267410319374  1.0000
