data_image0
_chemical_formula_structural       NC9NC5H8C7H8C9H6Zn2C4O8
_chemical_formula_sum              "N2 C34 H22 Zn2 O8"
_cell_length_a       17.807436237873137
_cell_length_b       9.274341958901593
_cell_length_c       9.275155815604961
_cell_angle_alpha    86.02443870129014
_cell_angle_beta     89.76311116066847
_cell_angle_gamma    87.76967926577302

_space_group_name_H-M_alt    "P 1"
_space_group_IT_number       1

loop_
  _space_group_symop_operation_xyz
  'x, y, z'

loop_
  _atom_site_type_symbol
  _atom_site_label
  _atom_site_symmetry_multiplicity
  _atom_site_fract_x
  _atom_site_fract_y
  _atom_site_fract_z
  _atom_site_occupancy
  N   N1        1.0  0.6935843438370841  0.5282767506850801  0.3981030619099706  1.0000
  C   C1        1.0  0.633178133745807  0.4890778867601662  0.3858883507220727  1.0000
  C   C2        1.0  0.5580394474962684  0.44031881668257583  0.3706945762347773  1.0000
  C   C3        1.0  0.5400221959583216  0.3599936311370209  0.25420995877908203  1.0000
  C   C4        1.0  0.46706680726674443  0.31252768417473975  0.23936614835424574  1.0000
  C   C5        1.0  0.4110822020271214  0.3449671851604721  0.3409711431782616  1.0000
  C   C6        1.0  0.3335490022567376  0.29465154886966793  0.32528703457689234  1.0000
  C   C7        1.0  0.2709525532092694  0.3857251943374924  0.35402839677952014  1.0000
  C   C8        1.0  0.1978561806505024  0.33803380113697346  0.33919987573950006  1.0000
  C   C9        1.0  0.13419407035009792  0.43210093416829914  0.3683436404954854  1.0000
  N   N2        1.0  0.0830227559900105  0.5077244114243191  0.39177442426020903  1.0000
  C   C10       1.0  0.1867742387917835  0.19898191054042585  0.2956019981041942  1.0000
  C   C11       1.0  0.24851337499150747  0.1078927966632377  0.26685133312016984  1.0000
  C   C12       1.0  0.3214920677919927  0.15514395977752726  0.28145530452257983  1.0000
  C   C13       1.0  0.42978853960115676  0.4258436625985982  0.45769877988849  1.0000
  C   C14       1.0  0.502797439293725  0.4730966245596207  0.47236996425321714  1.0000
  H   H1        1.0  0.5823030302019239  0.33434103574628726  0.17464170646089006  1.0000
  H   H2        1.0  0.4541958148979759  0.25211035178940144  0.14737712912051126  1.0000
  H   H3        1.0  0.278941928590321  0.4942786496851115  0.38602189751439053  1.0000
  H   H4        1.0  0.13048483006991243  0.16106880194401255  0.2838627849061579  1.0000
  H   H5        1.0  0.23981624740471072  0.00023922545088406343  0.23352529394539487  1.0000
  H   H6        1.0  0.36847716504082656  0.08192315519750482  0.26035193546534185  1.0000
  H   H7        1.0  0.38823256655077054  0.45090950038201183  0.5387038311109751  1.0000
  H   H8        1.0  0.5161854285869398  0.5348602663352189  0.5632024375079894  1.0000
  C   C15       1.0  0.8906969541706197  0.0943006894529579  0.3951467811551863  1.0000
  C   C16       1.0  0.8991567764568936  0.17606229666135612  0.2630460388778473  1.0000
  C   C17       1.0  0.9001450810257666  0.10993117993327428  0.13246575484031253  1.0000
  C   C18       1.0  0.8918725844668765  0.9607224883375511  0.13085960086201065  1.0000
  C   C19       1.0  0.885750173744285  0.8772204616065266  0.26185591606853076  1.0000
  C   C20       1.0  0.88591740749736  0.9416891160644745  0.3947431381091462  1.0000
  C   C21       1.0  0.8945978095525214  0.889378529954174  0.9905075723359236  1.0000
  H   H9        1.0  0.8292402205893102  0.17857827700006945  0.7300594159785454  1.0000
  H   H10       1.0  0.9034076171051847  0.2924243554711399  0.26049969243970317  1.0000
  H   H11       1.0  0.9065689817191807  0.1756064705471594  0.03230191345455257  1.0000
  H   H12       1.0  0.8825672817031037  0.760868647016457  0.26006765817180977  1.0000
  H   H13       1.0  0.847536008952979  0.6480737909618792  0.622063796497329  1.0000
  H   H14       1.0  0.9536165060286274  0.8565135092304486  0.9659399762562377  1.0000
  H   H15       1.0  0.8723967656195377  0.9645926314238629  0.9009262174077008  1.0000
  H   H16       1.0  0.8599474936947343  0.7920848203333638  0.996835557440817  1.0000
  C   C22       1.0  0.8869509210436286  0.5144205548416478  0.9717378195649213  1.0000
  C   C23       1.0  0.8277687388197067  0.5878270020839118  0.040474497832732714  1.0000
  C   C24       1.0  0.7735657385421575  0.6705569396308219  0.9600251743741364  1.0000
  C   C25       1.0  0.777538646415321  0.6816060134380775  0.8093724176251151  1.0000
  C   C26       1.0  0.8352130146362494  0.6075041625339715  0.738952317729785  1.0000
  C   C27       1.0  0.8896634429351127  0.5215692227554314  0.8181520218419749  1.0000
  C   C28       1.0  0.7217976524296269  0.7677869826155017  0.7266335542310808  1.0000
  C   C29       1.0  0.6751245911092801  0.839951648016984  0.6573243663999553  1.0000
  C   C30       1.0  0.6184952196401174  0.9275112416039233  0.5732179011644685  1.0000
  H   H17       1.0  0.06202736231747963  0.3888055492159399  0.0819167047611129  1.0000
  H   H18       1.0  0.824415245370025  0.584005606744513  0.1573228039721637  1.0000
  H   H19       1.0  0.7289152349166541  0.727127612447146  0.01553299470137093  1.0000
  H   H20       1.0  0.6337419925080442  0.9308509029600396  0.4569687899717971  1.0000
  H   H21       1.0  0.5628181292278563  0.8790856946505297  0.5891781509699947  1.0000
  H   H22       1.0  0.6159650608694889  0.039021878952557376  0.6097004590443151  1.0000
  Zn  Zn1       1.0  0.8059679044842537  0.5223420100009344  0.39628509039077753  1.0000
  Zn  Zn2       1.0  0.9706392814518707  0.5136474909654445  0.3936042492755263  1.0000
  C   C31       1.0  0.8891814731374448  0.5144701529100337  0.6581644141943783  1.0000
  C   C32       1.0  0.8874275011901228  0.5215210748087783  0.13172503678017855  1.0000
  C   C33       1.0  0.8867985852819888  0.7814663780810034  0.38907655460395874  1.0000
  C   C34       1.0  0.889810342878403  0.25452311976190095  0.40081297494565726  1.0000
  O   O1        1.0  0.9500794107116058  0.5205982548892938  0.18440084614560062  1.0000
  O   O2        1.0  0.9515113333078679  0.5087929420863304  0.6034534941125018  1.0000
  O   O3        1.0  0.9495862836101395  0.7243958276755404  0.38616315665207424  1.0000
  O   O4        1.0  0.9520044038136367  0.3049953816757063  0.40169107645871116  1.0000
  O   O5        1.0  0.8246027259281953  0.730994122259192  0.3881982641148509  1.0000
  O   O6        1.0  0.8265277655988064  0.5153929695144083  0.6054885239074781  1.0000
  O   O7        1.0  0.825095837783278  0.527198217401359  0.18643414326902885  1.0000
  O   O8        1.0  0.827020831286714  0.3115953347806677  0.40372448163671515  1.0000
