data_image0
_chemical_formula_structural       NC9NC3NH7C8H6C8H6Zn2C4O8
_chemical_formula_sum              "N3 C32 H19 Zn2 O8"
_cell_length_a       16.053384444249904
_cell_length_b       9.27514070457351
_cell_length_c       9.275144076552241
_cell_angle_alpha    86.09146216302537
_cell_angle_beta     90.26395466223778
_cell_angle_gamma    89.76770978158073

_space_group_name_H-M_alt    "P 1"
_space_group_IT_number       1

loop_
  _space_group_symop_operation_xyz
  'x, y, z'

loop_
  _atom_site_type_symbol
  _atom_site_label
  _atom_site_symmetry_multiplicity
  _atom_site_fract_x
  _atom_site_fract_y
  _atom_site_fract_z
  _atom_site_occupancy
  N   N1        1.0  0.7863330238241055  0.547694324965995  0.4104833636701028  1.0000
  C   C1        1.0  0.7350549419546691  0.5240192075619357  0.32735688028167775  1.0000
  C   C2        1.0  0.6713305194418572  0.49460276957376165  0.22409350906490386  1.0000
  C   C3        1.0  0.6841954989787957  0.48019858049263386  0.07896410356845762  1.0000
  C   C4        1.0  0.6071344581338893  0.4516831567019708  0.02090234588968464  1.0000
  C   C5        1.0  0.5505486047500425  0.45027666680521183  0.13374010034584827  1.0000
  C   C6        1.0  0.4596852531563375  0.4237528732907416  0.12230468699221596  1.0000
  C   C7        1.0  0.4045557923095109  0.4718865699977464  0.2266422709005653  1.0000
  C   C8        1.0  0.3188067245706102  0.44673049057321307  0.21568989578941844  1.0000
  C   C9        1.0  0.2629209778396063  0.4968193412713818  0.3226645979618532  1.0000
  N   N2        1.0  0.2180053812701152  0.5370837024496655  0.40865550766786907  1.0000
  C   C10       1.0  0.2874604143474416  0.3733164977265502  0.10041485835756568  1.0000
  C   C11       1.0  0.3415832059571831  0.32531720518558666  0.9963125156618234  1.0000
  C   C12       1.0  0.4271231683996983  0.3502862799029296  0.00682429637644088  1.0000
  N   N3        1.0  0.5904632620747569  0.4766294417403821  0.25761276124399  1.0000
  H   H1        1.0  0.7427219956246347  0.4893917519441978  0.021699492575448343  1.0000
  H   H2        1.0  0.5942625117905532  0.43562164191620445  0.9085739734409389  1.0000
  H   H3        1.0  0.4276322262092495  0.5307324539188996  0.315346758474808  1.0000
  H   H4        1.0  0.2212754472822943  0.3533062143643853  0.09100846563493925  1.0000
  H   H5        1.0  0.317226140365313  0.2682921699441454  0.9073528056488751  1.0000
  H   H6        1.0  0.4676303984821473  0.31037922035536614  0.9254349763557664  1.0000
  H   H7        1.0  0.5647918388621783  0.47996460891122134  0.36057020441333587  1.0000
  C   C13       1.0  0.9996381876646593  0.1190034329525416  0.4085720909777347  1.0000
  C   C14       1.0  0.010917274659776542  0.2012456128660207  0.2770371447346691  1.0000
  C   C15       1.0  0.029484422712066763  0.13458841045925296  0.150637555909382  1.0000
  C   C16       1.0  0.03721943925341976  0.9844875908742843  0.15334505547801067  1.0000
  C   C17       1.0  0.024862529452321924  0.9006744916752806  0.28252219404231593  1.0000
  C   C18       1.0  0.004708140889923889  0.9657634332227573  0.41057920030738626  1.0000
  C   C19       1.0  0.05690414528873356  0.9160237563158733  0.02291169364639156  1.0000
  C   C20       1.0  0.07338588316231599  0.8586871291102713  0.9137109914915023  1.0000
  H   H8        1.0  0.014918166505282882  0.19761792217018456  0.7626852670014714  1.0000
  H   H9        1.0  0.007314977890597653  0.318128057512298  0.2726373572162957  1.0000
  H   H10       1.0  0.03862447618207554  0.20040558656676843  0.05095106024300123  1.0000
  H   H11       1.0  0.029060573528560948  0.7839628222379244  0.28232635573802645  1.0000
  H   H12       1.0  0.011799892524126497  0.6687369881304622  0.649179897379311  1.0000
  H   H13       1.0  0.0878533092589149  0.8083559189076127  0.8178557077970909  1.0000
  C   C21       1.0  0.0001935237579893152  0.5394813397768892  0.9862914417720033  1.0000
  C   C22       1.0  0.9464478025478563  0.6348433671275199  0.052718005335852254  1.0000
  C   C23       1.0  0.8994285123132482  0.7371845983591232  0.9702243092483201  1.0000
  C   C24       1.0  0.905305914150552  0.74625479670432  0.819791014646109  1.0000
  C   C25       1.0  0.9573217661693048  0.6508295439406859  0.7516156900354705  1.0000
  C   C26       1.0  0.004152826119555588  0.5452855628584936  0.8328598578660741  1.0000
  C   C27       1.0  0.8571005651448803  0.8525890826694463  0.7349419210749047  1.0000
  C   C28       1.0  0.8167431852424728  0.9416158259398324  0.6638871777993661  1.0000
  H   H14       1.0  0.17222009668642424  0.34596143265412826  0.10371363600044403  1.0000
  H   H15       1.0  0.9422668431948493  0.6325221211558765  0.1694000266023179  1.0000
  H   H16       1.0  0.8590507005067355  0.810276482488095  0.02400637486224477  1.0000
  H   H17       1.0  0.9597456357308871  0.6567618361101315  0.6345351677023126  1.0000
  H   H18       1.0  0.11814527420834153  0.41045548988273217  0.5622467613838773  1.0000
  H   H19       1.0  0.7813177801755612  0.019762319931670987  0.6015143863713921  1.0000
  Zn  Zn1       1.0  0.9109043551492368  0.5446285404128177  0.4099641911541949  1.0000
  Zn  Zn2       1.0  0.09343401125313178  0.540137821696548  0.4091864331747004  1.0000
  C   C29       1.0  0.0033681827174067993  0.5384447755366142  0.6728266570694857  1.0000
  C   C30       1.0  0.000972188456962453  0.5463233576557316  0.14632410455420541  1.0000
  C   C31       1.0  0.003718677133984773  0.8056684909433116  0.4044558411329777  1.0000
  C   C32       1.0  0.0006216217436028085  0.27909791210221147  0.4146949934987332  1.0000
  O   O1        1.0  0.07050253101217209  0.5469091070550715  0.19973735809138082  1.0000
  O   O2        1.0  0.07237361724333446  0.5344495840332942  0.6188226857094019  1.0000
  O   O3        1.0  0.0726557191470587  0.7502361469787787  0.40211136060489416  1.0000
  O   O4        1.0  0.07022036637973117  0.3311225552147312  0.41644857540886515  1.0000
  O   O5        1.0  0.9341179377341979  0.7536438084286139  0.40270204917786256  1.0000
  O   O6        1.0  0.9338358458388167  0.5378589771639313  0.6194133015321829  1.0000
  O   O7        1.0  0.9319647512571424  0.5503184380606403  0.20032624078464067  1.0000
  O   O8        1.0  0.9316825870649785  0.33453187664913564  0.4170375661469812  1.0000
