data_image0
_chemical_formula_structural       NC12NC2H8C12H9C12H10Zn2C4O8
_chemical_formula_sum              "N2 C42 H27 Zn2 O8"
_cell_length_a       19.240039667572717
_cell_length_b       14.388199552941785
_cell_length_c       14.388129018870245
_cell_angle_alpha    82.87086475722218
_cell_angle_beta     90.89466623952734
_cell_angle_gamma    92.40759244295023

_space_group_name_H-M_alt    "P 1"
_space_group_IT_number       1

loop_
  _space_group_symop_operation_xyz
  'x, y, z'

loop_
  _atom_site_type_symbol
  _atom_site_label
  _atom_site_symmetry_multiplicity
  _atom_site_fract_x
  _atom_site_fract_y
  _atom_site_fract_z
  _atom_site_occupancy
  N   N1        1.0  0.6756871226671122  0.06041317614360971  0.963526155094508  1.0000
  C   C1        1.0  0.6155387551234013  0.06041323872390159  0.9635260957992617  1.0000
  C   C2        1.0  0.5407207195895725  0.0604133267812512  0.9635259965448767  1.0000
  C   C3        1.0  0.503572802890741  0.011207408194100486  0.03816935934309409  1.0000
  C   C4        1.0  0.43090021122876604  0.011125406815283071  0.038232090166901433  1.0000
  C   C5        1.0  0.3943884850272731  0.0604133997192282  0.9635258324320315  1.0000
  C   C6        1.0  0.43225244287166503  0.10970152108930661  0.8888197136874123  1.0000
  C   C7        1.0  0.5049212833987973  0.10961934731649296  0.8888825336711248  1.0000
  C   C8        1.0  0.31718339210549434  0.060413346067761574  0.9635257642014875  1.0000
  C   C9        1.0  0.2777640198467084  0.9779939159929146  0.9941525435815717  1.0000
  C   C10       1.0  0.2050950497473958  0.978073200760112  0.9940863926730454  1.0000
  C   C11       1.0  0.1708511027357488  0.060413251689760625  0.9635258085898586  1.0000
  C   C12       1.0  0.09603306488697519  0.06041316296160465  0.9635259878829424  1.0000
  N   N2        1.0  0.0358847486782936  0.060413127679614924  0.9635261379076834  1.0000
  C   C13       1.0  0.2095546678885808  0.1427533585156979  0.9329651861310899  1.0000
  C   C14       1.0  0.28222708522122514  0.14283277712469  0.9328989174957143  1.0000
  H   H1        1.0  0.530770758655503  0.9730915839223211  0.09644681796583032  1.0000
  H   H2        1.0  0.4033162818995212  0.9735496708500124  0.09730779924344313  1.0000
  H   H3        1.0  0.4056498416399  0.14727727791842254  0.8297439679297908  1.0000
  H   H4        1.0  0.5331530989094175  0.14773509174351826  0.8306052737863716  1.0000
  H   H5        1.0  0.30308725907970807  0.9131675497480214  0.016972889914920852  1.0000
  H   H6        1.0  0.17563811307849178  0.9138617916940952  0.017645181417411678  1.0000
  H   H7        1.0  0.18358178066728248  0.20696474956832775  0.9094064079610331  1.0000
  H   H8        1.0  0.3110903262493602  0.20765920143310265  0.9100785386082695  1.0000
  C   C15       1.0  0.847213541608727  0.7869571629951365  0.9653104431465653  1.0000
  C   C16       1.0  0.7778419149250254  0.8076504219537646  0.9803647744760422  1.0000
  C   C17       1.0  0.7262841613056116  0.7360786074741502  0.9916895718186197  1.0000
  C   C18       1.0  0.7431690122857999  0.6431916687063982  0.9881460498060404  1.0000
  C   C19       1.0  0.812157146870173  0.6207109677582704  0.9730941825956001  1.0000
  C   C20       1.0  0.8638976905256027  0.6932247377442884  0.96177492419195  1.0000
  C   C21       1.0  0.8301435205064129  0.5218817547564978  0.9691975284376195  1.0000
  C   C22       1.0  0.8004083473338833  0.4491602355220083  0.03226751346785328  1.0000
  C   C23       1.0  0.8173523430981974  0.35617033951338367  0.02862668437102367  1.0000
  C   C24       1.0  0.8643648793497326  0.33386170304898855  0.9617499454375521  1.0000
  C   C25       1.0  0.8940641398350322  0.40647406936946906  0.8986578479704613  1.0000
  C   C26       1.0  0.8771609259328381  0.4994740318460392  0.9023502898578373  1.0000
  H   H9        1.0  0.008656780334926237  0.8928257409115122  0.9302988252401669  1.0000
  H   H10       1.0  0.6729636801082418  0.7527046953521266  0.0030072214383561886  1.0000
  H   H11       1.0  0.7021085664534146  0.5890715028063359  0.995932648156761  1.0000
  H   H12       1.0  0.9173428575950877  0.6763484892726492  0.9514855407210987  1.0000
  H   H13       1.0  0.764691028956383  0.46430563591622054  0.08531500283827545  1.0000
  H   H14       1.0  0.793729439617527  0.30178768134623385  0.07838764443278003  1.0000
  H   H15       1.0  0.9418348396741595  0.1470477530979117  0.8876945441523003  1.0000
  H   H16       1.0  0.9302957173658746  0.3915275377200684  0.8461467225456853  1.0000
  H   H17       1.0  0.9002126107107716  0.5537883289053053  0.8520046065625803  1.0000
  C   C27       1.0  0.8529327110294461  0.07140396584532471  0.6893589624190506  1.0000
  C   C28       1.0  0.8299570405614748  0.15974394295730954  0.704322662548202  1.0000
  C   C29       1.0  0.8129499384698919  0.22540840599430892  0.6285091882985094  1.0000
  C   C30       1.0  0.8186007639570229  0.20390735536401183  0.5370324574902574  1.0000
  C   C31       1.0  0.8413966404958543  0.11601279427875054  0.5202439356345638  1.0000
  C   C32       1.0  0.847337692311051  0.0930465990207727  0.4229079278541687  1.0000
  C   C33       1.0  0.874325320411828  0.16014009225717696  0.351864747421488  1.0000
  C   C34       1.0  0.8799467588330747  0.13853442320613785  0.2602757409737324  1.0000
  C   C35       1.0  0.8586456712920197  0.049414878652395126  0.2377014514996818  1.0000
  C   C36       1.0  0.8316064498080885  0.9822877298332334  0.3086539483823678  1.0000
  C   C37       1.0  0.8260381769305852  0.003871073002033264  0.40025371214211036  1.0000
  C   C38       1.0  0.858493482303743  0.05013930291346113  0.5970176142636061  1.0000
  H   H18       1.0  0.906454271299317  0.8659384234697265  0.8085514769505238  1.0000
  H   H19       1.0  0.8251072535867163  0.17815184675713835  0.7745932302152003  1.0000
  H   H20       1.0  0.795125505568446  0.29317790874858907  0.6407129407603656  1.0000
  H   H21       1.0  0.8042549104699676  0.2555670380977916  0.47944415476853575  1.0000
  H   H22       1.0  0.8919799190024466  0.2290535614095161  0.367369547774947  1.0000
  H   H23       1.0  0.9011642603936949  0.19167894636140015  0.20723558147471932  1.0000
  H   H24       1.0  0.8958177797599765  0.07917021428176585  0.004151392002846645  1.0000
  H   H25       1.0  0.8145490435075387  0.9130550770419575  0.2934038391917697  1.0000
  H   H26       1.0  0.8041712218269546  0.951102502104946  0.453156012556093  1.0000
  H   H27       1.0  0.8770457961830661  0.9827565978293291  0.5846510470246302  1.0000
  Zn  Zn1       1.0  0.7796323641311844  0.06041046015869674  0.9635315498498994  1.0000
  Zn  Zn2       1.0  0.9319393671584669  0.06040794218395338  0.9635284122951768  1.0000
  C   C39       1.0  0.8574479263868249  0.049861555783329736  0.13407711010650247  1.0000
  C   C40       1.0  0.8541255058926386  0.07095801780884425  0.7929829359923964  1.0000
  C   C41       1.0  0.8610805581028584  0.23063427242073595  0.9587024548067276  1.0000
  C   C42       1.0  0.8504927876372362  0.8901841803806652  0.9683576483534873  1.0000
  O   O1        1.0  0.9123254052347886  0.07080333546637527  0.8277589239029408  1.0000
  O   O2        1.0  0.9148454933672396  0.05001363532107805  0.09929847667504224  1.0000
  O   O3        1.0  0.9177781203655317  0.19598985127133964  0.9576821954281334  1.0000
  O   O4        1.0  0.9093927257439951  0.9248271289856418  0.9693751351035964  1.0000
  O   O5        1.0  0.8021789535707318  0.1959912733590783  0.9576848270376321  1.0000
  O   O6        1.0  0.7992463611368837  0.0500161782016586  0.09930105121937816  1.0000
  O   O7        1.0  0.7967262603379485  0.07080589091061529  0.8277603761466239  1.0000
  O   O8        1.0  0.7937935813647321  0.9248296749624233  0.9693766573896861  1.0000
