data_image0
_chemical_formula_structural       NC10NC5H10C12SCH12C12NCOH11Zn2C4O8
_chemical_formula_sum              "N3 C45 H33 S1 O9 Zn2"
_cell_length_a       19.4436361288709
_cell_length_b       10.299776766347529
_cell_length_c       10.299148425239203
_cell_angle_alpha    85.5384344644465
_cell_angle_beta     89.68967150439464
_cell_angle_gamma    89.39962546058797

_space_group_name_H-M_alt    "P 1"
_space_group_IT_number       1

loop_
  _space_group_symop_operation_xyz
  'x, y, z'

loop_
  _atom_site_type_symbol
  _atom_site_label
  _atom_site_symmetry_multiplicity
  _atom_site_fract_x
  _atom_site_fract_y
  _atom_site_fract_z
  _atom_site_occupancy
  N   N1        1.0  0.6475984770854691  0.40989409183262615  0.5620551286016364  1.0000
  C   C1        1.0  0.588759733938749  0.41978734465837403  0.5764406614075066  1.0000
  C   C2        1.0  0.5154269442705713  0.4321255253600294  0.5944349255996788  1.0000
  C   C3        1.0  0.473255931365125  0.40018515109804564  0.49975255110395  1.0000
  C   C4        1.0  0.3973490325047371  0.4106201582601395  0.5050815376309157  1.0000
  C   C5        1.0  0.3576057149817479  0.3858090151635263  0.6121607620610481  1.0000
  C   C6        1.0  0.2814854972809656  0.38973327828216237  0.5992006059397113  1.0000
  C   C7        1.0  0.2409051885655779  0.4473382922066097  0.6929811170599767  1.0000
  C   C8        1.0  0.16924198082367234  0.4509822598104303  0.6824366062043064  1.0000
  C   C9        1.0  0.1371643727541312  0.39662503663716975  0.5783981128824407  1.0000
  C   C10       1.0  0.0633719218127977  0.4003303389344959  0.5676983114182184  1.0000
  N   N2        1.0  0.004047796302722499  0.403309207463118  0.5590963804277473  1.0000
  C   C11       1.0  0.1770198837891002  0.33831271299093446  0.4850008306828306  1.0000
  C   C12       1.0  0.24869954980670164  0.3346146714582734  0.4952935426270333  1.0000
  C   C13       1.0  0.3857352668493432  0.3452709136059553  0.7432632090597313  1.0000
  C   C14       1.0  0.44438760768300894  0.3883642383253507  0.7905113552264412  1.0000
  C   C15       1.0  0.48858380060859274  0.48626541611581453  0.7161431703428787  1.0000
  H   H1        1.0  0.49536715483758653  0.3711220065160975  0.4094375519298204  1.0000
  H   H2        1.0  0.37265402900880534  0.4331698539054831  0.41191732693191035  1.0000
  H   H3        1.0  0.264761701834159  0.490580670983938  0.7738376138909069  1.0000
  H   H4        1.0  0.13888350001767993  0.4962530469248867  0.755365144307578  1.0000
  H   H5        1.0  0.1526914274347215  0.29526579080726734  0.4044788514360178  1.0000
  H   H6        1.0  0.2783927509058677  0.28710010848712014  0.42306127935463866  1.0000
  H   H7        1.0  0.35477593439728156  0.2810164727124793  0.8075117657827173  1.0000
  H   H8        1.0  0.4595357551364009  0.3542392787003286  0.8884514401583539  1.0000
  H   H9        1.0  0.4584609605649991  0.5769935824895411  0.6908938313901544  1.0000
  H   H10       1.0  0.5318594473740249  0.5118136499045982  0.7792341238077672  1.0000
  C   C16       1.0  0.8258912769771112  0.02523525815735251  0.5605736184983032  1.0000
  C   C17       1.0  0.8300057778771938  0.013540922160044662  0.6970623242460947  1.0000
  C   C18       1.0  0.8320244076983235  0.8904779091296575  0.7662281464461972  1.0000
  C   C19       1.0  0.8298742601040298  0.7782555690785941  0.6970786072336526  1.0000
  C   C20       1.0  0.8257615962345628  0.787957923939276  0.5605891368063198  1.0000
  C   C21       1.0  0.8237927394044742  0.9118858820372141  0.49310067556704157  1.0000
  C   C22       1.0  0.8363695057250455  0.8791706673024244  0.9106178598981003  1.0000
  C   C23       1.0  0.7969957325103855  0.7864069344625331  0.9849922323374019  1.0000
  C   C24       1.0  0.8011056352207836  0.7759995722923052  0.12087634750472698  1.0000
  C   C25       1.0  0.8444175805260223  0.8580797985548532  0.184194306611827  1.0000
  C   C26       1.0  0.8839553016631476  0.950266147032296  0.11119172831318247  1.0000
  C   C27       1.0  0.8799462536710957  0.9610215391387384  0.9752963603162059  1.0000
  S   S1        1.0  0.8497669969951479  0.8442637822282114  0.35855169191528025  1.0000
  C   C28       1.0  0.7806501037741528  0.9615943460479224  0.378655392225695  1.0000
  H   H11       1.0  0.8243505242395722  0.35714431310960465  0.5085650012724748  1.0000
  H   H12       1.0  0.8307016128307462  0.10033720595830033  0.7500183571266803  1.0000
  H   H13       1.0  0.8323634743812751  0.6831739964496044  0.749823604955129  1.0000
  H   H14       1.0  0.8206190471611547  0.9201390680465515  0.3878054386577332  1.0000
  H   H15       1.0  0.8241601458341746  0.4642018241043614  0.5085856894705052  1.0000
  H   H16       1.0  0.7623788774743853  0.7231018713151198  0.9381623470584441  1.0000
  H   H17       1.0  0.7703475107713973  0.7044824240329965  0.17685681020368804  1.0000
  H   H18       1.0  0.9178399268483652  0.013639954592261867  0.15961673029825119  1.0000
  H   H19       1.0  0.9115722621499416  0.03215311857875046  0.9207218292530156  1.0000
  H   H20       1.0  0.7944254307441616  0.05768981499720982  0.32966018346750803  1.0000
  H   H21       1.0  0.7726660807441644  0.9723776322946319  0.4840078530729771  1.0000
  H   H22       1.0  0.7322581321607966  0.9269732569550921  0.33693221488009795  1.0000
  C   C29       1.0  0.8258781309906448  0.4067514776239016  0.17918472737265745  1.0000
  C   C30       1.0  0.8956547754038368  0.44102100376799414  0.17463678874366018  1.0000
  C   C31       1.0  0.9309237798873029  0.4581841868809373  0.055199654089055146  1.0000
  C   C32       1.0  0.8955098400985322  0.44068353420852163  0.939380830352611  1.0000
  C   C33       1.0  0.8257747109567154  0.40644171451658617  0.9419779687690473  1.0000
  C   C34       1.0  0.791367973696537  0.3896674666572417  0.06238233902745116  1.0000
  C   C35       1.0  0.004697540190781613  0.4944137360746681  0.05148148747774006  1.0000
  C   C36       1.0  0.050924085615531293  0.43618940195546596  0.9674986590040158  1.0000
  C   C37       1.0  0.12031185357442455  0.47042056185172126  0.9641492622742691  1.0000
  C   C38       1.0  0.14509797450730844  0.5622347074034681  0.04545425610859821  1.0000
  C   C39       1.0  0.0988028573687967  0.6223065051853343  0.12786929200485364  1.0000
  C   C40       1.0  0.029383988772527347  0.5881825873073481  0.13131579014384775  1.0000
  N   N3        1.0  0.21652148863532683  0.5971218673635783  0.03832669202044703  1.0000
  C   C41       1.0  0.25607747860987384  0.6330637932683623  0.14672914990319866  1.0000
  O   O1        1.0  0.2328077882030857  0.6193312653912209  0.2612822077399859  1.0000
  H   H23       1.0  0.6942877104584305  0.3413035348665577  0.39512068377462817  1.0000
  H   H24       1.0  0.9229410515028489  0.45271222336935124  0.26433693444211337  1.0000
  H   H25       1.0  0.922193155748921  0.4555821245728611  0.8469267395036293  1.0000
  H   H26       1.0  0.7375803304657992  0.36325234502224957  0.06510066562806749  1.0000
  H   H27       1.0  0.798954730872646  0.3932350565956908  0.6155037426275753  1.0000
  H   H28       1.0  0.033595997770434545  0.3630004831352001  0.9054682562691241  1.0000
  H   H29       1.0  0.15507216782916378  0.42424093542905617  0.8989049607742672  1.0000
  H   H30       1.0  0.11574027343177386  0.6976671569345766  0.18749636978072837  1.0000
  H   H31       1.0  0.9947043786385463  0.6370269491179368  0.19466689811156604  1.0000
  H   H32       1.0  0.24297591357855208  0.5876939340068199  0.9509238644843845  1.0000
  H   H33       1.0  0.30771455871208464  0.6691492686228291  0.1304773661018475  1.0000
  Zn  Zn1       1.0  0.7504620517212475  0.40799036204814715  0.5612088104059558  1.0000
  Zn  Zn2       1.0  0.9011842135378173  0.4052023252985897  0.5599533803642338  1.0000
  C   C42       1.0  0.8257936109380413  0.40132664947790647  0.7977936502151304  1.0000
  C   C43       1.0  0.8258542999064118  0.411867645980258  0.32336865435481155  1.0000
  C   C44       1.0  0.8257832516991332  0.6437892780454239  0.555410667086296  1.0000
  C   C45       1.0  0.8258646079703259  0.16940345804398627  0.5657517071239988  1.0000
  O   O2        1.0  0.8830445778545543  0.4125209676979549  0.3712816681132449  1.0000
  O   O3        1.0  0.882997966552536  0.3985562928140449  0.7489274202105854  1.0000
  O   O4        1.0  0.8829888300929188  0.5943479454553022  0.5532014528842535  1.0000
  O   O5        1.0  0.8830536628945294  0.21672932533777062  0.5670075384864124  1.0000
  O   O6        1.0  0.7685925509304596  0.5964633629618024  0.5541546527053622  1.0000
  O   O7        1.0  0.7686016871309943  0.4006732706421366  0.7498805508129254  1.0000
  O   O8        1.0  0.7686482986981463  0.41463790090366187  0.37223323720008983  1.0000
  O   O9        1.0  0.7686573837236875  0.21884624921524165  0.5679592049480067  1.0000
