data_image0
_chemical_formula_structural       NC9NC3NH7C8NH7C8H6Zn2C4O8
_chemical_formula_sum              "N4 C32 H20 Zn2 O8"
_cell_length_a       16.053384444249904
_cell_length_b       9.274263428431858
_cell_length_c       9.275144076552241
_cell_angle_alpha    85.91390011552684
_cell_angle_beta     90.26395466223778
_cell_angle_gamma    89.79185309571561

_space_group_name_H-M_alt    "P 1"
_space_group_IT_number       1

loop_
  _space_group_symop_operation_xyz
  'x, y, z'

loop_
  _atom_site_type_symbol
  _atom_site_label
  _atom_site_symmetry_multiplicity
  _atom_site_fract_x
  _atom_site_fract_y
  _atom_site_fract_z
  _atom_site_occupancy
  N   N1        1.0  0.7866963343083804  0.548173330787154  0.4056778642873169  1.0000
  C   C1        1.0  0.7354126948697065  0.5244908860194997  0.3226248907388112  1.0000
  C   C2        1.0  0.6716813670525598  0.4950653437496808  0.21945285582295604  1.0000
  C   C3        1.0  0.6845429653062397  0.48065669662389443  0.07436817448206368  1.0000
  C   C4        1.0  0.6074752306638181  0.45213244741223657  0.01639495550839198  1.0000
  C   C5        1.0  0.5508890471162451  0.45072552221191864  0.12923707703253706  1.0000
  C   C6        1.0  0.4600194692463877  0.42419351967885405  0.11788401848973917  1.0000
  C   C7        1.0  0.4049013074502706  0.4723421135916857  0.22207215011537015  1.0000
  C   C8        1.0  0.3191463344965929  0.4471782484511444  0.21119788314366583  1.0000
  C   C9        1.0  0.26327234577510683  0.49728260146826053  0.31801706239582317  1.0000
  N   N2        1.0  0.2183662009845121  0.5375594243213588  0.40388295364072  1.0000
  C   C10       1.0  0.2877827908489273  0.37374153423802  0.09615079181953012  1.0000
  C   C11       1.0  0.3418943149584031  0.3257273860888345  0.992197484089516  1.0000
  C   C12       1.0  0.4274401387176401  0.35070418864490227  0.0026317373032520553  1.0000
  N   N3        1.0  0.5908098905716888  0.47708645323604926  0.2530279141224221  1.0000
  H   H1        1.0  0.7430716199851725  0.48985271332892283  0.017075019235176736  1.0000
  H   H2        1.0  0.5945995139915348  0.43606596164547345  0.9041164531135357  1.0000
  H   H3        1.0  0.4279915550122032  0.53120621010204  0.31059392469887515  1.0000
  H   H4        1.0  0.2215931265088585  0.3537250577652007  0.08680652984377968  1.0000
  H   H5        1.0  0.317523863135909  0.2686847018043028  0.9034148334397999  1.0000
  H   H6        1.0  0.4679380008952669  0.3107847780060926  0.9213663263432572  1.0000
  H   H7        1.0  0.56513925026642  0.4804226526291198  0.3559750017948702  1.0000
  C   C13       1.0  0.9999008659419992  0.1193497604861087  0.40509765147140175  1.0000
  C   C14       1.0  0.9885199518394131  0.2020717707335222  0.2734120719656663  1.0000
  C   C15       1.0  0.9853142316542156  0.13633002467931868  0.14288497413225176  1.0000
  C   C16       1.0  0.9940872222216022  0.9863183010307713  0.140812081178868  1.0000
  C   C17       1.0  0.0032286224767545937  0.9021405985214577  0.2716233924044662  1.0000
  C   C18       1.0  0.005169616375964695  0.9663718720609866  0.4044756053857963  1.0000
  C   C19       1.0  0.9893887584289603  0.9154664290943939  0.00019299650452197568  1.0000
  C   C20       1.0  0.902816917023876  0.8784355707421301  0.9685174863886661  1.0000
  N   N4        1.0  0.8344876531097076  0.8492066231771219  0.9435262133424707  1.0000
  H   H8        1.0  0.07333239355308385  0.19812565305956722  0.7371128676270662  1.0000
  H   H9        1.0  0.9839044341844252  0.31878771309590814  0.27107047590272315  1.0000
  H   H10       1.0  0.9767644785405821  0.20277236070561672  0.04302883182021411  1.0000
  H   H11       1.0  0.006816272684133424  0.7855495976615894  0.2697098115753971  1.0000
  H   H12       1.0  0.05137613470644853  0.6693128363667079  0.629978182573186  1.0000
  H   H13       1.0  0.027897807680598904  0.8154431423658804  0.00561102639473332  1.0000
  H   H14       1.0  0.013568362053095974  0.9890601011129171  0.9103910159728672  1.0000
  C   C21       1.0  0.0005549063010823499  0.5399578037087027  0.9815114432226961  1.0000
  C   C22       1.0  0.9468315706639782  0.6353493452634509  0.0476419133292112  1.0000
  C   C23       1.0  0.8998363043219956  0.7377222507376445  0.9648304537688907  1.0000
  C   C24       1.0  0.9057158353253114  0.7467952562765727  0.8143689967370267  1.0000
  C   C25       1.0  0.9577092869293086  0.6513404697407832  0.7464899618948921  1.0000
  C   C26       1.0  0.004515571163669742  0.5457638231764532  0.828061837547232  1.0000
  C   C27       1.0  0.8575354475541065  0.853162452320352  0.7291897414941473  1.0000
  C   C28       1.0  0.8171989660608289  0.9422167490472427  0.6578585754438162  1.0000
  H   H15       1.0  0.17253605177653797  0.3463780028714487  0.09953450532228825  1.0000
  H   H16       1.0  0.9426500664146151  0.6330273808745368  0.16433114192719245  1.0000
  H   H17       1.0  0.8594756503271969  0.8108367565415895  0.018385573403623342  1.0000
  H   H18       1.0  0.9601345490552405  0.6572745979332961  0.6293910201452513  1.0000
  H   H19       1.0  0.11847636883007094  0.41089202077855624  0.5578673804707708  1.0000
  H   H20       1.0  0.7817919053401611  0.0203874290976076  0.5952431437718437  1.0000
  Zn  Zn1       1.0  0.9112669459618992  0.5451065973846956  0.405168210851204  1.0000
  Zn  Zn2       1.0  0.0937955479007917  0.5406144888071518  0.4044043962878423  1.0000
  C   C29       1.0  0.003729321934249796  0.5389209186555275  0.6680498769908656  1.0000
  C   C30       1.0  0.0013351771161915786  0.5468019391674447  0.14152286194386932  1.0000
  C   C31       1.0  0.004142545260463092  0.8062273388400139  0.3988493472156893  1.0000
  C   C32       1.0  0.0009218810870561553  0.279493788300661  0.41072347009906895  1.0000
  O   O1        1.0  0.07086565717200055  0.5473878698541139  0.1949342967637877  1.0000
  O   O2        1.0  0.07273381861674366  0.5349244906548216  0.6140583104642126  1.0000
  O   O3        1.0  0.07306657491611923  0.7507778387646056  0.39667698083857905  1.0000
  O   O4        1.0  0.07053283814651556  0.33153453285291135  0.4123155185679175  1.0000
  O   O5        1.0  0.934529593428096  0.7541865548733908  0.39725708882419863  1.0000
  O   O6        1.0  0.9341968475435636  0.5383349389803576  0.6146383403228781  1.0000
  O   O7        1.0  0.9323286777337253  0.5507982560353542  0.19551259368582752  1.0000
  O   O8        1.0  0.9319958591462704  0.3349449094600244  0.4128939235645308  1.0000
