data_image0
_chemical_formula_structural       NC6NCNCH5C9H10C6BrH4Zn2C4O8
_chemical_formula_sum              "N3 C27 H19 Br1 Zn2 O8"
_cell_length_a       14.933214217465613
_cell_length_b       10.297183801781406
_cell_length_c       9.27656775626242
_cell_angle_alpha    86.09344643719086
_cell_angle_beta     90.1519400802072
_cell_angle_gamma    90.03175022610812

_space_group_name_H-M_alt    "P 1"
_space_group_IT_number       1

loop_
  _space_group_symop_operation_xyz
  'x, y, z'

loop_
  _atom_site_type_symbol
  _atom_site_label
  _atom_site_symmetry_multiplicity
  _atom_site_fract_x
  _atom_site_fract_y
  _atom_site_fract_z
  _atom_site_occupancy
  N   N1        1.0  0.8399803314718751  0.40843337720188594  0.40905777083757666  1.0000
  C   C1        1.0  0.762488043951221  0.40932247944593625  0.4080672138012647  1.0000
  C   C2        1.0  0.6660870751714548  0.41043096167533877  0.4068321116593363  1.0000
  C   C3        1.0  0.6184575287281786  0.32500460270188136  0.5020258736497922  1.0000
  C   C4        1.0  0.5249219006977419  0.3259705909844525  0.5009494668624452  1.0000
  C   C5        1.0  0.47811357680078  0.4123139932723596  0.4047338464625425  1.0000
  C   C6        1.0  0.381542339943963  0.4104328862013524  0.40683004068149337  1.0000
  N   N2        1.0  0.30406027682172965  0.4088636240219876  0.4085783567266228  1.0000
  C   C7        1.0  0.5258394290491785  0.4988190553445615  0.3083381748087775  1.0000
  N   N3        1.0  0.4803230574747903  0.588563021796471  0.20833341656702875  1.0000
  C   C8        1.0  0.6198573811717564  0.49699121987151845  0.31037511708860044  1.0000
  H   H1        1.0  0.6536087387695871  0.25765166339612144  0.5770797100677781  1.0000
  H   H2        1.0  0.4889908123421221  0.25918423396929824  0.5753718106589487  1.0000
  H   H3        1.0  0.5165340592573135  0.6519488329223437  0.13770021385072595  1.0000
  H   H4        1.0  0.4105706902631468  0.5933381667008205  0.2030123674647364  1.0000
  H   H5        1.0  0.6569144383107187  0.5631055948160869  0.23670142205139325  1.0000
  C   C9        1.0  0.07202813148802932  0.0271747318542499  0.409022235615611  1.0000
  C   C10       1.0  0.06911134481626413  0.03569425689905681  0.25740154133729676  1.0000
  C   C11       1.0  0.06761678257928352  0.9234425711324341  0.17972182601420242  1.0000
  C   C12       1.0  0.0690996671231652  0.8005179683047903  0.25681388236231695  1.0000
  C   C13       1.0  0.07202107707833405  0.7901123590215882  0.4086263536977622  1.0000
  C   C14       1.0  0.07346538882528209  0.9039081070821541  0.4837395340862884  1.0000
  C   C15       1.0  0.06446182407438994  0.9420892336240808  0.01573333924184617  1.0000
  C   C16       1.0  0.01186526476086369  0.8426158809908162  0.9355778433359934  1.0000
  C   C17       1.0  0.11387475537577285  0.8429782739993743  0.930895173040795  1.0000
  H   H6        1.0  0.07316056584237529  0.35143034746030954  0.4674465435970827  1.0000
  H   H7        1.0  0.06798549228162365  0.1304056291183644  0.19886758799923254  1.0000
  H   H8        1.0  0.06800290681917481  0.7124151409348326  0.19990540782709965  1.0000
  H   H9        1.0  0.07571530216329192  0.8966076713245931  0.6007180841115556  1.0000
  H   H10       1.0  0.0775269025168921  0.5632426321065948  0.6953573774068573  1.0000
  H   H11       1.0  0.06344858707049751  0.04233880742640194  0.9630245559179089  1.0000
  H   H12       1.0  0.9821162043606889  0.7595293306766356  0.001181061132760506  1.0000
  H   H13       1.0  0.980067295820675  0.8825599326679965  0.8336662052254744  1.0000
  H   H14       1.0  0.14609098411366273  0.7601126643289309  0.9936546722823172  1.0000
  H   H15       1.0  0.14169684177433672  0.8831317493821085  0.826245390770378  1.0000
  C   C18       1.0  0.07116987204473801  0.40490958457386284  0.9857003773113072  1.0000
  C   C19       1.0  0.9915938834960533  0.43610866346821364  0.0563771861843323  1.0000
  C   C20       1.0  0.9159970657020549  0.4780118763300482  0.9777325050737438  1.0000
  C   C21       1.0  0.9185562977917366  0.4895648327058905  0.8272280246201524  1.0000
  C   C22       1.0  0.996376744173734  0.45696084496227973  0.7548266948887625  1.0000
  C   C23       1.0  0.0728793507320169  0.41237754546877875  0.8319482602899808  1.0000
  Br  Br1       1.0  0.8150883020451304  0.5479606622661739  0.7200543253870433  1.0000
  H   H16       1.0  0.19436113849604397  0.28703286522351745  0.27646853705052576  1.0000
  H   H17       1.0  0.8556252443871198  0.5027235484013723  0.03409940227041909  1.0000
  H   H18       1.0  0.9962357475233862  0.4635963808677838  0.6377729343681517  1.0000
  H   H19       1.0  0.22022072609391719  0.399100169157732  0.5524082921619309  1.0000
  Zn  Zn1       1.0  0.9739037964854989  0.4085541249940435  0.4089277535261635  1.0000
  Zn  Zn2       1.0  0.17013682114673714  0.40873232361268536  0.40872021212832155  1.0000
  C   C24       1.0  0.07255424741142513  0.4057908027358916  0.6719919617826435  1.0000
  C   C25       1.0  0.07148851334982709  0.41149728813503694  0.14565614217745693  1.0000
  C   C26       1.0  0.07200619003808334  0.6458502301942588  0.402959425784126  1.0000
  C   C27       1.0  0.07203650393219374  0.17143630056205716  0.41468875587595755  1.0000
  O   O1        1.0  0.14606486251709383  0.4137701397769744  0.1992600001421181  1.0000
  O   O2        1.0  0.14691422261014309  0.40365221607000573  0.6182301704302795  1.0000
  O   O3        1.0  0.14647065849324348  0.5975032520183292  0.4009844945225709  1.0000
  O   O4        1.0  0.14650835945463225  0.219919112107231  0.41650556807987643  1.0000
  O   O5        1.0  0.9975321912128877  0.5973673364400348  0.40114239763785275  1.0000
  O   O6        1.0  0.9979757551560462  0.4035178605468598  0.6183879959088214  1.0000
  O   O7        1.0  0.9971263916235609  0.4136357236978947  0.19941609328999846  1.0000
  O   O8        1.0  0.9975698887757442  0.2197846876901075  0.4166617692609509  1.0000
