data_image0
_chemical_formula_structural       NC9NC5H8C6FH5C7NH5Zn2C4O8
_chemical_formula_sum              "N3 C31 H18 F1 Zn2 O8"
_cell_length_a       17.807436237873137
_cell_length_b       9.275642734913903
_cell_length_c       10.302823150593486
_cell_angle_alpha    85.47815829151409
_cell_angle_beta     89.3921433004221
_cell_angle_gamma    88.99238798493903

_space_group_name_H-M_alt    "P 1"
_space_group_IT_number       1

loop_
  _space_group_symop_operation_xyz
  'x, y, z'

loop_
  _atom_site_type_symbol
  _atom_site_label
  _atom_site_symmetry_multiplicity
  _atom_site_fract_x
  _atom_site_fract_y
  _atom_site_fract_z
  _atom_site_occupancy
  N   N1        1.0  0.7158633561128127  0.5407882847018797  0.5554511406655489  1.0000
  C   C1        1.0  0.6550615362349803  0.5017183978213335  0.5444848042543899  1.0000
  C   C2        1.0  0.5794307550384439  0.4531197611430719  0.530843872387355  1.0000
  C   C3        1.0  0.5609045109887959  0.3738307799224602  0.4259839531596237  1.0000
  C   C4        1.0  0.48747025281768375  0.3265214587701757  0.4126570557223477  1.0000
  C   C5        1.0  0.43151122114473994  0.3580819606359526  0.5041582165448066  1.0000
  C   C6        1.0  0.3534702344358415  0.3079319240412388  0.4900770477379563  1.0000
  C   C7        1.0  0.2917917409609865  0.3987028520093243  0.5158820787358993  1.0000
  C   C8        1.0  0.2182139414630902  0.3511681044197579  0.5025691702690489  1.0000
  C   C9        1.0  0.15550174774951125  0.44492714711424025  0.5287338514743487  1.0000
  N   N2        1.0  0.10509409671816008  0.520302930807915  0.5497695378877019  1.0000
  C   C10       1.0  0.2057295195641843  0.21257600260739373  0.4634262856875533  1.0000
  C   C11       1.0  0.2665505588652175  0.12178969496149805  0.4376128889358941  1.0000
  C   C12       1.0  0.3400065238421753  0.16888639839891353  0.450723929505205  1.0000
  C   C13       1.0  0.45073188010583765  0.4379198185976505  0.609236536177693  1.0000
  C   C14       1.0  0.5242178502642835  0.4850177523935038  0.6224081246764983  1.0000
  H   H1        1.0  0.6031625517076832  0.34886670494406635  0.3543283881881625  1.0000
  H   H2        1.0  0.47423084557267975  0.26692043543467614  0.3298452911803169  1.0000
  H   H3        1.0  0.3008827244784932  0.5069145998129847  0.5446001440714319  1.0000
  H   H4        1.0  0.149057230494728  0.17478700878080522  0.4528870795705726  1.0000
  H   H5        1.0  0.256766225725549  0.014488484238334372  0.4076935299610059  1.0000
  H   H6        1.0  0.386246998745649  0.09589205685614367  0.4317826291745448  1.0000
  H   H7        1.0  0.4091874361282607  0.4622853962904619  0.6821870200649063  1.0000
  H   H8        1.0  0.5379930408467143  0.5459739578794656  0.7041767142123319  1.0000
  C   C15       1.0  0.9081597839988033  0.1071237038982038  0.5532024493123615  1.0000
  C   C16       1.0  0.8936223857333527  0.19120166954063683  0.43612923589215974  1.0000
  C   C17       1.0  0.8861696082665198  0.12631689207094965  0.3193531025838061  1.0000
  C   C18       1.0  0.8931980526909254  0.9766562209802531  0.3175852552245584  1.0000
  C   C19       1.0  0.9063780126685587  0.8910602095279418  0.43286213719584743  1.0000
  C   C20       1.0  0.9128047983069252  0.9539560678061474  0.5520293922934332  1.0000
  F   F1        1.0  0.8729864865378808  0.20911019050924695  0.2072464932941616  1.0000
  H   H9        1.0  0.9857701216148813  0.18218485245901989  0.8420607080498728  1.0000
  H   H10       1.0  0.8897875858064153  0.30802887515705035  0.43452365476354354  1.0000
  H   H11       1.0  0.8877142729761164  0.9264834938208062  0.22686662418813344  1.0000
  H   H12       1.0  0.9097697543770465  0.7747217762886173  0.42924450965409267  1.0000
  H   H13       1.0  0.962057046725554  0.6539396580883166  0.7482018211609931  1.0000
  C   C21       1.0  0.9104822924396072  0.5305399072282344  0.1713678513218866  1.0000
  C   C22       1.0  0.8318362272739407  0.5451329124662094  0.17067274335443772  1.0000
  C   C23       1.0  0.7927090678727179  0.5523929517657815  0.05322441300342162  1.0000
  C   C24       1.0  0.8318362121533482  0.5451328190827989  0.9353717498494865  1.0000
  C   C25       1.0  0.9104822919500721  0.5305398997609874  0.933864017953736  1.0000
  C   C26       1.0  0.9493944066755748  0.5233196108121638  0.0524148764318224  1.0000
  C   C27       1.0  0.7120853463919865  0.5673526864351444  0.053640920960668304  1.0000
  N   N3        1.0  0.6472902182625193  0.5793756015452252  0.05397562234226406  1.0000
  H   H14       1.0  0.9402717887749319  0.5250127401978408  0.49895336968872894  1.0000
  H   H15       1.0  0.8008192203344403  0.5508882065996057  0.2612572400556801  1.0000
  H   H16       1.0  0.8008192495391067  0.550888098867699  0.8451077032702031  1.0000
  H   H17       1.0  0.010043419402580463  0.5120660353928297  0.05210157563751227  1.0000
  H   H18       1.0  0.9402717623417455  0.5250125100597338  0.6059706700690608  1.0000
  Zn  Zn1       1.0  0.8281869177080937  0.5348728066792359  0.5538190665752427  1.0000
  Zn  Zn2       1.0  0.992770452455832  0.5262066553390896  0.5514123014881167  1.0000
  C   C28       1.0  0.910449092197476  0.5247957949323858  0.78974388820639  1.0000
  C   C29       1.0  0.9105100851926885  0.5362853917588213  0.3154875784811133  1.0000
  C   C30       1.0  0.9119229120928641  0.793886932993531  0.5470776636437871  1.0000
  C   C31       1.0  0.9090361996342308  0.2671925243007016  0.5581538754813407  1.0000
  O   O1        1.0  0.9729779718927285  0.5349185790916271  0.3629421293717572  1.0000
  O   O2        1.0  0.9728962942007231  0.5195841114989145  0.7404622860825558  1.0000
  O   O3        1.0  0.9740855804334921  0.7368786529391858  0.54450760308031  1.0000
  O   O4        1.0  0.9717886295553276  0.31762405092316864  0.5588967158371665  1.0000
  O   O5        1.0  0.849168684444324  0.7434554140540586  0.546334653040673  1.0000
  O   O6        1.0  0.8479794077103502  0.5261626049696642  0.7422892644197743  1.0000
  O   O7        1.0  0.8480610851767396  0.5414970223135707  0.36476754687188984  1.0000
  O   O8        1.0  0.8468717427796963  0.32420248383220157  0.5607222306886157  1.0000
