data_image0
_chemical_formula_structural       NC10NC3NH7C13OH12C12OCH12Zn2C4O8
_chemical_formula_sum              "N3 C43 H31 O10 Zn2"
_cell_length_a       19.210446455230148
_cell_length_b       10.299150109392551
_cell_length_c       10.299794127170987
_cell_angle_alpha    85.55695120171342
_cell_angle_beta     89.98403246644892
_cell_angle_gamma    89.9285097185194

_space_group_name_H-M_alt    "P 1"
_space_group_IT_number       1

loop_
  _space_group_symop_operation_xyz
  'x, y, z'

loop_
  _atom_site_type_symbol
  _atom_site_label
  _atom_site_symmetry_multiplicity
  _atom_site_fract_x
  _atom_site_fract_y
  _atom_site_fract_z
  _atom_site_occupancy
  N   N1        1.0  0.6553088838081568  0.41988617351521523  0.5669425454105053  1.0000
  C   C1        1.0  0.5950797613286639  0.422093894617054  0.567172985088459  1.0000
  C   C2        1.0  0.520274611185913  0.42483106444726476  0.5674584704394361  1.0000
  C   C3        1.0  0.48463336227765524  0.541073198787776  0.5825327996070385  1.0000
  C   C4        1.0  0.4119678459313246  0.5412247314175462  0.582480157063199  1.0000
  C   C5        1.0  0.3751076714163399  0.4255401006584394  0.5675447254170314  1.0000
  C   C6        1.0  0.2977858975233689  0.4241834961818216  0.5673945692474508  1.0000
  C   C7        1.0  0.2600076374995779  0.527743491375003  0.5040033135064999  1.0000
  C   C8        1.0  0.1872296475670945  0.5263411401092031  0.5038946874213729  1.0000
  C   C9        1.0  0.1512284424257977  0.4216363061706552  0.5671262415643694  1.0000
  C   C10       1.0  0.0762992632221424  0.42033410299303803  0.5669898308136809  1.0000
  N   N2        1.0  0.016061684958393302  0.4192870874361081  0.5668801914582025  1.0000
  C   C11       1.0  0.1882830136192269  0.31820200480342753  0.6304924504349938  1.0000
  C   C12       1.0  0.2610629210475101  0.319330084007722  0.6306514063993831  1.0000
  C   C13       1.0  0.41335830188177164  0.3111184182283322  0.5527579715474916  1.0000
  N   N3        1.0  0.484127612416516  0.31356359588380006  0.5529227540299858  1.0000
  H   H1        1.0  0.5127107863616157  0.6305158504004518  0.5945523784463576  1.0000
  H   H2        1.0  0.3846752474226436  0.6312496635743408  0.5958942044480416  1.0000
  H   H3        1.0  0.2867158038077304  0.6089882754840656  0.452989633239469  1.0000
  H   H4        1.0  0.15906428495724012  0.6067585261470516  0.45421159404381994  1.0000
  H   H5        1.0  0.1609352971592698  0.23682113278937966  0.6800763683930366  1.0000
  H   H6        1.0  0.2885833259934804  0.23903228084547323  0.6817721150636576  1.0000
  H   H7        1.0  0.387116931203178  0.22023049705125913  0.5392979519337067  1.0000
  C   C14       1.0  0.8357542079742155  0.038186929342130194  0.5670554769111291  1.0000
  C   C15       1.0  0.8344635636058567  0.02642397702135435  0.7038596330584601  1.0000
  C   C16       1.0  0.8337486277455392  0.9033253357506783  0.7729585731652313  1.0000
  C   C17       1.0  0.8343293773349213  0.7911687512764586  0.7034962793166093  1.0000
  C   C18       1.0  0.8356230115655675  0.8009763171284291  0.5667785173318145  1.0000
  C   C19       1.0  0.836329781488479  0.9249460588849043  0.499357083812021  1.0000
  C   C20       1.0  0.8323772086423782  0.8918632006502871  0.9175917420588775  1.0000
  C   C21       1.0  0.7895698842346228  0.7990734767002616  0.9856171729070419  1.0000
  C   C22       1.0  0.7882563183126765  0.7883690666234288  0.12171684427460229  1.0000
  C   C23       1.0  0.830182893411395  0.8692957266244363  0.19225138553307253  1.0000
  C   C24       1.0  0.8723242079162488  0.9630403746875329  0.12486860948257605  1.0000
  C   C25       1.0  0.8736539321541525  0.9739205548815715  0.9887686466232051  1.0000
  C   C26       1.0  0.8273077431223352  0.8601497817790386  0.33833089675731487  1.0000
  O   O1        1.0  0.7752779044804441  0.9434230857001547  0.3785785475425174  1.0000
  H   H8        1.0  0.8377381206527567  0.2676836400063516  0.30883129954126104  1.0000
  H   H9        1.0  0.8330463556966838  0.11321352335826274  0.7568658222851635  1.0000
  H   H10       1.0  0.8347232751155347  0.6960592656579897  0.7563271015444554  1.0000
  H   H11       1.0  0.8373256305744228  0.9332271397308678  0.393902583414046  1.0000
  H   H12       1.0  0.8360737365263209  0.47727326072821225  0.5141920792142594  1.0000
  H   H13       1.0  0.7562834151451283  0.7361067031251589  0.9335168210364133  1.0000
  H   H14       1.0  0.7543915986498982  0.7171086425090208  0.1720957568064022  1.0000
  H   H15       1.0  0.904328428989447  0.027562439719436053  0.17771535166729793  1.0000
  H   H16       1.0  0.9075419249351885  0.045626580935971245  0.9391963332624358  1.0000
  H   H17       1.0  0.8785079906209435  0.8879042798044207  0.37849005761661725  1.0000
  H   H18       1.0  0.8159931354957729  0.7581570017280463  0.37614355608328764  1.0000
  H   H19       1.0  0.7755297667944485  0.9337702839213963  0.4752003849197048  1.0000
  C   C27       1.0  0.8357121078175309  0.41946812251408194  0.18556559058296918  1.0000
  C   C28       1.0  0.7675100805575105  0.3704548577579141  0.1884018658910709  1.0000
  C   C29       1.0  0.7329324142324565  0.34572207776169517  0.07269212722250451  1.0000
  C   C30       1.0  0.7674627175125892  0.37068142091339484  0.9530969001922753  1.0000
  C   C31       1.0  0.8356651344421566  0.4196951924902872  0.9482683627975987  1.0000
  C   C32       1.0  0.8694086318562869  0.44381120501820076  0.06502256290014374  1.0000
  C   C33       1.0  0.6607805269675493  0.2938617211654906  0.0767474449488117  1.0000
  C   C34       1.0  0.6109397753560862  0.34261538163356325  0.9855900653406829  1.0000
  C   C35       1.0  0.5431282219904227  0.2937941280897387  0.989670821697514  1.0000
  C   C36       1.0  0.5241716554565172  0.19588403455131329  0.08439636716000322  1.0000
  C   C37       1.0  0.5733259166222289  0.14572680729983878  0.17641695787594402  1.0000
  C   C38       1.0  0.641231982993333  0.19518750000511306  0.17188457718561903  1.0000
  O   O2        1.0  0.5569582254565733  0.047173396791469806  0.2732772440414788  1.0000
  C   C39       1.0  0.4902447141512675  0.9880059830849358  0.2893475104187555  1.0000
  H   H20       1.0  0.8617092740006034  0.4380859475179586  0.5119424259850522  1.0000
  H   H21       1.0  0.7407704004264448  0.35306906458609166  0.2806898419656505  1.0000
  H   H22       1.0  0.7413724016026855  0.35012868752983145  0.8637773618834088  1.0000
  H   H23       1.0  0.9220239221889377  0.4816220376204634  0.06206610462156871  1.0000
  H   H24       1.0  0.8616391541316708  0.4384328601617463  0.6189710892731726  1.0000
  H   H25       1.0  0.6241647630705683  0.419665555068475  0.912241084481095  1.0000
  H   H26       1.0  0.505062956160242  0.33225573399455394  0.9193255811939758  1.0000
  H   H27       1.0  0.4712952265880397  0.15993481413780342  0.08524704881269685  1.0000
  H   H28       1.0  0.6789907070213185  0.15497624656844944  0.2420567399990181  1.0000
  H   H29       1.0  0.47590572307068724  0.9395702599892115  0.20050705567305238  1.0000
  H   H30       1.0  0.49204620501848334  0.9135213384207281  0.3730461381463917  1.0000
  H   H31       1.0  0.4505855523357133  0.062335987992228496  0.309604457661604  1.0000
  Zn  Zn1       1.0  0.7594143488249123  0.4197098281128621  0.5669320513874692  1.0000
  Zn  Zn2       1.0  0.9119562051666208  0.4194528526024377  0.5669013246128898  1.0000
  C   C40       1.0  0.8356733304162434  0.41447816091733086  0.8041031010447981  1.0000
  C   C41       1.0  0.8356988890379042  0.4246861557816472  0.3297304014855613  1.0000
  C   C42       1.0  0.8356445458135973  0.6567913901074421  0.5616559169406712  1.0000
  C   C43       1.0  0.8357276218527986  0.18237136627126294  0.5721776554022413  1.0000
  O   O3        1.0  0.8935832931723854  0.4263341883476816  0.37810177039295945  1.0000
  O   O4        1.0  0.8935646658583827  0.41263410997199457  0.7557080377533858  1.0000
  O   O5        1.0  0.8935406414752641  0.6083051087286508  0.559930220902068  1.0000
  O   O6        1.0  0.8936072655077028  0.23066319894069973  0.5738794898811939  1.0000
  O   O7        1.0  0.7777632364287811  0.6084994818637056  0.5599538861228193  1.0000
  O   O8        1.0  0.7777872605446022  0.41283004351642666  0.7557316331652384  1.0000
  O   O9        1.0  0.7778058880088935  0.42653007616762273  0.3781238044922799  1.0000
  O   O10       1.0  0.777829860336963  0.2308590775000718  0.5739016213472519  1.0000
