data_image0
_chemical_formula_structural       NC8NH4C6NH7C6BrH4Zn2C4O8
_chemical_formula_sum              "N3 C24 H15 Br1 Zn2 O8"
_cell_length_a       13.859017124695912
_cell_length_b       9.274771166103582
_cell_length_c       9.276567756262422
_cell_angle_alpha    86.01325923358289
_cell_angle_beta     90.18619718657982
_cell_angle_gamma    90.59707951677755

_space_group_name_H-M_alt    "P 1"
_space_group_IT_number       1

loop_
  _space_group_symop_operation_xyz
  'x, y, z'

loop_
  _atom_site_type_symbol
  _atom_site_label
  _atom_site_symmetry_multiplicity
  _atom_site_fract_x
  _atom_site_fract_y
  _atom_site_fract_z
  _atom_site_occupancy
  N   N1        1.0  0.9160265247888438  0.5630618729092414  0.4077804179378291  1.0000
  C   C1        1.0  0.8433866953506007  0.5396476900795815  0.3516787926250027  1.0000
  C   C2        1.0  0.7530270829544854  0.5105238631860252  0.2818955802112203  1.0000
  C   C3        1.0  0.6657578786829579  0.5389166315063221  0.34992543125069964  1.0000
  C   C4        1.0  0.5777967703409614  0.5105250836064046  0.2818949988741297  1.0000
  C   C5        1.0  0.5772871760422641  0.4537330612068784  0.1458138313502304  1.0000
  C   C6        1.0  0.664375150734925  0.42544942286882415  0.07804584571126007  1.0000
  C   C7        1.0  0.752152521181162  0.45373072277140564  0.145815013582076  1.0000
  C   C8        1.0  0.4881468619746732  0.5396486119599021  0.3516782930891678  1.0000
  N   N2        1.0  0.4160776521416541  0.5630621934748719  0.40778020141456106  1.0000
  H   H1        1.0  0.6662935257671694  0.5828758554665459  0.4552555136076864  1.0000
  H   H2        1.0  0.5097194383184998  0.43138685879271504  0.09226688772529701  1.0000
  H   H3        1.0  0.6638406596907032  0.3815799748320176  0.9729290731875194  1.0000
  H   H4        1.0  0.8191756287995049  0.4313824289521937  0.09226907267514384  1.0000
  C   C9        1.0  0.16309615023040672  0.13947318841038303  0.4085656866255331  1.0000
  C   C10       1.0  0.14060356990956668  0.2215195686812481  0.2797151149738005  1.0000
  C   C11       1.0  0.12711797023731686  0.15519980905073938  0.15004703868562586  1.0000
  C   C12       1.0  0.13617342714187264  0.005446994811989965  0.14829033600078723  1.0000
  C   C13       1.0  0.15687778744926795  0.9220638441227808  0.2753708781098335  1.0000
  C   C14       1.0  0.16901722289920554  0.9866399653899568  0.4070074638669276  1.0000
  N   N3        1.0  0.10521503342642391  0.24033181369851198  0.019780324259167873  1.0000
  H   H5        1.0  0.2723943548116339  0.22222295282538054  0.7239026551113842  1.0000
  H   H6        1.0  0.13573723055341902  0.33810685090394865  0.279161640622542  1.0000
  H   H7        1.0  0.1262542970884899  0.952982347875768  0.04852383336188716  1.0000
  H   H8        1.0  0.16112079929216153  0.8058594036355105  0.27124431243515  1.0000
  H   H9        1.0  0.2387279992389657  0.6916755687356535  0.6215482548918487  1.0000
  H   H10       1.0  0.09856695237703006  0.3524052517556081  0.01973352792089345  1.0000
  H   H11       1.0  0.09539205949514651  0.19190758938315877  0.9223833948171096  1.0000
  C   C15       1.0  0.16510669458129446  0.5589112450366209  0.9846674330356101  1.0000
  C   C16       1.0  0.07960572719609305  0.593636587729893  0.05521442964423074  1.0000
  C   C17       1.0  0.9984755107090407  0.6402437188952782  0.9764277419922669  1.0000
  C   C18       1.0  0.00132286871675369  0.6530695012227669  0.8259083058615942  1.0000
  C   C19       1.0  0.08492131583023821  0.6167859520560848  0.7536371137267914  1.0000
  C   C20       1.0  0.16700669637527185  0.567201918196748  0.8309057055318587  1.0000
  Br  Br1       1.0  0.8902895205022362  0.7180187198368342  0.7185386547495649  1.0000
  H   H12       1.0  0.2969297199246461  0.4278940968217257  0.2757425613277587  1.0000
  H   H13       1.0  0.9336166891733904  0.6677456846155321  0.03269456725167897  1.0000
  H   H14       1.0  0.084820955210819  0.6241542030665428  0.6365730976763375  1.0000
  H   H15       1.0  0.3256643761116391  0.5523071482680868  0.5515383110275489  1.0000
  Zn  Zn1       1.0  0.06033047322747544  0.5630581957912628  0.40778868765383525  1.0000
  Zn  Zn2       1.0  0.27177364035991136  0.5630542196263335  0.40778377110770747  1.0000
  C   C21       1.0  0.1666052117819283  0.5598883266130728  0.6709591062872895  1.0000
  C   C22       1.0  0.16550122379639354  0.5662259101719482  0.1446134904936547  1.0000
  C   C23       1.0  0.16788014449687583  0.8264511285847288  0.40156025475850576  1.0000
  C   C24       1.0  0.16422620699051185  0.2996613759161042  0.41401242203031724  1.0000
  O   O1        1.0  0.24587516740331816  0.5686729767022524  0.19829099427333244  1.0000
  O   O2        1.0  0.24671173102983635  0.5574371500179451  0.6172774581917531  1.0000
  O   O3        1.0  0.2477401769897814  0.7726899984551852  0.39973597680706496  1.0000
  O   O4        1.0  0.24484664912170406  0.3534201375266588  0.4158323676059974  1.0000
  O   O5        1.0  0.08725739231050067  0.772692277893791  0.3997400911496416  1.0000
  O   O6        1.0  0.08622895828630806  0.5574411617435916  0.617281492520547  1.0000
  O   O7        1.0  0.08539239048321368  0.5686769211900644  0.1982932963601707  1.0000
  O   O8        1.0  0.08436387236808662  0.3534240727556772  0.4158347777389551  1.0000
