data_image0
_chemical_formula_structural       NC9NC3NH7C7NC2NH8C9H10Zn2C4O8
_chemical_formula_sum              "N5 C34 H25 Zn2 O8"
_cell_length_a       16.053384444249904
_cell_length_b       9.273995741505848
_cell_length_c       9.27267997650553
_cell_angle_alpha    86.1595600704732
_cell_angle_beta     90.20084585415952
_cell_angle_gamma    89.75855226915094

_space_group_name_H-M_alt    "P 1"
_space_group_IT_number       1

loop_
  _space_group_symop_operation_xyz
  'x, y, z'

loop_
  _atom_site_type_symbol
  _atom_site_label
  _atom_site_symmetry_multiplicity
  _atom_site_fract_x
  _atom_site_fract_y
  _atom_site_fract_z
  _atom_site_occupancy
  N   N1        1.0  0.7872064678552315  0.5461443127498107  0.4103498651883464  1.0000
  C   C1        1.0  0.7359837004512627  0.522375897100072  0.3272052562587835  1.0000
  C   C2        1.0  0.6723279925666358  0.49284355920913403  0.22391936804126655  1.0000
  C   C3        1.0  0.6852870643235817  0.4782796322158914  0.07876118610170657  1.0000
  C   C4        1.0  0.608265762643662  0.4496976406593942  0.020685492135558366  1.0000
  C   C5        1.0  0.551607913925422  0.44841387198879623  0.1335442773868536  1.0000
  C   C6        1.0  0.4607543148996883  0.42187452202536174  0.12210389207092544  1.0000
  C   C7        1.0  0.4055537287176975  0.4701274780346482  0.22646618846749011  1.0000
  C   C8        1.0  0.319813978810459  0.44495652820720144  0.2155090777596924  1.0000
  C   C9        1.0  0.2638552410290706  0.49516773886898124  0.3225091957022068  1.0000
  N   N2        1.0  0.21888097101372933  0.5355304583879328  0.40852053578945147  1.0000
  C   C10       1.0  0.2885481136581921  0.37140840737489933  0.10020458181174785  1.0000
  C   C11       1.0  0.3427418678588025  0.3232901274431722  0.996077585101947  1.0000
  C   C12       1.0  0.4282728113190076  0.3482735708592204  0.006593998789241604  1.0000
  N   N3        1.0  0.5914409655467792  0.474904632952206  0.25744299747190214  1.0000
  H   H1        1.0  0.7438493171999779  0.48741151515439385  0.021486805345615426  1.0000
  H   H2        1.0  0.5954670950510595  0.43351191599569366  0.9083343237348943  1.0000
  H   H3        1.0  0.4285680430998525  0.5290768491654363  0.3151935951742135  1.0000
  H   H4        1.0  0.222371002258149  0.35138553921034343  0.09079429184057441  1.0000
  H   H5        1.0  0.3184469171988373  0.26616154004398807  0.9070951020142369  1.0000
  H   H6        1.0  0.468835740640438  0.30827320612093123  0.9251851502068718  1.0000
  H   H7        1.0  0.5657034256444574  0.4783523158890199  0.36042012191974715  1.0000
  C   C13       1.0  0.0005523408400913694  0.11740119134739556  0.40839256760834863  1.0000
  C   C14       1.0  0.014652322862111603  0.19924017868017432  0.2779526075712495  1.0000
  C   C15       1.0  0.03622734713683931  0.13258828791041077  0.1528885098809516  1.0000
  C   C16       1.0  0.04460898575558314  0.9819509384537758  0.15469076455639574  1.0000
  C   C17       1.0  0.02875511729121372  0.8988678548692599  0.283943851790818  1.0000
  C   C18       1.0  0.005543036182103393  0.9642623757855853  0.4104901895666013  1.0000
  C   C19       1.0  0.0684839386389362  0.9132870451841816  0.020616526023379933  1.0000
  N   N4        1.0  0.07099086888486573  0.9864543677385039  0.8896022678582521  1.0000
  C   C20       1.0  0.0956103779871944  0.8872309351215002  0.7988250964393577  1.0000
  C   C21       1.0  0.10780362765656483  0.7566333877095744  0.8753090690519079  1.0000
  N   N5        1.0  0.09077956072085724  0.7731740115754718  0.01477611169580384  1.0000
  H   H8        1.0  0.9338388227910485  0.38531512308996924  0.6161665678929691  1.0000
  H   H9        1.0  0.011009290093292991  0.31613616274340417  0.273318151178378  1.0000
  H   H10       1.0  0.04758902865336556  0.1997197231651926  0.05490320356731249  1.0000
  H   H11       1.0  0.03158366892397013  0.7822523042016487  0.28592979918285333  1.0000
  H   H12       1.0  0.007597944741809307  0.6681129200871122  0.6502310345116451  1.0000
  H   H13       1.0  0.1043632645696615  0.9091111662975796  0.6838437627959939  1.0000
  H   H14       1.0  0.12808896862849606  0.6566787559922367  0.8324845938737058  1.0000
  H   H15       1.0  0.09564570273748396  0.6931926684759858  0.09902805914654246  1.0000
  C   C22       1.0  0.0013388640038873864  0.5374684013524882  0.986077443918517  1.0000
  C   C23       1.0  0.05741789093836602  0.4468824237229327  0.06588285055538612  1.0000
  C   C24       1.0  0.11766755775887261  0.3678803487839428  0.9968325858100386  1.0000
  C   C25       1.0  0.12387598891960706  0.37686475507735423  0.8459668821500222  1.0000
  C   C26       1.0  0.0667856433832912  0.46551833495287503  0.764776588321594  1.0000
  C   C27       1.0  0.004756500061130264  0.5441952404103361  0.8328053935389481  1.0000
  C   C28       1.0  0.19183784893676714  0.2883201024487953  0.7793133054777126  1.0000
  C   C29       1.0  0.17161582280344434  0.2228185539224394  0.6371340305019242  1.0000
  C   C30       1.0  0.2309622532281428  0.3504893550499363  0.6393870940286841  1.0000
  H   H16       1.0  0.8764996612292882  0.6380442980241624  0.2598013031176909  1.0000
  H   H17       1.0  0.05605643383199155  0.4396413417066578  0.18294502400568136  1.0000
  H   H18       1.0  0.1603941932212345  0.3001828454343766  0.06211719594942999  1.0000
  H   H19       1.0  0.06868555248232244  0.47170603862293925  0.6480052293592427  1.0000
  H   H20       1.0  0.8164562296224379  0.6844961956728006  0.7192400501647862  1.0000
  H   H21       1.0  0.23498860016319933  0.2223840569083979  0.8511544212967026  1.0000
  H   H22       1.0  0.10989194457760743  0.2489462945657401  0.5877755673088196  1.0000
  H   H23       1.0  0.203356589696005  0.1182161752125621  0.622445798424224  1.0000
  H   H24       1.0  0.2053277291345259  0.454103079946389  0.5912802139937869  1.0000
  H   H25       1.0  0.29739808384572064  0.3204952810569357  0.626011785242031  1.0000
  Zn  Zn1       1.0  0.9117784134256498  0.5430776041596792  0.4098302686378046  1.0000
  Zn  Zn2       1.0  0.09430898031356394  0.5385855131067453  0.4090518862944119  1.0000
  C   C31       1.0  0.004074791241963861  0.5371793858135567  0.6727414173847811  1.0000
  C   C32       1.0  0.00201460701835532  0.5444855028925489  0.1461408750566675  1.0000
  C   C33       1.0  0.004572211447468893  0.8041420920779081  0.4043486918276986  1.0000
  C   C34       1.0  0.0015171146287689125  0.27752106635849233  0.41453367345117  1.0000
  O   O1        1.0  0.0715107543427409  0.5451294904213595  0.19956421711949268  1.0000
  O   O2        1.0  0.07311511263003045  0.5331249140267333  0.6187268834267585  1.0000
  O   O3        1.0  0.07351585800281968  0.7487007104293474  0.40199786631217843  1.0000
  O   O4        1.0  0.0711099463091085  0.32955370500780323  0.41629312642800015  1.0000
  O   O5        1.0  0.9349773851413594  0.7521094137930613  0.4025890287622611  1.0000
  O   O6        1.0  0.9345766496639061  0.536535349194591  0.6193179732974647  1.0000
  O   O7        1.0  0.9329722841396283  0.5485398615694199  0.20015357352873653  1.0000
  O   O8        1.0  0.9325714764780934  0.33296406670124523  0.4168825909013609  1.0000
