data_image0
_chemical_formula_structural       NC8NC6H8C7H8C6BrH5Zn2C4O8
_chemical_formula_sum              "N2 C31 H21 Br1 Zn2 O8"
_cell_length_a       17.457602349358154
_cell_length_b       9.274341958901593
_cell_length_c       10.302972455390005
_cell_angle_alpha    85.52848279273155
_cell_angle_beta     92.87591776842113
_cell_angle_gamma    91.07026823974832

_space_group_name_H-M_alt    "P 1"
_space_group_IT_number       1

loop_
  _space_group_symop_operation_xyz
  'x, y, z'

loop_
  _atom_site_type_symbol
  _atom_site_label
  _atom_site_symmetry_multiplicity
  _atom_site_fract_x
  _atom_site_fract_y
  _atom_site_fract_z
  _atom_site_occupancy
  N   N1        1.0  0.713135568929909  0.613163189909883  0.6253754764757777  1.0000
  C   C1        1.0  0.6523512765332292  0.5621699143599204  0.6148133319302886  1.0000
  C   C2        1.0  0.5767329972223686  0.49874062454476537  0.6016835566933636  1.0000
  C   C3        1.0  0.5179475847332742  0.5433343705546461  0.6765127069414256  1.0000
  C   C4        1.0  0.443753844254534  0.4822571032103198  0.6639948572212933  1.0000
  C   C5        1.0  0.3813631933884526  0.5293415306574327  0.7432419048231923  1.0000
  C   C6        1.0  0.30669843883163184  0.5498481472985617  0.6874766775169419  1.0000
  C   C7        1.0  0.2479141995131505  0.5942376704592489  0.7624139463273721  1.0000
  C   C8        1.0  0.1718074156452965  0.6154170043892235  0.7044333292574909  1.0000
  N   N2        1.0  0.11063051871405911  0.6324381051390764  0.657817071087131  1.0000
  C   C9        1.0  0.263300997474601  0.61839054917011  0.89362452697502  1.0000
  C   C10       1.0  0.3371785609143035  0.598315844980073  0.9497768002511083  1.0000
  C   C11       1.0  0.3959500441080339  0.5541262449758859  0.8752969052468498  1.0000
  C   C12       1.0  0.4296384933144602  0.37583391708718095  0.575216149465011  1.0000
  C   C13       1.0  0.4884104058424411  0.33154960389573906  0.5007865665607159  1.0000
  C   C14       1.0  0.5618186621979919  0.3927516467685339  0.5138540619028589  1.0000
  H   H1        1.0  0.5298108457584286  0.6268266300854839  0.7430394238631631  1.0000
  H   H2        1.0  0.2944491461611898  0.5332260670853646  0.5855022190311782  1.0000
  H   H3        1.0  0.21824256986476914  0.652681252437783  0.9524072571140714  1.0000
  H   H4        1.0  0.3489041829841227  0.6166674824091001  0.05137642314841583  1.0000
  H   H5        1.0  0.4525315193030372  0.5374799008066484  0.9214044744223957  1.0000
  H   H6        1.0  0.37344370865461785  0.3254953827024074  0.5646172570323829  1.0000
  H   H7        1.0  0.4770538159398553  0.2492970161111416  0.43306070692382925  1.0000
  H   H8        1.0  0.6068826945373136  0.35749526865308445  0.4555832361420862  1.0000
  C   C15       1.0  0.914325156534796  0.1993433255380799  0.6420180009919272  1.0000
  C   C16       1.0  0.9233916190712488  0.2831278357816185  0.5238861623854644  1.0000
  C   C17       1.0  0.9248274201933344  0.21824324901116854  0.40639179593460706  1.0000
  C   C18       1.0  0.9163894787476401  0.06820381401861099  0.4041352213315529  1.0000
  C   C19       1.0  0.9097122713199953  0.9829272833068492  0.5215014132960878  1.0000
  C   C20       1.0  0.9094483068446628  0.046247178871363204  0.6411864119030901  1.0000
  C   C21       1.0  0.9196300022947983  0.9983694986457132  0.27801123844377473  1.0000
  H   H9        1.0  0.8505048618580003  0.2744063675617743  0.9375971695709978  1.0000
  H   H10       1.0  0.9277385020433867  0.3999463540637278  0.5220094241220608  1.0000
  H   H11       1.0  0.9317114914696953  0.28545333597105604  0.3168206269157405  1.0000
  H   H12       1.0  0.9064695511457739  0.8662661023071113  0.5195793127570385  1.0000
  H   H13       1.0  0.8695314067954161  0.7467178118287779  0.8421359719445239  1.0000
  H   H14       1.0  0.9799468723400925  0.9717473378000224  0.26166758827512493  1.0000
  H   H15       1.0  0.8972638560000364  0.0721022126889379  0.19516643273024648  1.0000
  H   H16       1.0  0.8842439990166001  0.8974815853897611  0.28031619513624983  1.0000
  C   C22       1.0  0.9118867168589962  0.6227952493863735  0.2603596388048868  1.0000
  C   C23       1.0  0.935088984383139  0.477979188858205  0.27127904969662614  1.0000
  C   C24       1.0  0.946598603729893  0.4061426060207909  0.15975783526103246  1.0000
  C   C25       1.0  0.935089113980344  0.477979138843885  0.036196669701207274  1.0000
  C   C26       1.0  0.911886753125292  0.622795255092323  0.022844723837240666  1.0000
  C   C27       1.0  0.9003976245137176  0.6945039314533825  0.13559295447346487  1.0000
  Br  Br1       1.0  0.9781575278654955  0.20916772457881305  0.17626449532747346  1.0000
  H   H17       1.0  0.9031539086595446  0.6773029238700554  0.5835512447959976  1.0000
  H   H18       1.0  0.9443252680995202  0.4203305596402514  0.3661093311316601  1.0000
  H   H19       1.0  0.9443255708940096  0.42033062264427595  0.9510284531901942  1.0000
  H   H20       1.0  0.8825031065449038  0.8061916285860772  0.12623342615234587  1.0000
  H   H21       1.0  0.9031528338260895  0.6773023301453078  0.6905175333639234  1.0000
  Zn  Zn1       1.0  0.8278440473750275  0.6187216470243411  0.6347449196848666  1.0000
  Zn  Zn2       1.0  0.9959220941011414  0.6268678250923869  0.6484582684920923  1.0000
  C   C28       1.0  0.9119181234055177  0.6170505298203073  0.878724234057111  1.0000
  C   C29       1.0  0.9118498430004771  0.6285408507130381  0.40447922950678533  1.0000
  C   C30       1.0  0.9103662015615116  0.8861641454869991  0.6361697971177529  1.0000
  C   C31       1.0  0.9134017174676702  0.35942549976623517  0.6470337326836557  1.0000
  O   O1        1.0  0.9756222468095473  0.6335542681047617  0.45805123127716313  1.0000
  O   O2        1.0  0.9757130742645569  0.6182187852460415  0.8355599740721718  1.0000
  O   O3        1.0  0.9744590179000338  0.8355313916291351  0.6396954785030637  1.0000
  O   O4        1.0  0.9768762457610118  0.41624166925743417  0.6539156248143011  1.0000
  O   O5        1.0  0.8468898383583602  0.8293478000809729  0.6292875586761343  1.0000
  O   O6        1.0  0.8481438847428987  0.6120369261996701  0.8251519833212075  1.0000
  O   O7        1.0  0.8480530576281674  0.6273723588103198  0.44764167969636864  1.0000
  O   O8        1.0  0.8493070566358937  0.4100597496489055  0.6435061705789538  1.0000
