data_image0
_chemical_formula_structural       NC10NC3NCH9C7OC3OC4H12C7OC6OCH12Zn2C4O8
_chemical_formula_sum              "N3 C46 H33 O12 Zn2"
_cell_length_a       19.437513618241372
_cell_length_b       10.299371110280156
_cell_length_c       10.299362532796527
_cell_angle_alpha    85.59679077391144
_cell_angle_beta     90.36260544927384
_cell_angle_gamma    89.53521497268402

_space_group_name_H-M_alt    "P 1"
_space_group_IT_number       1

loop_
  _space_group_symop_operation_xyz
  'x, y, z'

loop_
  _atom_site_type_symbol
  _atom_site_label
  _atom_site_symmetry_multiplicity
  _atom_site_fract_x
  _atom_site_fract_y
  _atom_site_fract_z
  _atom_site_occupancy
  N   N1        1.0  0.6478157609352339  0.4100477697315487  0.5762064456819869  1.0000
  C   C1        1.0  0.5888839731625455  0.4270570117646373  0.5732373632000578  1.0000
  C   C2        1.0  0.5154454395486525  0.44830850831146934  0.5695520098025757  1.0000
  C   C3        1.0  0.47366849321596705  0.34711604655920714  0.5578515841503124  1.0000
  C   C4        1.0  0.3977784556512156  0.35717900238163486  0.5506343525039652  1.0000
  C   C5        1.0  0.35822608499625574  0.438043314706519  0.616409568860804  1.0000
  C   C6        1.0  0.28204125951338743  0.4294330262782829  0.6079619882378078  1.0000
  C   C7        1.0  0.24889137714114626  0.30808995060255273  0.6125559791336612  1.0000
  C   C8        1.0  0.17715459501094152  0.3017164744326013  0.6053853490920182  1.0000
  C   C9        1.0  0.1375970777724355  0.4162134783051579  0.5939827665000689  1.0000
  C   C10       1.0  0.0637457497450947  0.4095017828382379  0.5866439079644029  1.0000
  N   N2        1.0  0.004374380197680899  0.40410616985662506  0.5807439243461012  1.0000
  C   C11       1.0  0.1700304641052867  0.5372461626154925  0.5901339231759992  1.0000
  C   C12       1.0  0.24175169390963833  0.5438736438295768  0.5973666778129292  1.0000
  C   C13       1.0  0.38693817243318557  0.5303491612244478  0.7063667993543457  1.0000
  N   N3        1.0  0.4439274108285835  0.5935566147107618  0.6859883858704976  1.0000
  C   C14       1.0  0.4877454885348559  0.5842690517190803  0.572877400567807  1.0000
  H   H1        1.0  0.49603812915291473  0.2520574230891173  0.545691735897546  1.0000
  H   H2        1.0  0.3730443672157875  0.2876534992813524  0.4922881096282494  1.0000
  H   H3        1.0  0.2783323892095129  0.21818111175657992  0.6235402048039861  1.0000
  H   H4        1.0  0.1525498043408084  0.20749158095205192  0.609234165205885  1.0000
  H   H5        1.0  0.1399045259915066  0.6265006347461477  0.5814615717261431  1.0000
  H   H6        1.0  0.2658750123048943  0.6385113313013284  0.5935025699371294  1.0000
  H   H7        1.0  0.3569535905703329  0.550754265314418  0.7907414887314518  1.0000
  H   H8        1.0  0.5305081203713561  0.6545824871670014  0.5786693954436858  1.0000
  H   H9        1.0  0.4580647241935065  0.6123565972056062  0.4822435431971417  1.0000
  C   C15       1.0  0.8260519672774308  0.02570622671101175  0.5783598535618457  1.0000
  C   C16       1.0  0.8181058133557783  0.035085774854336726  0.4422762990554512  1.0000
  C   C17       1.0  0.8133208659507501  0.9226426403020251  0.3737978159169152  1.0000
  C   C18       1.0  0.818140006942317  0.7998174163973775  0.4425878140575908  1.0000
  C   C19       1.0  0.8261447750852248  0.7884375724988105  0.5786018821417976  1.0000
  C   C20       1.0  0.8298743115434954  0.9019826615149508  0.6457362574267632  1.0000
  C   C21       1.0  0.8056477595469277  0.9324067551871631  0.22995597335441298  1.0000
  O   O1        1.0  0.8338415331523849  0.8468792511120219  0.16629307971992913  1.0000
  C   C22       1.0  0.7659825836665262  0.03911582601445594  0.15834176112133316  1.0000
  C   C23       1.0  0.7851955545501842  0.08391813221303601  0.031446207082492565  1.0000
  C   C24       1.0  0.7479723185172209  0.18353119843037335  0.961593075373826  1.0000
  O   O2        1.0  0.7699204949327546  0.2249355912319732  0.8357770191862117  1.0000
  C   C25       1.0  0.7371140193744555  0.3249433185183648  0.7539261421268343  1.0000
  C   C26       1.0  0.6902667711757003  0.23836887481526903  0.01934566206829325  1.0000
  C   C27       1.0  0.670347241677993  0.1932880562647763  0.1447151954278947  1.0000
  C   C28       1.0  0.7076924660859649  0.09395403579352535  0.2138177167306739  1.0000
  H   H10       1.0  0.8420970535052017  0.21532792860600994  0.8349519620967272  1.0000
  H   H11       1.0  0.8163948120550665  0.13003307212080006  0.389225851360382  1.0000
  H   H12       1.0  0.8149693513075231  0.7129943448307802  0.3898260532763371  1.0000
  H   H13       1.0  0.8360006568059252  0.8939479085506484  0.7506467124330055  1.0000
  H   H14       1.0  0.8297921040750863  0.45660907750371427  0.630734138779812  1.0000
  H   H15       1.0  0.8296729474330677  0.04226754433114532  0.986640270155717  1.0000
  H   H16       1.0  0.7651665080650139  0.337539323443075  0.660414094603087  1.0000
  H   H17       1.0  0.7381342152068486  0.41839688708617384  0.8009572596830163  1.0000
  H   H18       1.0  0.6831935573545905  0.29760268268683987  0.7334761277546545  1.0000
  H   H19       1.0  0.6603752591190636  0.3153512000102836  0.9680777991403748  1.0000
  H   H20       1.0  0.6256096525373368  0.23510402426079782  0.18829611297320237  1.0000
  H   H21       1.0  0.6905431119602525  0.059119992941835335  0.3099762579797159  1.0000
  C   C29       1.0  0.8260446596168958  0.406952254758681  0.19711325780851552  1.0000
  C   C30       1.0  0.7607289789413665  0.34935982524053055  0.19955118782227044  1.0000
  C   C31       1.0  0.7274891568445644  0.3216400973064921  0.08360594370520925  1.0000
  C   C32       1.0  0.7609227476034693  0.34952015475303455  0.9642994054787866  1.0000
  C   C33       1.0  0.8261520859069639  0.40719151987920776  0.959848476095513  1.0000
  C   C34       1.0  0.8582801931274824  0.4358313752702241  0.07678870356878154  1.0000
  C   C35       1.0  0.6588671458688562  0.25948569243489383  0.08851549522034774  1.0000
  O   O3        1.0  0.6448010532408122  0.18051318999181487  0.1842080455153423  1.0000
  C   C36       1.0  0.6062051313327358  0.28691456913572044  0.9849388994736189  1.0000
  C   C37       1.0  0.6009293949048254  0.4103755082738852  0.9170573176776095  1.0000
  C   C38       1.0  0.5505738360312501  0.435394325884896  0.8207285474452264  1.0000
  C   C39       1.0  0.5042817470631153  0.33850106137269553  0.7910597938629397  1.0000
  C   C40       1.0  0.5088339667156637  0.21524573407998868  0.8598504454267896  1.0000
  C   C41       1.0  0.559183344630912  0.19009981986667257  0.956251501847573  1.0000
  O   O4        1.0  0.4547579090286755  0.36848601912083095  0.6934542187386624  1.0000
  C   C42       1.0  0.40458366087996706  0.2795605254122786  0.6534147478321644  1.0000
  H   H22       1.0  0.9494126924402122  0.5151357642346208  0.39982233939122974  1.0000
  H   H23       1.0  0.7352526270795123  0.32704333629378524  0.29175387960550503  1.0000
  H   H24       1.0  0.73632520020372  0.324849878483209  0.8749243886469281  1.0000
  H   H25       1.0  0.908600049652228  0.48031644976870114  0.07408792005120327  1.0000
  H   H26       1.0  0.8512908018891987  0.4288307175551086  0.6307061556174919  1.0000
  H   H27       1.0  0.6352316452941742  0.48805491724253347  0.9393427571311941  1.0000
  H   H28       1.0  0.5473073764588434  0.5309085056083787  0.7691534845970556  1.0000
  H   H29       1.0  0.4737415045138583  0.13826528414227823  0.8396519421226549  1.0000
  H   H30       1.0  0.5617813335945164  0.09441491043613093  0.007704808250801113  1.0000
  H   H31       1.0  0.3722732414353615  0.32879420120374014  0.5749355477540133  1.0000
  H   H32       1.0  0.3709839809023708  0.2479072963293654  0.7365266646504298  1.0000
  H   H33       1.0  0.4302202406022538  0.1938130445854229  0.6150582279161365  1.0000
  Zn  Zn1       1.0  0.7507108825058744  0.40832966547704536  0.5775233718308763  1.0000
  Zn  Zn2       1.0  0.9014792650412824  0.4058136078606734  0.5794376646475409  1.0000
  C   C43       1.0  0.8261296063294669  0.4019726280534011  0.8156735130653806  1.0000
  C   C44       1.0  0.8260621878210603  0.4121722564761111  0.34128767230299367  1.0000
  C   C45       1.0  0.8261229565027843  0.6442635390023093  0.5733809199539635  1.0000
  C   C46       1.0  0.8260687860209417  0.16987978609776344  0.5835803335045102  1.0000
  O   O5        1.0  0.8832838851933102  0.4129636402175887  0.39040038520666864  1.0000
  O   O6        1.0  0.8833376225868377  0.39927063495444554  0.7680133299602249  1.0000
  O   O7        1.0  0.8833314816613066  0.5949236230276762  0.5723603373976974  1.0000
  O   O8        1.0  0.8832899746592222  0.2173106622626355  0.5860532797445922  1.0000
  O   O9        1.0  0.7689001214380842  0.5968326119351022  0.5709077560737397  1.0000
  O   O10       1.0  0.7689062625405663  0.4011811841513293  0.7665606798860829  1.0000
  O   O11       1.0  0.7688525249674  0.414874143667709  0.38894617372344104  1.0000
  O   O12       1.0  0.7688586144430806  0.219221156454497  0.5845991656258839  1.0000
