data_image0
_chemical_formula_structural       NC12NC2H8C9H10C7NH4Zn2C4O8
_chemical_formula_sum              "N3 C34 H22 Zn2 O8"
_cell_length_a       19.240039667572717
_cell_length_b       10.297183801781406
_cell_length_c       9.275157849593905
_cell_angle_alpha    86.08426286032497
_cell_angle_beta     89.74087680363883
_cell_angle_gamma    89.99762600624447

_space_group_name_H-M_alt    "P 1"
_space_group_IT_number       1

loop_
  _space_group_symop_operation_xyz
  'x, y, z'

loop_
  _atom_site_type_symbol
  _atom_site_label
  _atom_site_symmetry_multiplicity
  _atom_site_fract_x
  _atom_site_fract_y
  _atom_site_fract_z
  _atom_site_occupancy
  N   N1        1.0  0.6579131719983192  0.4078847803407484  0.409658324050028  1.0000
  C   C1        1.0  0.5977648033775115  0.407884863556925  0.40965823308662985  1.0000
  C   C2        1.0  0.5229467665660814  0.4078849795541186  0.4096580806671579  1.0000
  C   C3        1.0  0.4862242074439403  0.34439666273009256  0.5244424890937107  1.0000
  C   C4        1.0  0.4135532522965907  0.34428658342354157  0.5245385755999823  1.0000
  C   C5        1.0  0.37661453217767543  0.40788506995471585  0.4096578279703953  1.0000
  C   C6        1.0  0.4140514899713237  0.4714837453948253  0.2947772961288748  1.0000
  C   C7        1.0  0.48672197109628257  0.4713734317023957  0.29487351868290745  1.0000
  C   C8        1.0  0.2994094419705722  0.40788499035417414  0.4096577221274733  1.0000
  C   C9        1.0  0.2621227207909114  0.29499582051939804  0.45617425665057604  1.0000
  C   C10       1.0  0.18945225111053415  0.29510187170621927  0.4560728644685916  1.0000
  C   C11       1.0  0.1530771549027327  0.4078848617316675  0.40965778977926015  1.0000
  C   C12       1.0  0.0782591171485438  0.4078847503492549  0.40965806576581376  1.0000
  N   N2        1.0  0.0181107997930314  0.40788471151912553  0.4096582970629048  1.0000
  C   C13       1.0  0.18964956967791105  0.5206679270968444  0.3632426563624731  1.0000
  C   C14       1.0  0.2623204849891417  0.5207741568902179  0.3631410836680613  1.0000
  H   H1        1.0  0.5137447731717973  0.2952491416320058  0.6140626944603449  1.0000
  H   H2        1.0  0.3862629294195628  0.2959480956756706  0.6153962533312503  1.0000
  H   H3        1.0  0.3871552821826805  0.5198222597134892  0.20391956195956396  1.0000
  H   H4        1.0  0.514631176166333  0.5205208551630702  0.20525361940705333  1.0000
  H   H5        1.0  0.2891424700984283  0.2061157139393808  0.49080238155103384  1.0000
  H   H6        1.0  0.1616613649508827  0.20713112734069483  0.49184682123938916  1.0000
  H   H7        1.0  0.1620106323550864  0.6086386470587186  0.3274687157495444  1.0000
  H   H8        1.0  0.28948721460548626  0.609654342237987  0.3285129090482699  1.0000
  C   C15       1.0  0.838017311111679  0.026410970357388923  0.4098624881365911  1.0000
  C   C16       1.0  0.8363216441802372  0.03495514699119128  0.25821332114065076  1.0000
  C   C17       1.0  0.835452743660512  0.922716091146533  0.18051901819775784  1.0000
  C   C18       1.0  0.8363147827847327  0.7997789542883329  0.25762555142474075  1.0000
  C   C19       1.0  0.8380133193954002  0.7893486613695748  0.4094665324562723  1.0000
  C   C20       1.0  0.8388528360610281  0.9031321976072478  0.4845938175912508  1.0000
  C   C21       1.0  0.8336185678400407  0.9413894163020669  0.016499735914893062  1.0000
  C   C22       1.0  0.7930961069389294  0.8419764370457756  0.9362764483232846  1.0000
  C   C23       1.0  0.8722883679629362  0.842244918046701  0.9316983674875665  1.0000
  H   H9        1.0  0.838677305526592  0.35065707903234156  0.4682977763514413  1.0000
  H   H10       1.0  0.8356671691435409  0.12967603590957966  0.1996683759569151  1.0000
  H   H11       1.0  0.8356767962162133  0.7116853813546995  0.20070638804148921  1.0000
  H   H12       1.0  0.8401607303453219  0.8958127430472276  0.6015943344525099  1.0000
  H   H13       1.0  0.8412121441452736  0.5624323250457416  0.6962513906677517  1.0000
  H   H14       1.0  0.8330296695810943  0.04164755919107433  0.96378105522162  1.0000
  H   H15       1.0  0.769760512142156  0.7589079759859972  0.001859951243257334  1.0000
  H   H16       1.0  0.7687980125712328  0.8819647254786053  0.8343148502375879  1.0000
  H   H17       1.0  0.8970578174585684  0.7593403510188282  0.9945016844603276  1.0000
  H   H18       1.0  0.8942746679634549  0.8823877429444348  0.8270597529522452  1.0000
  C   C24       1.0  0.8389375708253642  0.4042078943578675  0.986468660352835  1.0000
  C   C25       1.0  0.8988433280861268  0.4465565312465452  0.05614270498501584  1.0000
  C   C26       1.0  0.9551837160086541  0.4991199975866749  0.9762372519241613  1.0000
  C   C27       1.0  0.9522751487506332  0.5101704775363394  0.8255725706976187  1.0000
  C   C28       1.0  0.8937983442679001  0.4667699157730663  0.7545575298479141  1.0000
  C   C29       1.0  0.837093066711156  0.4115517001722444  0.832860420181591  1.0000
  C   C30       1.0  0.015770673986724045  0.5432777228806918  0.0492179497484746  1.0000
  N   N3        1.0  0.06446707475221468  0.5787686272471309  0.10788212151068421  1.0000
  H   H19       1.0  0.6698291183533733  0.36040812338362826  0.09432902943850574  1.0000
  H   H20       1.0  0.9955544968410659  0.5512611610946571  0.7627284424731497  1.0000
  H   H21       1.0  0.8936445512959402  0.4735995693199906  0.6374895458735921  1.0000
  H   H22       1.0  0.7239616855018824  0.37660767736015893  0.5554720725946858  1.0000
  Zn  Zn1       1.0  0.7618584177633575  0.40788136442478073  0.4096666277870451  1.0000
  Zn  Zn2       1.0  0.9141655472234366  0.4078776330894196  0.40966176016777633  1.0000
  C   C31       1.0  0.8374401774823697  0.4049884887658395  0.6728769148446359  1.0000
  C   C32       1.0  0.8385854503766891  0.41077214900529274  0.1464516136528755  1.0000
  C   C33       1.0  0.8380230016180887  0.6450873666290431  0.40379863759131296  1.0000
  C   C34       1.0  0.8380025741099437  0.17067171107816215  0.4155299685502343  1.0000
  O   O1        1.0  0.8962670374420195  0.4129680895076849  0.20014150994759272  1.0000
  O   O2        1.0  0.8953561784393682  0.40278873267471643  0.6191829098001822  1.0000
  O   O3        1.0  0.8958260338657255  0.5966716260349028  0.4019002964686127  1.0000
  O   O4        1.0  0.8957971302789874  0.21908520450400126  0.4174240152216857  1.0000
  O   O5        1.0  0.7802267827328747  0.5966737930128212  0.4019043727272158  1.0000
  O   O6        1.0  0.7797569274626119  0.40279245971918276  0.6191869084088293  1.0000
  O   O7        1.0  0.7806677902876503  0.41297175625016  0.20014377593113752  1.0000
  O   O8        1.0  0.7801978828863609  0.21908886289259535  0.4174263892567873  1.0000
