data_image0
_chemical_formula_structural       NC9NC5H8C6NO2H5C8NH11Zn2C4O8
_chemical_formula_sum              "N4 C32 H24 O10 Zn2"
_cell_length_a       17.807436237873137
_cell_length_b       9.273392599741051
_cell_length_c       9.275652972338538
_cell_angle_alpha    86.06806642986213
_cell_angle_beta     89.8368236096327
_cell_angle_gamma    87.79638846343423

_space_group_name_H-M_alt    "P 1"
_space_group_IT_number       1

loop_
  _space_group_symop_operation_xyz
  'x, y, z'

loop_
  _atom_site_type_symbol
  _atom_site_label
  _atom_site_symmetry_multiplicity
  _atom_site_fract_x
  _atom_site_fract_y
  _atom_site_fract_z
  _atom_site_occupancy
  N   N1        1.0  0.6928177510719209  0.5313339257320955  0.40213413982166213  1.0000
  C   C1        1.0  0.6323933518472316  0.4921637542462749  0.3898119074900668  1.0000
  C   C2        1.0  0.557232040305343  0.443440374441183  0.3744843885389602  1.0000
  C   C3        1.0  0.5391125710196105  0.3633577557607681  0.25777235945958893  1.0000
  C   C4        1.0  0.46613511944705927  0.31592665901048456  0.2427983474602382  1.0000
  C   C5        1.0  0.4102305417566334  0.3481585597202308  0.34449940836306814  1.0000
  C   C6        1.0  0.33267399065328396  0.29787976370219843  0.3286772852799724  1.0000
  C   C7        1.0  0.270120058854274  0.3888860184487415  0.35766848741347923  1.0000
  C   C8        1.0  0.1970015795477723  0.34122946859329917  0.3427091530320039  1.0000
  C   C9        1.0  0.13338299888806046  0.4352280855448332  0.37211092767833875  1.0000
  N   N2        1.0  0.0822466802115444  0.5107964781740331  0.3957491336665364  1.0000
  C   C10       1.0  0.1858549241833031  0.2022798986694435  0.2987298400535612  1.0000
  C   C11       1.0  0.2475515327735734  0.11125819584359499  0.2697292923621941  1.0000
  C   C12       1.0  0.3205520660008283  0.15847501341216197  0.28446286280390787  1.0000
  C   C13       1.0  0.4290394034742213  0.42879192362836577  0.4614559743880922  1.0000
  C   C14       1.0  0.5020701917604828  0.4760104047938967  0.4762567678879668  1.0000
  H   H1        1.0  0.5813306742132306  0.3378677612927601  0.17812820009435004  1.0000
  H   H2        1.0  0.45318413689701803  0.25570056483630776  0.1506379397350548  1.0000
  H   H3        1.0  0.27815850394890884  0.4973636984918832  0.38995960463729873  1.0000
  H   H4        1.0  0.1295479760969899  0.1643943909802177  0.2868866382908768  1.0000
  H   H5        1.0  0.2388046076267807  0.0036829823493773534  0.23610798014050197  1.0000
  H   H6        1.0  0.3675044035637883  0.08530436245051498  0.2631587842308081  1.0000
  H   H7        1.0  0.387547039366827  0.4536923354378047  0.5425354486288434  1.0000
  H   H8        1.0  0.5155376767311737  0.5375849898891024  0.5672642004616657  1.0000
  C   C15       1.0  0.8898229197225319  0.0974097267959424  0.39799772110926157  1.0000
  C   C16       1.0  0.8797381181146668  0.18040164933509312  0.26649639007517983  1.0000
  C   C17       1.0  0.8630406701750812  0.11533231225388718  0.13988108281126754  1.0000
  C   C18       1.0  0.8558778541536778  0.9653023553941477  0.14123671948174654  1.0000
  C   C19       1.0  0.8671308493999933  0.8810736912380773  0.27171378810747604  1.0000
  C   C20       1.0  0.885248798834852  0.9447092782662804  0.3998978906557147  1.0000
  N   N3        1.0  0.8379945761402703  0.898849680316667  0.010414421064047776  1.0000
  O   O1        1.0  0.8276337025378824  0.981632810899146  0.8826207017993194  1.0000
  O   O2        1.0  0.8313783412991663  0.7652669006167423  0.010753007160514638  1.0000
  H   H9        1.0  0.8759056967460817  0.17700552977137693  0.7519865155419566  1.0000
  H   H10       1.0  0.883006397336904  0.2970429959387957  0.26218428319078435  1.0000
  H   H11       1.0  0.8549746625180946  0.18300801514188714  0.04094912027012244  1.0000
  H   H12       1.0  0.8635053666587886  0.7646696474276429  0.2727992342168484  1.0000
  H   H13       1.0  0.8784420262202768  0.6485928790224725  0.6390953161874191  1.0000
  C   C21       1.0  0.8858781879839007  0.5183359451718897  0.9756982063851196  1.0000
  C   C22       1.0  0.8366287108844295  0.6152762669103715  0.0428560986833626  1.0000
  C   C23       1.0  0.7932670124233565  0.7203221926741721  0.9610884182997252  1.0000
  C   C24       1.0  0.7981472681872642  0.7270914512640656  0.81023816757393  1.0000
  C   C25       1.0  0.8457418935216379  0.6303026030051497  0.7416994686571052  1.0000
  C   C26       1.0  0.8891935515314983  0.5237831025355812  0.8221974267211465  1.0000
  C   C27       1.0  0.7399937546754544  0.8218031369196963  0.03471820790688686  1.0000
  C   C28       1.0  0.6631114544639728  0.7553885334411374  0.05661425941610343  1.0000
  N   N4        1.0  0.6116197354124507  0.8555720243295416  0.12587641185599696  1.0000
  H   H14       1.0  0.9421138543463302  0.3010854158691614  0.2709216931734191  1.0000
  H   H15       1.0  0.8330760235329168  0.6114509354623683  0.1597332317056206  1.0000
  H   H16       1.0  0.7644077068754451  0.8065565380321171  0.7453755444002832  1.0000
  H   H17       1.0  0.84706511673973  0.6364270892294391  0.6246712470529651  1.0000
  H   H18       1.0  0.9929572403005769  0.38621266778199576  0.549731374650225  1.0000
  H   H19       1.0  0.7633896717434162  0.8459117302783656  0.14110352487415523  1.0000
  H   H20       1.0  0.7334156303942652  0.9262776646461726  0.9687409329450793  1.0000
  H   H21       1.0  0.6397488286392468  0.7324370120124097  0.9498137392495637  1.0000
  H   H22       1.0  0.6689737205998403  0.6517815346386092  0.12448823489904816  1.0000
  H   H23       1.0  0.5588065983632311  0.8099240397414419  0.131040784802831  1.0000
  H   H24       1.0  0.6291768182539916  0.8618649753214127  0.23272403495495667  1.0000
  Zn  Zn1       1.0  0.8051985801289736  0.5254034661198317  0.4002998919391352  1.0000
  Zn  Zn2       1.0  0.9698659428505054  0.5167152540585053  0.39759520425842476  1.0000
  C   C29       1.0  0.8885962076554226  0.5170062150861915  0.662178093811264  1.0000
  C   C30       1.0  0.8864701042136903  0.5251142314381934  0.13571711839792333  1.0000
  C   C31       1.0  0.8860870411306144  0.7845148995540849  0.39379531414267066  1.0000
  C   C32       1.0  0.8889792242072165  0.25760381711955144  0.4040999719444147  1.0000
  O   O3        1.0  0.949159196667055  0.5240856610689468  0.18839449806581898  1.0000
  O   O4        1.0  0.9508858376147691  0.5114395425078415  0.6074475014345215  1.0000
  O   O5        1.0  0.9488588173822897  0.7274562424154729  0.3907265252003734  1.0000
  O   O6        1.0  0.9511861602307519  0.30806897375093345  0.40511536717800034  1.0000
  O   O7        1.0  0.8238783065557993  0.7340497493937859  0.39277972993495963  1.0000
  O   O8        1.0  0.8259053171266332  0.518034782303285  0.6095006332066093  1.0000
  O   O9        1.0  0.8241786697134648  0.53068083943692  0.19044589685568258  1.0000
  O   O10       1.0  0.8262056337530165  0.3146641424956713  0.407166874005231  1.0000
