data_image0
_chemical_formula_structural       NC10NC3NCH9C12NCOCH13C12OCH12Zn2C4O8
_chemical_formula_sum              "N4 C45 H34 O10 Zn2"
_cell_length_a       19.437513618241372
_cell_length_b       10.299155265289647
_cell_length_c       10.299794127170987
_cell_angle_alpha    85.56075829467142
_cell_angle_beta     90.34079441948666
_cell_angle_gamma    89.50051482239499

_space_group_name_H-M_alt    "P 1"
_space_group_IT_number       1

loop_
  _space_group_symop_operation_xyz
  'x, y, z'

loop_
  _atom_site_type_symbol
  _atom_site_label
  _atom_site_symmetry_multiplicity
  _atom_site_fract_x
  _atom_site_fract_y
  _atom_site_fract_z
  _atom_site_occupancy
  N   N1        1.0  0.647647291856442  0.4101731303007418  0.5753986540184008  1.0000
  C   C1        1.0  0.5887106073978046  0.4271836693855518  0.572419215432552  1.0000
  C   C2        1.0  0.5152659509328509  0.4484367861130125  0.5687209219836484  1.0000
  C   C3        1.0  0.4735240572274148  0.3472370525984852  0.5570833721501369  1.0000
  C   C4        1.0  0.3976322237789079  0.35730085848393717  0.5498602488314093  1.0000
  C   C5        1.0  0.3580404646098302  0.438170127180725  0.6155827901815969  1.0000
  C   C6        1.0  0.2818601243015872  0.42955933287635517  0.6071408804863458  1.0000
  C   C7        1.0  0.2487485192678212  0.30820725532378934  0.6118094656690249  1.0000
  C   C8        1.0  0.1770152421586765  0.3018334185935687  0.6046430728586245  1.0000
  C   C9        1.0  0.1374230322888363  0.416339023510721  0.5931704089126222  1.0000
  C   C10       1.0  0.06357535247608262  0.40962694513448034  0.5858360033212393  1.0000
  N   N2        1.0  0.004206915810042797  0.40423102433027114  0.5799395994866234  1.0000
  C   C11       1.0  0.1698180913147993  0.5373806755636641  0.5892471305262159  1.0000
  C   C12       1.0  0.24153572150717273  0.544008535094904  0.5964754886955013  1.0000
  C   C13       1.0  0.38670459097724286  0.5304814060524583  0.7054792520148374  1.0000
  N   N3        1.0  0.44367751729656024  0.5936938210050604  0.685062757037775  1.0000
  C   C14       1.0  0.48752140310445924  0.5844072874735549  0.5719623676418344  1.0000
  H   H1        1.0  0.4959268567010647  0.2521716158480434  0.5449826387929679  1.0000
  H   H2        1.0  0.3729323625391525  0.2877711211670002  0.49155937212663753  1.0000
  H   H3        1.0  0.2782163643513387  0.21829163175178112  0.6228486353228717  1.0000
  H   H4        1.0  0.152440117708838  0.20760153074404886  0.6085498005391319  1.0000
  H   H5        1.0  0.1396650654378899  0.6266418492363972  0.5805201388590897  1.0000
  H   H6        1.0  0.2656292433995728  0.6386532475537918  0.5925532154781223  1.0000
  H   H7        1.0  0.3566964034719715  0.5508867342948316  0.7898377305581913  1.0000
  H   H8        1.0  0.5302601501090143  0.6547258111058409  0.5777107740377894  1.0000
  H   H9        1.0  0.4578498394298763  0.6124982732441697  0.48131510129171673  1.0000
  C   C15       1.0  0.8260072375003648  0.02580326254269604  0.5777888654510823  1.0000
  C   C16       1.0  0.8142628845468166  0.035671630192835486  0.442720980177071  1.0000
  C   C17       1.0  0.8082416245030289  0.9235385036628703  0.3741201506207852  1.0000
  C   C18       1.0  0.8140983983589166  0.8004145392167323  0.4424111162171884  1.0000
  C   C19       1.0  0.8258535887350809  0.7885907737427038  0.5775607259219409  1.0000
  C   C20       1.0  0.831738699846157  0.9018033587058077  0.6444176020381736  1.0000
  C   C21       1.0  0.7958183665023968  0.9349517002129993  0.23123464817728068  1.0000
  C   C22       1.0  0.8307150959240913  0.028464480639049047  0.1502656269938143  1.0000
  C   C23       1.0  0.8190296527561874  0.039074078897033404  0.015800920234193768  1.0000
  C   C24       1.0  0.772641635171715  0.9554934795982892  0.9594624219644098  1.0000
  C   C25       1.0  0.7369045158529463  0.8638109761908348  0.040352584342608466  1.0000
  C   C26       1.0  0.7486150195142275  0.8529449332758159  0.1747802766972839  1.0000
  N   N4        1.0  0.7587423229921819  0.9659381202658649  0.8217313571572932  1.0000
  C   C27       1.0  0.8089843222922087  0.002017349652839056  0.7241584910144918  1.0000
  O   O1        1.0  0.8720993754350509  0.003505504067127243  0.7528192926385544  1.0000
  C   C28       1.0  0.7870440553979794  0.028801538419155337  0.5853462374403557  1.0000
  H   H10       1.0  0.8305459739360167  0.349483296055119  0.6297363295600111  1.0000
  H   H11       1.0  0.8088226857035042  0.13079684043175477  0.3908446975037953  1.0000
  H   H12       1.0  0.8104006186148333  0.7136663663477054  0.3897382548263824  1.0000
  H   H13       1.0  0.8407996808543945  0.893476776719071  0.7485978686097758  1.0000
  H   H14       1.0  0.8484528779331998  0.5589838253518048  0.8325229798011767  1.0000
  H   H15       1.0  0.8674509514200689  0.09290879626286253  0.19082375546482488  1.0000
  H   H16       1.0  0.8454273068575449  0.11407765874009423  0.9565597095096798  1.0000
  H   H17       1.0  0.7001026868459779  0.8000716337941031  0.9989266238959225  1.0000
  H   H18       1.0  0.7200065666613646  0.7815947147371721  0.2348262366906355  1.0000
  H   H19       1.0  0.7102859112805568  0.9378707540792428  0.7900423779910409  1.0000
  H   H20       1.0  0.7373805615503637  0.08307395579072384  0.5802603328072893  1.0000
  H   H21       1.0  0.7806803500539551  0.9352887496351892  0.5400434274173391  1.0000
  H   H22       1.0  0.826214059060959  0.08822875199753001  0.5304526215446419  1.0000
  C   C29       1.0  0.8259536302066516  0.4070831290611128  0.196323700491414  1.0000
  C   C30       1.0  0.7585458845166025  0.35908025531198917  0.19828643926681955  1.0000
  C   C31       1.0  0.7243709064168347  0.33485973167966865  0.08213383504044147  1.0000
  C   C32       1.0  0.7584990648627964  0.359307518802749  0.9629808842025965  1.0000
  C   C33       1.0  0.8259071956771611  0.40731089359860895  0.959025888346555  1.0000
  C   C34       1.0  0.8592577201505589  0.43092700779408655  0.07621226876510967  1.0000
  C   C35       1.0  0.6530593011040077  0.28406828203445733  0.08526502557420135  1.0000
  C   C36       1.0  0.6037963345126003  0.3335598845690445  0.9934748845727568  1.0000
  C   C37       1.0  0.5367745180413244  0.285743237740816  0.9966870997453793  1.0000
  C   C38       1.0  0.5180413718659332  0.1881144107292545  0.09116426439566605  1.0000
  C   C39       1.0  0.5666258715258375  0.13722941620116091  0.18380876358619402  1.0000
  C   C40       1.0  0.6337410823210317  0.18568409908795735  0.1801461724706359  1.0000
  O   O2        1.0  0.5504515294261245  0.038918931673808776  0.28045366157504237  1.0000
  C   C41       1.0  0.4845153175608337  0.9807399144996751  0.295668712897176  1.0000
  H   H23       1.0  0.8516480351473497  0.42531581477656527  0.5230335051860007  1.0000
  H   H24       1.0  0.7321175574002733  0.34209059250193685  0.29023205284370834  1.0000
  H   H25       1.0  0.732712653791  0.33914131424511135  0.8733270597862947  1.0000
  H   H26       1.0  0.9112602522583838  0.46795836186830453  0.07392971088772948  1.0000
  H   H27       1.0  0.8515787193945679  0.42566376419141094  0.6300612966937855  1.0000
  H   H28       1.0  0.6168651786295954  0.41041378859368716  0.920299765016464  1.0000
  H   H29       1.0  0.49915048987638905  0.32476843161988356  0.9258586767069703  1.0000
  H   H30       1.0  0.46578067796686223  0.15294852704508877  0.091337836723558  1.0000
  H   H31       1.0  0.6710621867919517  0.14491380681725596  0.2507974902948047  1.0000
  H   H32       1.0  0.47034451827033624  0.9325168139606321  0.20664207725770442  1.0000
  H   H33       1.0  0.4862982125353667  0.9062289689303277  0.37938539413054406  1.0000
  H   H34       1.0  0.44531479135149993  0.05565693111490266  0.3154245149112893  1.0000
  Zn  Zn1       1.0  0.7505427029719293  0.40845487962760973  0.5767165824379337  1.0000
  Zn  Zn2       1.0  0.9013115124041009  0.4059386078062352  0.5786323436323975  1.0000
  C   C42       1.0  0.8259154605328269  0.40209376731944396  0.814860385567544  1.0000
  C   C43       1.0  0.8259404008960061  0.41230133142254255  0.340488688393243  1.0000
  C   C44       1.0  0.8258793864554099  0.6444061834406791  0.572428886588217  1.0000
  C   C45       1.0  0.8259764238367143  0.1699873557560434  0.5829202564209206  1.0000
  O   O3        1.0  0.8831519396012749  0.41309202957698615  0.38959879838031525  1.0000
  O   O4        1.0  0.883133959853958  0.3993922971644201  0.7672039204638235  1.0000
  O   O5        1.0  0.8831040581992308  0.5950626509169499  0.5714387595903248  1.0000
  O   O6        1.0  0.8831817898128792  0.21742168594496294  0.5853638612271959  1.0000
  O   O7        1.0  0.768672374113156  0.5969718023489738  0.5699850641825486  1.0000
  O   O8        1.0  0.7687022754545966  0.4013030090017995  0.7657501553471093  1.0000
  O   O9        1.0  0.7687202553518935  0.4150026956878825  0.3881434719499577  1.0000
  O   O10       1.0  0.7687501055566256  0.21933234279544478  0.5839086321628699  1.0000
