data_image0
_chemical_formula_structural       NC8NC6H8C12ClH7C11NCOCH11Zn2C4O8
_chemical_formula_sum              "N3 C43 H26 Cl1 O9 Zn2"
_cell_length_a       17.457602349358154
_cell_length_b       10.299768534541528
_cell_length_c       10.299158637457994
_cell_angle_alpha    85.58253282463849
_cell_angle_beta     92.85709877509845
_cell_angle_gamma    91.7063886151948

_space_group_name_H-M_alt    "P 1"
_space_group_IT_number       1

loop_
  _space_group_symop_operation_xyz
  'x, y, z'

loop_
  _atom_site_type_symbol
  _atom_site_label
  _atom_site_symmetry_multiplicity
  _atom_site_fract_x
  _atom_site_fract_y
  _atom_site_fract_z
  _atom_site_occupancy
  N   N1        1.0  0.7229595333349357  0.4523397075876552  0.6265625126867633  1.0000
  C   C1        1.0  0.661874888763528  0.4064110798233201  0.6159451816388677  1.0000
  C   C2        1.0  0.5858830071689056  0.3492815845778858  0.6027467639471482  1.0000
  C   C3        1.0  0.5273478786030801  0.3894694784122495  0.6776456242889546  1.0000
  C   C4        1.0  0.4527943657985495  0.3344584470822045  0.6650617183417598  1.0000
  C   C5        1.0  0.3906679328970953  0.3768910279162997  0.7443824475222125  1.0000
  C   C6        1.0  0.3161352851324599  0.3953397073919483  0.6886197883982257  1.0000
  C   C7        1.0  0.2576000984792486  0.43534371496434865  0.7636265954744614  1.0000
  C   C8        1.0  0.1816298279790261  0.4543974648240774  0.7056485046044534  1.0000
  N   N2        1.0  0.1205626457653362  0.4697103001116003  0.6590342703640131  1.0000
  C   C9        1.0  0.2731053471530708  0.45714236153253207  0.8949045862402579  1.0000
  C   C10       1.0  0.34685329163717116  0.43908280223225277  0.9510548560760612  1.0000
  C   C11       1.0  0.4053768212435115  0.3992590085590162  0.8765057751931143  1.0000
  C   C12       1.0  0.4380647690011967  0.23858160369537207  0.5761460130051628  1.0000
  C   C13       1.0  0.49658815688471664  0.19867252846922967  0.5016471645883449  1.0000
  C   C14       1.0  0.5703568216770677  0.25379612785982997  0.5147810224812706  1.0000
  H   H1        1.0  0.5396936235499453  0.46468670368886916  0.7442787988025279  1.0000
  H   H2        1.0  0.3038066769612203  0.3803336879641286  0.5865951202564696  1.0000
  H   H3        1.0  0.22823914291624914  0.4880455902495819  0.95374132672817  1.0000
  H   H4        1.0  0.3586685546635263  0.4556463401697186  0.05270632068727865  1.0000
  H   H5        1.0  0.4618508996648808  0.3842835017284512  0.9226115342826178  1.0000
  H   H6        1.0  0.3815735211333099  0.19324262730822797  0.5654925862869349  1.0000
  H   H7        1.0  0.48475665944548885  0.12457133600524162  0.43381571287361936  1.0000
  H   H8        1.0  0.6152228084721986  0.22202338678937397  0.45645537409372877  1.0000
  C   C15       1.0  0.9216923967680655  0.07965659221717371  0.6427906599727857  1.0000
  C   C16       1.0  0.9267711132645213  0.0893959991335107  0.5067353320006744  1.0000
  C   C17       1.0  0.9294182940368574  0.9771948916800921  0.4378084276526431  1.0000
  C   C18       1.0  0.9269176391070965  0.8541146885983307  0.5067627886735238  1.0000
  C   C19       1.0  0.9218371177935315  0.8423836737733749  0.642817907198221  1.0000
  C   C20       1.0  0.9192535128191656  0.9557127377160061  0.7100699794240042  1.0000
  C   C21       1.0  0.9347921727875362  0.9885520846549215  0.2938733160932925  1.0000
  C   C22       1.0  0.8911601455102127  0.08015967429568471  0.2158454986150904  1.0000
  C   C23       1.0  0.89628654869329  0.09065658221872508  0.08038324852283263  1.0000
  C   C24       1.0  0.9449712105134991  0.01006421526799373  0.021250918935633793  1.0000
  C   C25       1.0  0.9885909507323353  0.9187677998223238  0.09776649942467919  1.0000
  C   C26       1.0  0.9836007881275285  0.9078845979313195  0.23325451950535128  1.0000
  Cl  Cl1       1.0  0.9513175622346572  0.023476454028687144  0.8512827531516964  1.0000
  H   H9        1.0  0.9297389488729759  0.18451941325839494  0.45424466821068177  1.0000
  H   H10       1.0  0.9278833578309932  0.7673044029892642  0.4538950573638054  1.0000
  H   H11       1.0  0.9153347398425419  0.947431010950865  0.8150303384877847  1.0000
  H   H12       1.0  0.8523607093097961  0.1424570170301811  0.2594206655969664  1.0000
  H   H13       1.0  0.8622339196634653  0.16126299657007337  0.021489970408443474  1.0000
  H   H14       1.0  0.02653510002701444  0.8563858797064172  0.052431989717781846  1.0000
  H   H15       1.0  0.018627239440338398  0.8376135097113055  0.2907330104659702  1.0000
  C   C27       1.0  0.9218366553378989  0.4608853290535251  0.2614370831846611  1.0000
  C   C28       1.0  0.9236451422603756  0.597666334788252  0.2502740092330078  1.0000
  C   C29       1.0  0.9245018824576383  0.6671534236641976  0.127451631367673  1.0000
  C   C30       1.0  0.9234983439712763  0.5980197878643254  0.014950549113766478  1.0000
  C   C31       1.0  0.9216928527836674  0.4611550048949298  0.024171559869541562  1.0000
  C   C32       1.0  0.9208764796201064  0.39342947222342484  0.1478039161199134  1.0000
  C   C33       1.0  0.9264159591091705  0.8118509835826659  0.11661608257850008  1.0000
  C   C34       1.0  0.9753250798326533  0.01791035220561765  0.19270440296893065  1.0000
  C   C35       1.0  0.9305533399681226  0.08693906766844162  0.09489983395315726  1.0000
  C   C36       1.0  0.882538137821166  0.017368479445961867  0.010192819705543869  1.0000
  C   C37       1.0  0.8807621412336277  0.8812294565422543  0.020261575732359646  1.0000
  N   N3        1.0  0.9302869279813126  0.22697210765376938  0.08364553903802885  1.0000
  C   C38       1.0  0.9960333653879246  0.30883160939679755  0.11224813804708056  1.0000
  O   O1        1.0  0.06217110327117513  0.26230883611308714  0.12616465680333788  1.0000
  C   C39       1.0  0.9870612767796418  0.45225345481863677  0.11612087568711082  1.0000
  H   H16       1.0  0.9233197874791372  0.6504688795442916  0.3371993643158602  1.0000
  H   H17       1.0  0.9251716687400543  0.6511060046946199  0.9201166743939893  1.0000
  H   H18       1.0  0.9194841777147875  0.28792720156659524  0.1556995732141706  1.0000
  H   H19       1.0  0.9187508361745839  0.20283485746229157  0.8343215561966693  1.0000
  H   H20       1.0  0.010736670732328424  0.06879654339944574  0.26262894147291815  1.0000
  H   H21       1.0  0.8466627422569495  0.06890270748195126  0.935640748000619  1.0000
  H   H22       1.0  0.84283710304022  0.8301866778409507  0.953816008016434  1.0000
  H   H23       1.0  0.8805636335956232  0.2722543459144351  0.04463892779207512  1.0000
  H   H24       1.0  0.9331190229883418  0.47161129562572146  0.16313372078371668  1.0000
  H   H25       1.0  0.9850074374471791  0.4988306359084991  0.015235292513969599  1.0000
  H   H26       1.0  0.036014967361731376  0.4951594163542321  0.17277445099035083  1.0000
  Zn  Zn1       1.0  0.8376992008401692  0.457349005316364  0.6359406588344845  1.0000
  Zn  Zn2       1.0  0.005822959985336992  0.4646903583319934  0.6496667563155778  1.0000
  C   C40       1.0  0.9217173390738461  0.45593026188674535  0.8799980613422954  1.0000
  C   C41       1.0  0.9218066579447469  0.46611082059205494  0.40560963122084354  1.0000
  C   C42       1.0  0.9218067827601963  0.6982100526900064  0.6376373221365845  1.0000
  C   C43       1.0  0.9217171565804169  0.2238294670070784  0.6479704349252886  1.0000
  O   O2        1.0  0.985598679881865  0.47064488276143374  0.45920423763146023  1.0000
  O   O3        1.0  0.985527360093528  0.4569671369351422  0.8368208714401194  1.0000
  O   O4        1.0  0.985598726664133  0.6526110949756438  0.6411127896167947  1.0000
  O   O5        1.0  0.9855272559621314  0.275000931471614  0.654912217397094  1.0000
  O   O6        1.0  0.8579948474909889  0.6470384296729115  0.6306951930620939  1.0000
  O   O7        1.0  0.8579234812259777  0.4513960319102932  0.8264032056958103  1.0000
  O   O8        1.0  0.8579948013511354  0.465073731930887  0.44878501049593855  1.0000
  O   O9        1.0  0.8579233774081444  0.26942977138655344  0.644493087628389  1.0000
