data_image0
_chemical_formula_structural       NC9NC4H8C12H9C6OCH7Zn2C4O8
_chemical_formula_sum              "N2 C36 H24 O9 Zn2"
_cell_length_a       16.32274767691083
_cell_length_b       10.299137764757564
_cell_length_c       9.27389158865715
_cell_angle_alpha    86.05603520339396
_cell_angle_beta     89.15205086511824
_cell_angle_gamma    89.54283159448198

_space_group_name_H-M_alt    "P 1"
_space_group_IT_number       1

loop_
  _space_group_symop_operation_xyz
  'x, y, z'

loop_
  _atom_site_type_symbol
  _atom_site_label
  _atom_site_symmetry_multiplicity
  _atom_site_fract_x
  _atom_site_fract_y
  _atom_site_fract_z
  _atom_site_occupancy
  N   N1        1.0  0.7768504041799877  0.399021673871232  0.39766034272537054  1.0000
  C   C1        1.0  0.7247047181162032  0.35108585870247633  0.3374176303910792  1.0000
  C   C2        1.0  0.6598868892295138  0.29154920295880293  0.26259569994894366  1.0000
  C   C3        1.0  0.671762199799642  0.21011364319002657  0.1602478498095652  1.0000
  C   C4        1.0  0.5925539840225713  0.17037269036933983  0.11030550245728588  1.0000
  C   C5        1.0  0.5333905895918825  0.22853272666365987  0.18340329623517126  1.0000
  C   C6        1.0  0.44351397543462345  0.21316158385489173  0.16408812266267048  1.0000
  C   C7        1.0  0.38764957223583957  0.28095079519659505  0.24928011595013969  1.0000
  C   C8        1.0  0.3029930821540698  0.2678138754387014  0.23277214449894038  1.0000
  C   C9        1.0  0.24670850260759064  0.33768704484492806  0.3205822443844164  1.0000
  N   N2        1.0  0.20147468896507323  0.3938535716907052  0.39116669221941036  1.0000
  C   C10       1.0  0.2731483889678833  0.1867781140466458  0.1309350942914882  1.0000
  C   C11       1.0  0.3276905169550882  0.1190786975659428  0.045856322829362035  1.0000
  C   C12       1.0  0.4121896128460821  0.1318617680044034  0.06191947200822102  1.0000
  C   C13       1.0  0.5708087332078855  0.3133364263212095  0.2899813330678438  1.0000
  H   H1        1.0  0.7307951759950925  0.1784471736495694  0.12044709116270291  1.0000
  H   H2        1.0  0.5845223932561787  0.10381550718941113  0.026656527059777387  1.0000
  H   H3        1.0  0.40951137368680823  0.34421286913788407  0.3287812199902458  1.0000
  H   H4        1.0  0.2077995036863522  0.1759560157272433  0.11733619920055571  1.0000
  H   H5        1.0  0.30443039639645025  0.05638998267094797  0.9670760385198692  1.0000
  H   H6        1.0  0.4521854263141923  0.07770659619538599  0.9938623690472288  1.0000
  H   H7        1.0  0.5536688438244696  0.279510793517749  0.40265544858638624  1.0000
  H   H8        1.0  0.5541285330782909  0.4172068356405081  0.265339240139995  1.0000
  C   C14       1.0  0.9890871141534308  0.015039898755199397  0.394571805664202  1.0000
  C   C15       1.0  0.9895318313272778  0.023653795258810506  0.24279316928925487  1.0000
  C   C16       1.0  0.9898388026917526  0.9108873965264705  0.16567867261777325  1.0000
  C   C17       1.0  0.9896949967093248  0.7883933973511852  0.24239431115769405  1.0000
  C   C18       1.0  0.989245781454541  0.7778253183571312  0.3942676022156264  1.0000
  C   C19       1.0  0.9889459793565258  0.8916584317508559  0.469421332807543  1.0000
  C   C20       1.0  0.9903082991863561  0.9210449733491457  0.005111885699668366  1.0000
  C   C21       1.0  0.039969479758583226  0.8374955575845084  0.9268119658792316  1.0000
  C   C22       1.0  0.04030958230212667  0.8473084389962187  0.7756732159993645  1.0000
  C   C23       1.0  0.9911994630031932  0.9402814038631508  0.701122618846743  1.0000
  C   C24       1.0  0.941646785575868  0.023700033471766507  0.7775594864782212  1.0000
  C   C25       1.0  0.9411006632029543  0.014384564296620059  0.9287023609301999  1.0000
  H   H9        1.0  0.9907743685335292  0.11828895091034264  0.18417232007038242  1.0000
  H   H10       1.0  0.9888013179662533  0.7011567695849666  0.18353257364689735  1.0000
  H   H11       1.0  0.9886007157410761  0.8842988335130496  0.5864917121732627  1.0000
  H   H12       1.0  0.9878769199626972  0.5505933985248931  0.6809284400086544  1.0000
  H   H13       1.0  0.07928280866132664  0.7658095146028483  0.9823936830495469  1.0000
  H   H14       1.0  0.07885680390555838  0.7829527287432968  0.7163127200191616  1.0000
  H   H15       1.0  0.9915425269877146  0.9476848235865561  0.5841296597412877  1.0000
  H   H16       1.0  0.9034434095508048  0.09547567292658132  0.7196648642952925  1.0000
  H   H17       1.0  0.9014573297227048  0.0789424412399624  0.9857850556349073  1.0000
  C   C26       1.0  0.9905080042942846  0.3929765297039434  0.9711252083699412  1.0000
  C   C27       1.0  0.0576186356922983  0.4470175418738341  0.03865090431324259  1.0000
  C   C28       1.0  0.1200837177588402  0.510813421431332  0.9578603599888091  1.0000
  C   C29       1.0  0.11566155621779473  0.5208910144298577  0.806483407915755  1.0000
  C   C30       1.0  0.05027213315526313  0.46604263791994005  0.7375895033740011  1.0000
  C   C31       1.0  0.9878248801387313  0.3998886417336887  0.8177141593195763  1.0000
  O   O1        1.0  0.18495640984360762  0.5632825669020176  0.03205382039395199  1.0000
  C   C32       1.0  0.25244195711534817  0.6308138727094263  0.9639183723240161  1.0000
  H   H18       1.0  0.7956027217336653  0.31557797237901464  0.08515462842325983  1.0000
  H   H19       1.0  0.16287066804899397  0.5699117673666596  0.7408196970013115  1.0000
  H   H20       1.0  0.0496124081578393  0.47274444017467054  0.6205157677946507  1.0000
  H   H21       1.0  0.8578477449221219  0.34261564136611566  0.5442824928661794  1.0000
  H   H22       1.0  0.23046643791786825  0.718971432898724  0.8998240847242417  1.0000
  H   H23       1.0  0.28659198843417233  0.5659395711068584  0.8930089627857916  1.0000
  H   H24       1.0  0.29439014776558103  0.6613477136505288  0.04810813534454694  1.0000
  Zn  Zn1       1.0  0.899387779478675  0.39752685334554116  0.39579474134596326  1.0000
  Zn  Zn2       1.0  0.07893728019606683  0.3953378308562927  0.39304410664157663  1.0000
  C   C33       1.0  0.9883291575360742  0.39340809601804333  0.6576928296538844  1.0000
  C   C34       1.0  0.9899978627061311  0.3994582041781465  0.13114612912263368  1.0000
  C   C35       1.0  0.9892297832583399  0.6335957907746554  0.38858105230636597  1.0000
  C   C36       1.0  0.9890971751480095  0.15926895037559752  0.40025798488143116  1.0000
  O   O2        1.0  0.0579647531424332  0.4007971245469384  0.18380676266097096  1.0000
  O   O3        1.0  0.05663618476289911  0.3904067750460832  0.6029441134664599  1.0000
  O   O4        1.0  0.05736252813914299  0.5843613995861263  0.3856344627810868  1.0000
  O   O5        1.0  0.05723834884257761  0.2068425091623454  0.401116306201748  1.0000
  O   O6        1.0  0.921086649560756  0.5860221757878465  0.38772254271686535  1.0000
  O   O7        1.0  0.9203603067489597  0.39206911104209863  0.6050321159220338  1.0000
  O   O8        1.0  0.9216888806661592  0.40245940113302564  0.1858930320813894  1.0000
  O   O9        1.0  0.9209624760185066  0.20850477734134087  0.40320268369783707  1.0000
