data_image0
_chemical_formula_structural       NC8NH4C7NH5C6ClH4Zn2C4O8
_chemical_formula_sum              "N3 C25 H13 Cl1 Zn2 O8"
_cell_length_a       11.048855714531884
_cell_length_b       9.275154477615127
_cell_length_c       9.276548810779733
_cell_angle_alpha    86.30571482512589
_cell_angle_beta     89.72476913812324
_cell_angle_gamma    89.43371274831733

_space_group_name_H-M_alt    "P 1"
_space_group_IT_number       1

loop_
  _space_group_symop_operation_xyz
  'x, y, z'

loop_
  _atom_site_type_symbol
  _atom_site_label
  _atom_site_symmetry_multiplicity
  _atom_site_fract_x
  _atom_site_fract_y
  _atom_site_fract_z
  _atom_site_occupancy
  N   N1        1.0  0.1330945119271301  0.5634354976509159  0.41675131153888456  1.0000
  C   C1        1.0  0.07941392503253564  0.5047219964600496  0.3315568822416095  1.0000
  C   C2        1.0  0.012437115566452443  0.43146428343609133  0.22525828170487608  1.0000
  C   C3        1.0  0.8847203613458253  0.4314640938229845  0.22525838264468145  1.0000
  C   C4        1.0  0.8229746254462204  0.3590455777177086  0.12017776526396287  1.0000
  C   C5        1.0  0.887416813989085  0.28719989180217476  0.015928255204803902  1.0000
  C   C6        1.0  0.01382302723085083  0.28719978190366047  0.01592827742609781  1.0000
  C   C7        1.0  0.0762321635585275  0.35904567588358627  0.12017773794555865  1.0000
  C   C8        1.0  0.8156705033854637  0.5047220712603993  0.3315568694097436  1.0000
  N   N2        1.0  0.7603283975932825  0.5634355405776548  0.4167513404916081  1.0000
  H   H1        1.0  0.7249252182830076  0.3581387238682956  0.11886126164112133  1.0000
  H   H2        1.0  0.8393074212852454  0.2314747057754851  0.9350705237478043  1.0000
  H   H3        1.0  0.06350946160534066  0.23147481517370225  0.9350705235730282  1.0000
  H   H4        1.0  0.17430722932286824  0.35813867734098825  0.11886153649137567  1.0000
  C   C9        1.0  0.45022642910205707  0.1400309843575489  0.41508381332123423  1.0000
  C   C10       1.0  0.4175270638300792  0.22205028439378682  0.28803042759664665  1.0000
  C   C11       1.0  0.3749555956691498  0.15491351005124038  0.16770724865766384  1.0000
  C   C12       1.0  0.36438021741958904  0.004841485113578735  0.17302038909992312  1.0000
  C   C13       1.0  0.39821321550515054  0.9215880737094477  0.2971776941542421  1.0000
  C   C14       1.0  0.4432081433148956  0.986829059198662  0.41843129432700055  1.0000
  C   C15       1.0  0.3406523270945738  0.24050064394925386  0.039122538270873745  1.0000
  N   N3        1.0  0.3130820255053977  0.3092970942197464  0.935773367797296  1.0000
  H   H5        1.0  0.4722409621884327  0.219930863709562  0.768798485941766  1.0000
  H   H6        1.0  0.42248738801166735  0.3389706553338685  0.28375478273458443  1.0000
  H   H7        1.0  0.33101647390891475  0.9518707588892023  0.08054446916281588  1.0000
  H   H8        1.0  0.3918583622753849  0.8051193199216135  0.29705087749928316  1.0000
  H   H9        1.0  0.4631719034761608  0.6902222163731752  0.6554301864951102  1.0000
  C   C16       1.0  0.44845522757638406  0.5595672357072958  0.9935929087308049  1.0000
  C   C17       1.0  0.5495259870943725  0.6143759776709874  0.06291604590301494  1.0000
  C   C18       1.0  0.6437195390843894  0.6799310000245933  0.98294271948617  1.0000
  C   C19       1.0  0.6382541047569638  0.6917807037757258  0.8325500357818336  1.0000
  C   C20       1.0  0.539828865668007  0.6359605873308253  0.7615737943600986  1.0000
  C   C21       1.0  0.4449793081693483  0.56729272598056  0.8399221851461274  1.0000
  Cl  Cl1       1.0  0.7680931388546102  0.7493560485826944  0.07172163071080906  1.0000
  H   H10       1.0  0.30294564095492293  0.3981844787126072  0.28595709045123746  1.0000
  H   H11       1.0  0.710902851279035  0.7430723700297055  0.7702635414840127  1.0000
  H   H12       1.0  0.5393227686445052  0.64348388055316  0.6445552431708086  1.0000
  H   H13       1.0  0.25100154360455007  0.514431732887727  0.5631171182825752  1.0000
  Zn  Zn1       1.0  0.3141006745933723  0.5634317179157973  0.4167596231747873  1.0000
  Zn  Zn2       1.0  0.5793223116332  0.5634276020752329  0.4167547753624401  1.0000
  C   C22       1.0  0.4456812601073073  0.56008855237512  0.6799250990188597  1.0000
  C   C23       1.0  0.44774460667254523  0.5667725880952987  0.153589448092951  1.0000
  C   C24       1.0  0.44455209780565186  0.8267137604050281  0.41205617462056965  1.0000
  C   C25       1.0  0.4488736925142949  0.300145648484174  0.42145844247184794  1.0000
  O   O1        1.0  0.548156396981756  0.5691829180015517  0.20728388370416684  1.0000
  O   O2        1.0  0.5465665662190284  0.5576740071440119  0.6262265649131853  1.0000
  O   O3        1.0  0.5456533904131557  0.7729772482628032  0.40992051919568573  1.0000
  O   O4        1.0  0.5490694826437137  0.3538796862121043  0.4235898214177549  1.0000
  O   O5        1.0  0.3443534130757491  0.7729796337818307  0.4099245771135527  1.0000
  O   O6        1.0  0.34526657483441725  0.5576781242471602  0.6262305528445262  1.0000
  O   O7        1.0  0.3468564132095587  0.5691869690455118  0.20728613891620462  1.0000
  O   O8        1.0  0.3477694985083213  0.35388372792962586  0.42359218462778536  1.0000
