data_image0
_chemical_formula_structural       NC6NC2H4C6ClH5C6IH3Zn2C4O8
_chemical_formula_sum              "N2 C24 H12 Cl1 I1 Zn2 O8"
_cell_length_a       14.927258858638513
_cell_length_b       9.276545438789551
_cell_length_c       9.275433903346869
_cell_angle_alpha    86.20108945286073
_cell_angle_beta     89.9656234702017
_cell_angle_gamma    89.40960950127158

_space_group_name_H-M_alt    "P 1"
_space_group_IT_number       1

loop_
  _space_group_symop_operation_xyz
  'x, y, z'

loop_
  _atom_site_type_symbol
  _atom_site_label
  _atom_site_symmetry_multiplicity
  _atom_site_fract_x
  _atom_site_fract_y
  _atom_site_fract_z
  _atom_site_occupancy
  N   N1        1.0  0.834163903619251  0.56116343079441  0.4114584402159185  1.0000
  C   C1        1.0  0.7566374126294628  0.5611634024003989  0.41145845078369314  1.0000
  C   C2        1.0  0.6602049043701799  0.5611635169560516  0.4114584010109503  1.0000
  C   C3        1.0  0.6133600567797901  0.5361284396977886  0.28480875575973985  1.0000
  C   C4        1.0  0.5196487453309251  0.5361284639120196  0.28480862236951876  1.0000
  C   C5        1.0  0.4723888415071208  0.56116333962332  0.41145841952853335  1.0000
  C   C6        1.0  0.3759562662562853  0.5611634541818733  0.4114583697498704  1.0000
  N   N2        1.0  0.29842977526649717  0.5611634257878624  0.41145838031764487  1.0000
  C   C7        1.0  0.5192336221059578  0.586198416884484  0.5381080647738234  1.0000
  C   C8        1.0  0.6129449335548233  0.586198392670253  0.538108198164045  1.0000
  H   H1        1.0  0.649217721370149  0.5166497367286483  0.18626806299586485  1.0000
  H   H2        1.0  0.4841140645963954  0.516649934192364  0.18626805817864645  1.0000
  H   H3        1.0  0.4833760245218618  0.6056771106863074  0.6366488655739617  1.0000
  H   H4        1.0  0.6484796136154538  0.6056770208779663  0.6366488723974544  1.0000
  C   C9        1.0  0.06900493400299434  0.13772574966459494  0.4112208807284959  1.0000
  C   C10       1.0  0.06939407106067245  0.21996266225315675  0.27821866025933106  1.0000
  C   C11       1.0  0.06163188188321225  0.15349950330387618  0.14811125738940323  1.0000
  C   C12       1.0  0.05329634243633219  0.003917860291010156  0.14900440452582764  1.0000
  C   C13       1.0  0.05429024459376722  0.9201165681246057  0.2795653674613845  1.0000
  C   C14       1.0  0.0635974202886922  0.9845901629548696  0.41170842959110754  1.0000
  Cl  Cl1       1.0  0.06099967734181312  0.2583712654073759  0.9836024918806765  1.0000
  H   H5        1.0  0.11473659153936372  0.40309426318720315  0.6377713057591701  1.0000
  H   H6        1.0  0.07359279867391377  0.336652884891508  0.27536571111874  1.0000
  H   H7        1.0  0.04689926830230087  0.9521256961476183  0.048345548782550166  1.0000
  H   H8        1.0  0.04991158014105701  0.8038279213984438  0.27691563812508035  1.0000
  H   H9        1.0  0.03347907211328227  0.6883327953970149  0.6447186001236793  1.0000
  C   C15       1.0  0.06648714350671606  0.5566573892809661  0.9883097299664896  1.0000
  C   C16       1.0  0.1490261073844284  0.5539579118007268  0.061763031586589134  1.0000
  C   C17       1.0  0.2296624332285876  0.5645458502686549  0.9856503763147938  1.0000
  C   C18       1.0  0.22905037249917148  0.5781699102727196  0.8351125760486102  1.0000
  C   C19       1.0  0.14804317574367754  0.5786898266306715  0.760137498044144  1.0000
  C   C20       1.0  0.06611518012132511  0.5656584375196771  0.8346195353006762  1.0000
  I   I1        1.0  0.35238304445445623  0.5626316560713576  0.09843365323769726  1.0000
  H   H10       1.0  0.8523923788993503  0.642083148054162  0.08584854486537298  1.0000
  H   H11       1.0  0.2914736902515203  0.5869844077463082  0.7759067114084441  1.0000
  H   H12       1.0  0.921565487236928  0.6171086340311775  0.5501736456276487  1.0000
  Zn  Zn1       1.0  0.9681410344739017  0.5611596541123813  0.4114667470379696  1.0000
  Zn  Zn2       1.0  0.16445272551658652  0.561155517198024  0.411461887233471  1.0000
  C   C21       1.0  0.06622017669420327  0.5582126959438283  0.6746455789641617  1.0000
  C   C22       1.0  0.0663757153343143  0.5641042962013838  0.14828319773436882  1.0000
  C   C23       1.0  0.06461745062278659  0.824453656679111  0.40587405452948144  1.0000
  C   C24       1.0  0.06797838544663294  0.29786160386500793  0.4170547979983621  1.0000
  O   O1        1.0  0.14083762285405277  0.5665956855252926  0.20196990700092177  1.0000
  O   O2        1.0  0.14075430746081175  0.5557170745901614  0.6209547657844359  1.0000
  O   O3        1.0  0.13945908094467416  0.7707100334174541  0.4039198590883142  1.0000
  O   O4        1.0  0.1421327823639285  0.35160273586531665  0.41900470566077974  1.0000
  O   O5        1.0  0.9904609106350072  0.7707124354479897  0.40392392860474025  1.0000
  O   O6        1.0  0.991756126118691  0.5557212082246901  0.620958759465629  1.0000
  O   O7        1.0  0.991839442653793  0.5665997504855296  0.20197216817223484  1.0000
  O   O8        1.0  0.9931346021783783  0.3516067916611372  0.41900707486243666  1.0000
