data_image0
_chemical_formula_structural       NC6NC2H4C7NH5C7ONH5Zn2C4O8
_chemical_formula_sum              "N4 C26 H14 O9 Zn2"
_cell_length_a       14.927258858638513
_cell_length_b       9.275154477615127
_cell_length_c       9.273042158839658
_cell_angle_alpha    86.38948304707893
_cell_angle_beta     90.09323234568471
_cell_angle_gamma    89.43371000992973

_space_group_name_H-M_alt    "P 1"
_space_group_IT_number       1

loop_
  _space_group_symop_operation_xyz
  'x, y, z'

loop_
  _atom_site_type_symbol
  _atom_site_label
  _atom_site_symmetry_multiplicity
  _atom_site_fract_x
  _atom_site_fract_y
  _atom_site_fract_z
  _atom_site_occupancy
  N   N1        1.0  0.8323799901480758  0.5612155409612736  0.4163100776646784  1.0000
  C   C1        1.0  0.7548534991653616  0.5612155125682252  0.41631008813934534  1.0000
  C   C2        1.0  0.6584209908676557  0.5612156271207376  0.41631003874035016  1.0000
  C   C3        1.0  0.6113941240806295  0.536195575012125  0.28954218284310523  1.0000
  C   C4        1.0  0.517682812453521  0.5361955992385027  0.2895420494992469  1.0000
  C   C5        1.0  0.4706049279830351  0.5612154497989695  0.41631005666382226  1.0000
  C   C6        1.0  0.3741723526937697  0.5612155643543836  0.416310007258915  1.0000
  N   N2        1.0  0.29664586171105584  0.5612155359613351  0.4163100177335819  1.0000
  C   C7        1.0  0.5176317277785014  0.5862355019104837  0.543077912555155  1.0000
  C   C8        1.0  0.61134303940561  0.5862354776841059  0.5430780458990137  1.0000
  H   H1        1.0  0.6471101672958208  0.5167285624700027  0.1909095154931546  1.0000
  H   H2        1.0  0.4820065105679565  0.516728759919863  0.19090951134168854  1.0000
  H   H3        1.0  0.48191575171671674  0.6057025052746914  0.6417106879391001  1.0000
  H   H4        1.0  0.6470193407958521  0.6057024154721686  0.6417106944610329  1.0000
  C   C9        1.0  0.06710798463147222  0.13780867353577886  0.41464208387285084  1.0000
  C   C10       1.0  0.04239790949918734  0.21964983158119478  0.28755330185288397  1.0000
  C   C11       1.0  0.010407541861711776  0.15234435228331233  0.16719660274642845  1.0000
  C   C12       1.0  0.00260104813589135  0.002279777524717417  0.17251122456365975  1.0000
  C   C13       1.0  0.02813866637182815  0.9192004474112775  0.29670311889947487  1.0000
  C   C14       1.0  0.06192654027115354  0.9846114422917396  0.41799049823603157  1.0000
  C   C15       1.0  0.9845041832436295  0.23775119717634574  0.03857606956475634  1.0000
  N   N3        1.0  0.9636850654680826  0.30640274126740996  0.9351981067399469  1.0000
  H   H5        1.0  0.08481324513478677  0.21820450095673286  0.768455305977436  1.0000
  H   H6        1.0  0.046052390874104406  0.33656420731706205  0.2832764652303272  1.0000
  H   H7        1.0  0.9775371020578588  0.9491793909793654  0.08000954233560265  1.0000
  H   H8        1.0  0.023434426555596806  0.8027315161344429  0.29657626753172606  1.0000
  H   H9        1.0  0.0776484195124772  0.6883368985150655  0.6550554208524796  1.0000
  C   C16       1.0  0.06411615072168811  0.5567539456138237  0.9930337440738607  1.0000
  C   C17       1.0  0.9817792483134286  0.5659354076219703  0.06575086418888554  1.0000
  C   C18       1.0  0.9009747366458168  0.5890633033345143  0.9895861611037531  1.0000
  C   C19       1.0  0.9030144392731808  0.6012682018268938  0.8381357202716289  1.0000
  C   C20       1.0  0.983897742025998  0.5899698288570638  0.764400799106093  1.0000
  C   C21       1.0  0.06491839670144534  0.5656661085645971  0.8395988225424613  1.0000
  C   C22       1.0  0.815308905513705  0.5990169321470327  0.06948554774677884  1.0000
  O   O1        1.0  0.8096654506135621  0.5432207356488927  0.19663554472609768  1.0000
  N   N4        1.0  0.7386604176749043  0.6721650764317981  0.006238330203447222  1.0000
  H   H10       1.0  0.28112749955379623  0.6118278229423297  0.09321154822453881  1.0000
  H   H11       1.0  0.842007658649521  0.6155240933806447  0.7755689629982927  1.0000
  H   H12       1.0  0.21123216040311696  0.5960712985946544  0.5567972507267966  1.0000
  H   H13       1.0  0.7425936865886282  0.7344274256340118  0.9088186949419432  1.0000
  H   H14       1.0  0.6781121126088063  0.67200279199804  0.06248015577455845  1.0000
  Zn  Zn1       1.0  0.9663571314988765  0.5612117636877649  0.4163183739356686  1.0000
  Zn  Zn2       1.0  0.16266881471168293  0.561207627580905  0.4163134988657655  1.0000
  C   C23       1.0  0.06479987941390092  0.5582375801268407  0.6795571598331684  1.0000
  C   C24       1.0  0.06422819951654257  0.5641836318293894  0.15307486158396388  1.0000
  C   C25       1.0  0.06289588548315898  0.8244872047691769  0.411613602168736  1.0000
  C   C26       1.0  0.06613213713227496  0.2979322757039622  0.4210184892485085  1.0000
  O   O2        1.0  0.13876510329715508  0.5666692424916664  0.20678424767782655  1.0000
  O   O3        1.0  0.1392590071110261  0.5557477381704086  0.6258436544402175  1.0000
  O   O4        1.0  0.13772050506727282  0.7707476930548341  0.40947734183405704  1.0000
  O   O5        1.0  0.14030353818750263  0.35166929678515557  0.4231504522499924  1.0000
  O   O6        1.0  0.9887223410314969  0.7707500944864151  0.4094814205455295  1.0000
  O   O7        1.0  0.9902608323987  0.5557518710879821  0.6258476631456662  1.0000
  O   O8        1.0  0.9897669273096266  0.5666733069205774  0.20678652318120228  1.0000
  O   O9        1.0  0.9913053623618204  0.35167335203905314  0.42315283578145135  1.0000
