data_image0
_chemical_formula_structural       NC9NC5H8C6OCH8C6NCOH6Zn2C4O8
_chemical_formula_sum              "N3 C32 H22 O10 Zn2"
_cell_length_a       17.807436237873137
_cell_length_b       9.273888216677435
_cell_length_c       10.29962270195845
_cell_angle_alpha    85.77969719785527
_cell_angle_beta     89.41121966804023
_cell_angle_gamma    87.81887448081709

_space_group_name_H-M_alt    "P 1"
_space_group_IT_number       1

loop_
  _space_group_symop_operation_xyz
  'x, y, z'

loop_
  _atom_site_type_symbol
  _atom_site_label
  _atom_site_symmetry_multiplicity
  _atom_site_fract_x
  _atom_site_fract_y
  _atom_site_fract_z
  _atom_site_occupancy
  N   N1        1.0  0.6991159503031635  0.5408416767643411  0.5621440708440892  1.0000
  C   C1        1.0  0.6387299586856028  0.501753348885126  0.5509945259554423  1.0000
  C   C2        1.0  0.5636164220482741  0.453131773629229  0.5371257029135521  1.0000
  C   C3        1.0  0.5459187287688247  0.3737757125336403  0.4318705560797713  1.0000
  C   C4        1.0  0.4729879838402588  0.32644404418007134  0.4183217998213653  1.0000
  C   C5        1.0  0.4167083917488725  0.3580491116759179  0.5099943882160696  1.0000
  C   C6        1.0  0.33920116055661664  0.30787540252555257  0.49567805197599046  1.0000
  C   C7        1.0  0.2765566354867374  0.3986892917872984  0.5219088232843259  1.0000
  C   C8        1.0  0.2034847628331446  0.35113211833279934  0.5083730208224626  1.0000
  C   C9        1.0  0.1397746455019417  0.44493536072403095  0.5349773185206692  1.0000
  N   N2        1.0  0.0885647331253601  0.5203466783083347  0.5563664264897403  1.0000
  C   C10       1.0  0.19247535815818081  0.21247451407553064  0.4685801745335974  1.0000
  C   C11       1.0  0.2542625919913344  0.12164523642318592  0.44234096420436053  1.0000
  C   C12       1.0  0.3272172776594661  0.16876413063757068  0.45567282229435113  1.0000
  C   C13       1.0  0.43509467008551517  0.43795433168052544  0.6154705275180508  1.0000
  C   C14       1.0  0.5080793590178444  0.4850744784470762  0.6288629563768346  1.0000
  H   H1        1.0  0.5884304637871632  0.348776645395102  0.3600795978728315  1.0000
  H   H2        1.0  0.46037065227480223  0.2667911651774779  0.3352118140932858  1.0000
  H   H3        1.0  0.2844955933796815  0.506951521286388  0.5511338512253983  1.0000
  H   H4        1.0  0.1362052771114393  0.17466770810184698  0.4578637855352799  1.0000
  H   H5        1.0  0.2456203229636973  0.014293450756272637  0.4119184992798943  1.0000
  H   H6        1.0  0.3742349325173508  0.09573589116829727  0.4363896719002427  1.0000
  H   H7        1.0  0.393303173343441  0.46235514423319213  0.6885540129301523  1.0000
  H   H8        1.0  0.521217786151085  0.546082668184072  0.7109357182523643  1.0000
  C   C15       1.0  0.8960501355666894  0.10701529802995634  0.5578956935397058  1.0000
  C   C16       1.0  0.8784806419610236  0.1911599226882423  0.4421627472899328  1.0000
  C   C17       1.0  0.8545191469020272  0.1276553875673723  0.3316194881965189  1.0000
  C   C18       1.0  0.8479880937385981  0.9770199279611155  0.336394197640417  1.0000
  C   C19       1.0  0.8663434875590944  0.8916379199411896  0.4496174755337907  1.0000
  C   C20       1.0  0.8916377680002009  0.9541616179672868  0.5606259390769528  1.0000
  O   O1        1.0  0.837405809826767  0.21794451553524882  0.21969770603718766  1.0000
  C   C21       1.0  0.8123032111451784  0.1682968844533841  0.10056089571201876  1.0000
  H   H9        1.0  0.9022297817053464  0.18349248417855035  0.8773808061049392  1.0000
  H   H10       1.0  0.8816537429540537  0.30786708680937924  0.4382664429237271  1.0000
  H   H11       1.0  0.8294243894649319  0.924528938634073  0.25268070515851426  1.0000
  H   H12       1.0  0.862438522099932  0.7753748430761027  0.4492429836210776  1.0000
  H   H13       1.0  0.898948554796509  0.654925254236668  0.77486496083301  1.0000
  H   H14       1.0  0.7583810530379451  0.11301606907061455  0.11632748424210916  1.0000
  H   H15       1.0  0.855438726890986  0.09340419384474208  0.060981080236331975  1.0000
  H   H16       1.0  0.8031505988395422  0.2624374891891901  0.028899258109221566  1.0000
  C   C22       1.0  0.8937731844599562  0.5304516071284726  0.17790463694677938  1.0000
  C   C23       1.0  0.8149745558335568  0.5457228464957256  0.17701510498737294  1.0000
  C   C24       1.0  0.7754017453169709  0.5557710684674115  0.05960998219184632  1.0000
  C   C25       1.0  0.8151391048857286  0.5460232643074414  0.9418414438185697  1.0000
  C   C26       1.0  0.8939147346501295  0.5307253047572225  0.9406169474801099  1.0000
  C   C27       1.0  0.9328018397720065  0.5236040890403657  0.059160655069657064  1.0000
  N   N3        1.0  0.694681259518646  0.569163680883993  0.06271890620753773  1.0000
  C   C28       1.0  0.65018534519341  0.6502125484750347  0.9655531447311256  1.0000
  O   O2        1.0  0.6800225396968119  0.731997994642394  0.8782628252361193  1.0000
  H   H17       1.0  0.7839268820101887  0.5511091187673662  0.26764317596428144  1.0000
  H   H18       1.0  0.7846408650785222  0.5473560455424328  0.8514408122304418  1.0000
  H   H19       1.0  0.9935477552912293  0.511850258537869  0.05896902302902163  1.0000
  H   H20       1.0  0.9240885222046229  0.5226696165898648  0.61284622728243  1.0000
  H   H21       1.0  0.6663807237056166  0.5258168061631647  0.14509499377752588  1.0000
  H   H22       1.0  0.5896290457954189  0.6444056098321345  0.9693180531297765  1.0000
  Zn  Zn1       1.0  0.8115024767163942  0.5349234167986123  0.5604842656246531  1.0000
  Zn  Zn2       1.0  0.9761782517369486  0.526253184256892  0.5580368700705323  1.0000
  C   C29       1.0  0.8939162314328697  0.5249273622018815  0.7964295297288619  1.0000
  C   C30       1.0  0.8937662858191209  0.5362509642021662  0.3220917125685947  1.0000
  C   C31       1.0  0.8924669844070277  0.7940312775322929  0.5549349195391917  1.0000
  C   C32       1.0  0.8952154856917703  0.2671453188587759  0.5635863872444875  1.0000
  O   O3        1.0  0.9562576017536167  0.5349006805257324  0.3695534181734539  1.0000
  O   O4        1.0  0.9564100239991911  0.5196960517026481  0.747109930186765  1.0000
  O   O5        1.0  0.9552388965046028  0.7370009114549603  0.5521013411983691  1.0000
  O   O6        1.0  0.9574286729837035  0.3175958340155023  0.5645619106588196  1.0000
  O   O7        1.0  0.8302519992738697  0.7435807700002943  0.5539592258647161  1.0000
  O   O8        1.0  0.8314231177258813  0.5262776432212535  0.7489677511952393  1.0000
  O   O9        1.0  0.8312706955023208  0.5414822212165296  0.37140967767065236  1.0000
  O   O10       1.0  0.8324417668011397  0.3241773644245103  0.5664182674873988  1.0000
