data_image0
_chemical_formula_structural       NC9NC3NH7C12H9C8H6Zn2C4O8
_chemical_formula_sum              "N3 C36 H22 Zn2 O8"
_cell_length_a       16.053384444249904
_cell_length_b       10.299137764757564
_cell_length_c       9.275144076552241
_cell_angle_alpha    85.93860642642608
_cell_angle_beta     90.26395466223778
_cell_angle_gamma    89.19348198390439

_space_group_name_H-M_alt    "P 1"
_space_group_IT_number       1

loop_
  _space_group_symop_operation_xyz
  'x, y, z'

loop_
  _atom_site_type_symbol
  _atom_site_label
  _atom_site_symmetry_multiplicity
  _atom_site_fract_x
  _atom_site_fract_y
  _atom_site_fract_z
  _atom_site_occupancy
  N   N1        1.0  0.7773567504855605  0.3942050586648144  0.4062620289399046  1.0000
  C   C1        1.0  0.7262159788858027  0.3728778702680052  0.3232001194106233  1.0000
  C   C2        1.0  0.6626621649898015  0.34637874444617095  0.22001698149917012  1.0000
  C   C3        1.0  0.6756106855311403  0.33340305993345964  0.07492686341410004  1.0000
  C   C4        1.0  0.5987150276266379  0.3077155921579431  0.016942881525320752  1.0000
  C   C5        1.0  0.5421373315627203  0.30644858788107165  0.12978447218127798  1.0000
  C   C6        1.0  0.45142781190903114  0.2825552347193172  0.11842140244804411  1.0000
  C   C7        1.0  0.3960191866229047  0.3259153752578041  0.22262770174655566  1.0000
  C   C8        1.0  0.3104160183949073  0.3032540960736032  0.2117439398169898  1.0000
  C   C9        1.0  0.2542397677783315  0.34837549239818233  0.3185820246990221  1.0000
  N   N2        1.0  0.2090906471169651  0.38464672188653987  0.40446311340001806  1.0000
  C   C10       1.0  0.2794954925504987  0.23712077856218225  0.09666913897752316  1.0000
  C   C11       1.0  0.3338966690860968  0.19388171294474232  0.9926977143043895  1.0000
  C   C12       1.0  0.4192918166022676  0.21637453321263633  0.0031413918925786736  1.0000
  N   N3        1.0  0.58189914881609  0.33018788286445067  0.2535852559120253  1.0000
  H   H1        1.0  0.7340838638837831  0.3416845183171908  0.017637178055111006  1.0000
  H   H2        1.0  0.585936234397985  0.29324694366391557  0.90465831684216  1.0000
  H   H3        1.0  0.41875432784591504  0.3789253448112408  0.31117168723099997  1.0000
  H   H4        1.0  0.2134265805552336  0.21909497214885199  0.08731732428284045  1.0000
  H   H5        1.0  0.3098703356647918  0.14251201330724905  0.903893540018278  1.0000
  H   H6        1.0  0.4600304985087997  0.1804251707318551  0.9218609183370821  1.0000
  H   H7        1.0  0.5562083823962177  0.3331922919819805  0.3565336024162332  1.0000
  C   C13       1.0  0.9931482235167496  0.008028666720093725  0.4055200102286251  1.0000
  C   C14       1.0  0.9924074956843769  0.016944778582646643  0.2537475041870336  1.0000
  C   C15       1.0  0.9921135417917731  0.9043310868596273  0.17663701795871845  1.0000
  C   C16       1.0  0.9925702776626008  0.7816834949851064  0.2533504532044957  1.0000
  C   C17       1.0  0.9933071755245724  0.7708130559279941  0.4052175634413906  1.0000
  C   C18       1.0  0.993593008420813  0.8844973517407446  0.4803673785308115  1.0000
  C   C19       1.0  0.9913289383435971  0.9148083877058371  0.016076705599439745  1.0000
  C   C20       1.0  0.04121215760787079  0.8309022801478333  0.9383264669045523  1.0000
  C   C21       1.0  0.04037008034170797  0.8410171681974076  0.7871926856202782  1.0000
  C   C22       1.0  0.989845845940503  0.9346501042979644  0.7120997219882383  1.0000
  C   C23       1.0  0.9400583164030026  0.018428066779514713  0.7879881230031277  1.0000
  C   C24       1.0  0.9406909320576418  0.00881271902089399  0.9391237510668472  1.0000
  H   H8        1.0  0.9932102402084865  0.11168555387746147  0.19514086118343021  1.0000
  H   H9        1.0  0.991198888990542  0.6945751260428743  0.19447930578522699  1.0000
  H   H10       1.0  0.9941620681848023  0.8769046710524928  0.5974330046302105  1.0000
  H   H11       1.0  0.9941683172471696  0.5430158338258471  0.6918609751045615  1.0000
  H   H12       1.0  0.08162530320969276  0.7586962034703567  0.9943423886915305  1.0000
  H   H13       1.0  0.0791007806296542  0.776381729257168  0.7282588431666497  1.0000
  H   H14       1.0  0.9892751579573462  0.9422864727732656  0.5951114912109307  1.0000
  H   H15       1.0  0.9007556623974294  0.09071690553428781  0.7296715863591564  1.0000
  H   H16       1.0  0.9008277327069601  0.07366629582755115  0.9957676918202901  1.0000
  C   C25       1.0  0.9912648838563539  0.38680657867255763  0.9820925079507297  1.0000
  C   C26       1.0  0.9369660846838549  0.4727112814243128  0.04825897167993843  1.0000
  C   C27       1.0  0.889353238699562  0.5649030404761022  0.9654861399861304  1.0000
  C   C28       1.0  0.8951780354595787  0.5730737213476267  0.8150281064269644  1.0000
  C   C29       1.0  0.9477473321336416  0.4871120634276431  0.7471130540982172  1.0000
  C   C30       1.0  0.9951905230506796  0.3920351803747512  0.8286450930321252  1.0000
  C   C31       1.0  0.8463559718994339  0.6688625324911631  0.7298889861966745  1.0000
  C   C32       1.0  0.8054822572343123  0.7490602393779882  0.6585914225675159  1.0000
  H   H17       1.0  0.16441382801453508  0.21247859341692507  0.10004252753314646  1.0000
  H   H18       1.0  0.9327985880269315  0.4706202400449746  0.16494732414247987  1.0000
  H   H19       1.0  0.8485515106712294  0.6307461937112824  0.019068847558875383  1.0000
  H   H20       1.0  0.9501367957565459  0.4924560332404804  0.6300163514440744  1.0000
  H   H21       1.0  0.10996495474550638  0.2705765908001698  0.5583997454397096  1.0000
  H   H22       1.0  0.7696036203636756  0.8194567223803627  0.5960054866549948  1.0000
  Zn  Zn1       1.0  0.9019458626603742  0.3914433167214173  0.40575121834831207  1.0000
  Zn  Zn2       1.0  0.08450156390640956  0.38739795540538274  0.40498570879964463  1.0000
  C   C33       1.0  0.9944455546514442  0.3858728134683373  0.6686305504761452  1.0000
  C   C34       1.0  0.9920038664154646  0.392970054098086  0.1421065091359803  1.0000
  C   C35       1.0  0.9932462125962205  0.6265951898480594  0.39953088212195875  1.0000
  C   C36       1.0  0.9932031462083616  0.1522461191551425  0.41120625521716025  1.0000
  O   O1        1.0  0.06153081175803799  0.3934977130566386  0.19551816504225217  1.0000
  O   O2        1.0  0.06347416037493625  0.38227383651635716  0.6146374759969085  1.0000
  O   O3        1.0  0.0625047495344846  0.576660229744941  0.3973375932568408  1.0000
  O   O4        1.0  0.06250015980536605  0.19911132983186985  0.41281793996500776  1.0000
  O   O5        1.0  0.9239472044640815  0.5797299436767811  0.3979189874365977  1.0000
  O   O6        1.0  0.9249166152695233  0.385345110393268  0.6152187927033206  1.0000
  O   O7        1.0  0.9229732586624247  0.3965689309696016  0.19609774878858954  1.0000
  O   O8        1.0  0.9239426072055401  0.2021825391228682  0.41339763178230626  1.0000
