data_image0
_chemical_formula_structural       NC12NC2H8C12OCH12C12IH9Zn2C4O8
_chemical_formula_sum              "N2 C43 H29 O9 I1 Zn2"
_cell_length_a       17.80743265337812
_cell_length_b       10.29979075500242
_cell_length_c       10.299773350644648
_cell_angle_alpha    85.5398229900983
_cell_angle_beta     91.54321816322954
_cell_angle_gamma    89.41792083348324

_space_group_name_H-M_alt    "P 1"
_space_group_IT_number       1

loop_
  _space_group_symop_operation_xyz
  'x, y, z'

loop_
  _atom_site_type_symbol
  _atom_site_label
  _atom_site_symmetry_multiplicity
  _atom_site_fract_x
  _atom_site_fract_y
  _atom_site_fract_z
  _atom_site_occupancy
  N   N1        1.0  0.7070311847563335  0.4070384418265786  0.6012442590622191  1.0000
  C   C1        1.0  0.656199179374165  0.4366146149729193  0.5325440935793258  1.0000
  C   C2        1.0  0.5929591511503501  0.47340522657764583  0.44708973578541567  1.0000
  C   C3        1.0  0.6046634407507359  0.5274579309171907  0.32046738557947796  1.0000
  C   C4        1.0  0.5433312754757239  0.5627443459683088  0.23740909399453497  1.0000
  C   C5        1.0  0.47014040403140644  0.5442416880211178  0.2803132382386282  1.0000
  C   C6        1.0  0.45745940960283676  0.4900700624788723  0.4074037347681352  1.0000
  C   C7        1.0  0.5196488887232846  0.4547869054973783  0.4904455145979573  1.0000
  C   C8        1.0  0.3797008188307259  0.4704525546110052  0.4531682234539749  1.0000
  C   C9        1.0  0.360923190458981  0.4976070158654375  0.5802093929018184  1.0000
  C   C10       1.0  0.2877023697794709  0.4791459210913627  0.6231540967114214  1.0000
  C   C11       1.0  0.2323163407698332  0.433275882551033  0.5398956092267395  1.0000
  C   C12       1.0  0.1569591599267215  0.4142616097453098  0.5842412656802787  1.0000
  N   N2        1.0  0.09637732303782762  0.3989754132268341  0.6198921227860641  1.0000
  C   C13       1.0  0.2504025629306326  0.4059523723222156  0.4133974158878049  1.0000
  C   C14       1.0  0.32357049914423514  0.42442831677081894  0.37019682654678626  1.0000
  H   H1        1.0  0.6611228486354982  0.5422903516282283  0.2860296810154952  1.0000
  H   H2        1.0  0.5525115520571822  0.604865979986835  0.1396280094208726  1.0000
  H   H3        1.0  0.42348886135365665  0.5738936907307786  0.21472098246023294  1.0000
  H   H4        1.0  0.5111672353077671  0.41127999223594913  0.5881022537470852  1.0000
  H   H5        1.0  0.40259967060539065  0.5347699013811045  0.6457791994924126  1.0000
  H   H6        1.0  0.2742652716346753  0.5009669405898238  0.721160454557227  1.0000
  H   H7        1.0  0.20800901543875236  0.3700566670564682  0.34824046920890606  1.0000
  H   H8        1.0  0.33647951527581205  0.4010716719266875  0.27249391086888464  1.0000
  C   C15       1.0  0.9017753672446006  0.021637698119981067  0.610610527916795  1.0000
  C   C16       1.0  0.8800408207714104  0.01088298303963598  0.7410078963876436  1.0000
  C   C17       1.0  0.8689681401025173  0.888298446289437  0.8070452277764564  1.0000
  C   C18       1.0  0.8799058440891157  0.7756035044510722  0.7409356464202135  1.0000
  C   C19       1.0  0.9016403571251296  0.7843660057301947  0.6105373438311348  1.0000
  C   C20       1.0  0.9124551665098874  0.9078265157723208  0.5461056818047276  1.0000
  C   C21       1.0  0.8459787982450016  0.8779745752392355  0.9449997979311717  1.0000
  C   C22       1.0  0.7911670377333975  0.7882301705553859  0.9874402283493973  1.0000
  C   C23       1.0  0.7695977196189805  0.7787859299530643  0.11714648689434924  1.0000
  C   C24       1.0  0.8023543092058479  0.8584271167757899  0.2060637277781705  1.0000
  C   C25       1.0  0.8573662485731188  0.9487759091370876  0.16550459470352918  1.0000
  C   C26       1.0  0.8787026168652845  0.957863941580851  0.03526047815931355  1.0000
  O   O1        1.0  0.8921003840453426  0.03073179047375185  0.2510368017410216  1.0000
  C   C27       1.0  0.8760066437983163  0.03200218279713219  0.3856023784881863  1.0000
  H   H9        1.0  0.9100900405415823  0.3531864963121878  0.5609463998427785  1.0000
  H   H10       1.0  0.8706768556010721  0.09808813680125561  0.7909882755214215  1.0000
  H   H11       1.0  0.8724213007544344  0.6808429910578948  0.7919451560400251  1.0000
  H   H12       1.0  0.9292230290164579  0.9153549156254908  0.4455096489868582  1.0000
  H   H13       1.0  0.9098848157543414  0.46025423357706313  0.5608322176328715  1.0000
  H   H14       1.0  0.7642898458966066  0.7265776085242827  0.9199432708555697  1.0000
  H   H15       1.0  0.7271712859103091  0.7096843996354506  0.14879333290616226  1.0000
  H   H16       1.0  0.7845599261188173  0.849015936208028  0.3058782635485792  1.0000
  H   H17       1.0  0.9217353576838511  0.026526252017185843  0.005155532166682852  1.0000
  H   H18       1.0  0.8889889541541037  0.935189100239427  0.43684685631275044  1.0000
  H   H19       1.0  0.9114621930706063  0.10589428153205185  0.42951493331138213  1.0000
  H   H20       1.0  0.8160346008480271  0.058150480657190196  0.3971655203625827  1.0000
  C   C28       1.0  0.9016720154102768  0.4031086861538395  0.22920303736854786  1.0000
  C   C29       1.0  0.9697616414241647  0.47070192460599675  0.22612095953549627  1.0000
  C   C30       1.0  0.004299330486366772  0.5048433719325602  0.10743095088977038  1.0000
  C   C31       1.0  0.9698339448236697  0.4704862713628828  0.9908548278747049  1.0000
  C   C32       1.0  0.9017436892811654  0.4028950508882392  0.9919449171792483  1.0000
  C   C33       1.0  0.8680442930657273  0.36958367822597005  0.11160544082280466  1.0000
  C   C34       1.0  0.07633217985836938  0.5763490644362286  0.10522437358453618  1.0000
  C   C35       1.0  0.08813191090398731  0.6791235158810487  0.18559114104577912  1.0000
  C   C36       1.0  0.15596856675286164  0.7463107246819272  0.18331437069663026  1.0000
  C   C37       1.0  0.2127594367257346  0.711775121954511  0.1010479499414112  1.0000
  C   C38       1.0  0.20168423244156375  0.6098718611836698  0.020858546985438993  1.0000
  C   C39       1.0  0.13392382978066708  0.54245710196525  0.022733047605647767  1.0000
  I   I1        1.0  0.3150325703588197  0.8132956527388642  0.09791904345402068  1.0000
  H   H21       1.0  0.8757049287187733  0.3774180502061197  0.5578248859347896  1.0000
  H   H22       1.0  0.9966217531584161  0.4953925909740886  0.31638209051931154  1.0000
  H   H23       1.0  0.9957019311146708  0.49813820054065455  0.8989785159754601  1.0000
  H   H24       1.0  0.8155158245299814  0.3174397167479599  0.11321474379781682  1.0000
  H   H25       1.0  0.8758098919456176  0.3771037358547434  0.6649101008036973  1.0000
  H   H26       1.0  0.04456394198418878  0.7086036017575448  0.24889264559108382  1.0000
  H   H27       1.0  0.16426896797380008  0.8254155557222446  0.24529085559103248  1.0000
  H   H28       1.0  0.2456207757696338  0.5826203646230039  0.9572833592257273  1.0000
  H   H29       1.0  0.1269290690376057  0.46278434715042227  0.9609800539091093  1.0000
  Zn  Zn1       1.0  0.819388074580917  0.40470815656432846  0.6066331170211487  1.0000
  Zn  Zn2       1.0  0.9840204335901619  0.40129510205603913  0.6145138589497237  1.0000
  C   C40       1.0  0.9017293775459769  0.397761782880764  0.8477707550946667  1.0000
  C   C41       1.0  0.9016809281272196  0.4082430770540899  0.373376434243656  1.0000
  C   C42       1.0  0.9016615050230953  0.6401956739480215  0.6053758301570469  1.0000
  C   C43       1.0  0.9017487447553256  0.16580762682849226  0.6157714258807417  1.0000
  O   O2        1.0  0.9641610425747635  0.4086653233997763  0.4247530443095404  1.0000
  O   O3        1.0  0.9642014143912887  0.3947481275175701  0.8023750720505592  1.0000
  O   O4        1.0  0.964145764376093  0.5905165776315671  0.606639414732979  1.0000
  O   O5        1.0  0.9642166364012927  0.21289688376792593  0.6204886015618862  1.0000
  O   O6        1.0  0.8391918155888405  0.5931063760185653  0.600658371712844  1.0000
  O   O7        1.0  0.8392474653178669  0.397339486229032  0.796393959634817  1.0000
  O   O8        1.0  0.8392070934126035  0.41125663729154666  0.4187703704916279  1.0000
  O   O9        1.0  0.839262687246854  0.21548818834367345  0.6145060251130667  1.0000
