data_image0
_chemical_formula_structural       NC8NC6H8C16H10C12IH9Zn2C4O8
_chemical_formula_sum              "N2 C46 H27 I1 Zn2 O8"
_cell_length_a       17.457602349358154
_cell_length_b       10.29914801576943
_cell_length_c       10.29977335064465
_cell_angle_alpha    85.52085607386434
_cell_angle_beta     92.88561579931032
_cell_angle_gamma    91.70309287404056

_space_group_name_H-M_alt    "P 1"
_space_group_IT_number       1

loop_
  _space_group_symop_operation_xyz
  'x, y, z'

loop_
  _atom_site_type_symbol
  _atom_site_label
  _atom_site_symmetry_multiplicity
  _atom_site_fract_x
  _atom_site_fract_y
  _atom_site_fract_z
  _atom_site_occupancy
  N   N1        1.0  0.7225013192275148  0.4533358707910966  0.625900227986671  1.0000
  C   C1        1.0  0.6614157918400241  0.4074096603001345  0.615303123472188  1.0000
  C   C2        1.0  0.5854228144701674  0.3502831666831127  0.6021298651791352  1.0000
  C   C3        1.0  0.5269071190316443  0.39042777237071774  0.6770118980578788  1.0000
  C   C4        1.0  0.45235258666399514  0.3354195528619781  0.664452220214313  1.0000
  C   C5        1.0  0.3902467401321905  0.377806278084442  0.7437551852017061  1.0000
  C   C6        1.0  0.3156973737402567  0.3962916571084701  0.6879836046341914  1.0000
  C   C7        1.0  0.2571816594729927  0.43625229179298086  0.7629736672263234  1.0000
  C   C8        1.0  0.18119401207056596  0.4553441874396156  0.7049863571805827  1.0000
  N   N2        1.0  0.12011285916723591  0.470687691255427  0.6583647135539465  1.0000
  C   C9        1.0  0.2727232324752575  0.45797056929035446  0.894243733800024  1.0000
  C   C10       1.0  0.3464879877270806  0.4398741031652958  0.9504027576656933  1.0000
  C   C11       1.0  0.404992166750584  0.40009341179073493  0.8758703474253196  1.0000
  C   C12       1.0  0.4376021611569053  0.2395896460238587  0.5755778520522552  1.0000
  C   C13       1.0  0.49610621671295346  0.19972363368925006  0.5010957127636949  1.0000
  C   C14       1.0  0.5698760522502228  0.2548440865393556  0.5142052999338558  1.0000
  H   H1        1.0  0.5392683162728652  0.46561013481744445  0.7436126013097832  1.0000
  H   H2        1.0  0.3033404455307213  0.3813482765997175  0.5859642367478474  1.0000
  H   H3        1.0  0.2278723249202259  0.48883973144091253  0.9530675509819884  1.0000
  H   H4        1.0  0.35833139217419024  0.4563753803679139  0.05204822637165452  1.0000
  H   H5        1.0  0.46148005554361643  0.3850875867109606  0.9219833595599977  1.0000
  H   H6        1.0  0.3811099927706637  0.19425316407003562  0.5649443899019939  1.0000
  H   H7        1.0  0.48425887423300323  0.12565815920712042  0.4332962214894325  1.0000
  H   H8        1.0  0.614726928187769  0.22310501091845025  0.4558929672298429  1.0000
  C   C15       1.0  0.9212561388506527  0.08060812018673814  0.6422938604294612  1.0000
  C   C16       1.0  0.9037257544180984  0.0894803007565761  0.5073886583312013  1.0000
  C   C17       1.0  0.8948938411295  0.9768514311706011  0.4388288555846127  1.0000
  C   C18       1.0  0.9038281317501836  0.8542330698110394  0.50699242734783  1.0000
  C   C19       1.0  0.9213653630149253  0.8434057215055834  0.6419829413048499  1.0000
  C   C20       1.0  0.9299727576972953  0.9571050090659594  0.7088025880721953  1.0000
  C   C21       1.0  0.8763489979477646  0.9872827421479765  0.296115436836147  1.0000
  C   C22       1.0  0.9126395250685907  0.9079058804651214  0.21386089257196472  1.0000
  C   C23       1.0  0.8951589546219029  0.9178474775955002  0.07954232942002172  1.0000
  C   C24       1.0  0.8412083216840763  0.007058929679467418  0.025659397962017445  1.0000
  C   C25       1.0  0.8047777763296021  0.08641036576985961  0.10661857010591569  1.0000
  C   C26       1.0  0.8222036473496668  0.07670764122988372  0.24095361367864254  1.0000
  C   C27       1.0  0.8232403696896949  0.017171347938578663  0.887368298592544  1.0000
  C   C28       1.0  0.8081924036411064  0.02564040225947984  0.7715514980751932  1.0000
  C   C29       1.0  0.7905714130837336  0.03555754964753577  0.635931207652793  1.0000
  C   C30       1.0  0.7755259724529971  0.04402533167519863  0.5201331210806696  1.0000
  H   H9        1.0  0.9279596205464407  0.404668373431732  0.6941950524096282  1.0000
  H   H10       1.0  0.8979330237070063  0.18429776235301176  0.4550056513492393  1.0000
  H   H11       1.0  0.8960551527328984  0.7670153876787519  0.4549423166942077  1.0000
  H   H12       1.0  0.9434921492411884  0.949545679564985  0.8128591057107157  1.0000
  H   H13       1.0  0.9539908668492544  0.6156423210094919  0.8969099060792589  1.0000
  H   H14       1.0  0.9552623937632521  0.8393509575480587  0.2531906601891561  1.0000
  H   H15       1.0  0.9238565524730208  0.8561953818145488  0.017710652956269175  1.0000
  H   H16       1.0  0.7627650105819277  0.15555665952985764  0.06596872511489549  1.0000
  H   H17       1.0  0.7926116045537015  0.13793112709541605  0.301909473162944  1.0000
  H   H18       1.0  0.7623148642623712  0.05146076218699914  0.41845264161264734  1.0000
  C   C31       1.0  0.9212741932240948  0.4621114185078135  0.2607661620829385  1.0000
  C   C32       1.0  0.9908316449110035  0.5341563116599319  0.2600792886716253  1.0000
  C   C33       1.0  0.026113825061279152  0.5705557954568931  0.1426042643825114  1.0000
  C   C34       1.0  0.9909054138431415  0.5339453561368053  0.024815788254938912  1.0000
  C   C35       1.0  0.9213473199130404  0.4619024400746303  0.023510650185250895  1.0000
  C   C36       1.0  0.8869215032225284  0.42638783775795225  0.14198567893596215  1.0000
  C   C37       1.0  0.09969950453650456  0.6467709477877357  0.14293160379110947  1.0000
  C   C38       1.0  0.11178311015349873  0.7503261810837479  0.22368563370325537  1.0000
  C   C39       1.0  0.18108208814157825  0.8219484897027738  0.22379521630987664  1.0000
  C   C40       1.0  0.23906775691063123  0.7911165284208702  0.14355431513597594  1.0000
  C   C41       1.0  0.22772434609800363  0.6884798704361031  0.06300309015345597  1.0000
  C   C42       1.0  0.1585031668518791  0.6166349657345402  0.06249401283712697  1.0000
  I   I1        1.0  0.3435456166574171  0.8993236082993952  0.1440230963151421  1.0000
  H   H19       1.0  0.8947473555668751  0.4347230805346629  0.5884745338500164  1.0000
  H   H20       1.0  0.018270147540311536  0.5606028722924673  0.35128588692980683  1.0000
  H   H21       1.0  0.017331682123829857  0.5632887191005523  0.9338488378400004  1.0000
  H   H22       1.0  0.8332606654155789  0.3708095999205592  0.14174717542422388  1.0000
  H   H23       1.0  0.8948544459103618  0.4344155857602781  0.6955635688915819  1.0000
  H   H24       1.0  0.06729950075266625  0.776965268473406  0.2854323183719114  1.0000
  H   H25       1.0  0.1895843843062968  0.9016032509810501  0.28604203681913054  1.0000
  H   H26       1.0  0.2725850788975621  0.6640936602257255  0.0009951186346133232  1.0000
  H   H27       1.0  0.1513340532223018  0.5364974517422789  0.0005171818138998117  1.0000
  Zn  Zn1       1.0  0.8372434210245149  0.4583397462815982  0.6352762772033336  1.0000
  Zn  Zn2       1.0  0.005370742614748006  0.4656731640578542  0.6489993012979047  1.0000
  C   C43       1.0  0.9213310410221083  0.4567677122610263  0.8793375485457577  1.0000
  C   C44       1.0  0.9212849588091698  0.4672469168936668  0.4049383066100092  1.0000
  C   C45       1.0  0.9213402785280601  0.6992219943283475  0.6368661509903151  1.0000
  C   C46       1.0  0.9212756637162975  0.22479107185968863  0.647409769358072  1.0000
  O   O1        1.0  0.9850920133670543  0.47174776463330376  0.4585316137776335  1.0000
  O   O2        1.0  0.9851287331736499  0.45783177922014096  0.8361593256868789  1.0000
  O   O3        1.0  0.9851353326050696  0.6536166403563194  0.6403618858801163  1.0000
  O   O4        1.0  0.9850853565571636  0.2759629103124783  0.6543289515223567  1.0000
  O   O5        1.0  0.8575287497084954  0.6480499975258543  0.6299466222890551  1.0000
  O   O6        1.0  0.8575221504903922  0.4522666968552133  0.8257439922133718  1.0000
  O   O7        1.0  0.8574854305786515  0.46618263743830296  0.44811471891250015  1.0000
  O   O8        1.0  0.8574787737736282  0.2703977738010048  0.6439121540294371  1.0000
