data_image0
_chemical_formula_structural       NC5NC4H6C7NH5C6ClH5Zn2C4O8
_chemical_formula_sum              "N3 C26 H16 Cl1 Zn2 O8"
_cell_length_a       13.854160002989762
_cell_length_b       9.275154477615127
_cell_length_c       10.302974078461048
_cell_angle_alpha    85.7869106659326
_cell_angle_beta     89.99987288003342
_cell_angle_gamma    89.43370676253429

_space_group_name_H-M_alt    "P 1"
_space_group_IT_number       1

loop_
  _space_group_symop_operation_xyz
  'x, y, z'

loop_
  _atom_site_type_symbol
  _atom_site_label
  _atom_site_symmetry_multiplicity
  _atom_site_fract_x
  _atom_site_fract_y
  _atom_site_fract_z
  _atom_site_occupancy
  N   N1        1.0  0.8984704816831224  0.5778878013956827  0.5736008262602224  1.0000
  C   C1        1.0  0.8259711118918025  0.6030923388692453  0.5205142902622806  1.0000
  C   C2        1.0  0.7357808731198071  0.6344474671132185  0.4544726058084618  1.0000
  C   C3        1.0  0.6484045832696479  0.604972835288552  0.5189605171342817  1.0000
  C   C4        1.0  0.560638460653803  0.6344474814384409  0.454472584990655  1.0000
  C   C5        1.0  0.47086297150178846  0.6030921915935292  0.5205143722495571  1.0000
  N   N2        1.0  0.39869691150532327  0.5778877379176544  0.5736008259551986  1.0000
  C   C6        1.0  0.5602772510122934  0.6940029684838729  0.3255160156694412  1.0000
  C   C7        1.0  0.6476065853999787  0.72562708491437  0.2609426336584164  1.0000
  C   C8        1.0  0.6472111499461676  0.7854236673404071  0.12164003513909871  1.0000
  C   C9        1.0  0.7353543400568615  0.6940029671591785  0.3255159343609251  1.0000
  H   H1        1.0  0.6487101933673958  0.5587667843914899  0.6187701362954046  1.0000
  H   H2        1.0  0.49226024909766336  0.7157830952501694  0.2754763728619949  1.0000
  H   H3        1.0  0.7116145771176029  0.8535640629748897  0.10046164983794846  1.0000
  H   H4        1.0  0.5819060994464176  0.8535640648510168  0.10046170845948829  1.0000
  H   H5        1.0  0.6478101075428345  0.6949264475620294  0.05687538911585954  1.0000
  H   H6        1.0  0.8030832074357183  0.7157832077004769  0.2754762963298658  1.0000
  C   C10       1.0  0.15138145796955094  0.15449846968410808  0.5720985295528299  1.0000
  C   C11       1.0  0.12488718167993974  0.2376775614679676  0.45763208522346827  1.0000
  C   C12       1.0  0.09054183104925406  0.17163914444027584  0.3492290984718237  1.0000
  C   C13       1.0  0.08212524490394113  0.021518620634349398  0.3540158758136529  1.0000
  C   C14       1.0  0.10951412096021307  0.9371318537746225  0.46587314880348857  1.0000
  C   C15       1.0  0.1457952566738467  0.0012659884342669538  0.575114381735088  1.0000
  C   C16       1.0  0.06276340732853325  0.25840004875358896  0.23338303493045084  1.0000
  N   N3        1.0  0.04043725990917134  0.32813990977930096  0.14027247354555183  1.0000
  H   H7        1.0  0.17009685547585596  0.23116951532955027  0.890771349619947  1.0000
  H   H8        1.0  0.12882909427943942  0.35463696136157674  0.45378002061097916  1.0000
  H   H9        1.0  0.05521437331016064  0.9693920510701861  0.27070137221135626  1.0000
  H   H10       1.0  0.10444563531313798  0.8206642584134701  0.46575889552637495  1.0000
  H   H11       1.0  0.16249285068724428  0.70249573452399  0.7886342360087509  1.0000
  C   C17       1.0  0.14858836316538704  0.5778822372830941  0.19236394277035163  1.0000
  C   C18       1.0  0.13278639008716506  0.42813467208624856  0.2010642757248191  1.0000
  C   C19       1.0  0.12494593158286112  0.35383400891298034  0.08842435242295532  1.0000
  C   C20       1.0  0.13278643271950963  0.4281347535116334  0.965956377043717  1.0000
  C   C21       1.0  0.14858836119431884  0.5778821628598929  0.9548489615787082  1.0000
  C   C22       1.0  0.15641233732661441  0.65202602017764  0.06870280897961023  1.0000
  Cl  Cl1       1.0  0.10520551634055603  0.16676372513893467  0.10079667793836974  1.0000
  H   H12       1.0  0.1545412502413388  0.6342895604522845  0.5163896166025141  1.0000
  H   H13       1.0  0.12650158951449875  0.3685765684969431  0.29504983102686033  1.0000
  H   H14       1.0  0.12650165709933625  0.3685765479239054  0.8798488648796864  1.0000
  H   H15       1.0  0.1685992499552269  0.7675158370811872  0.06106452603769163  1.0000
  H   H16       1.0  0.15454106665686998  0.6342895476935506  0.6233619860756838  1.0000
  Zn  Zn1       1.0  0.04282505486254662  0.5778839230022115  0.5736083176579669  1.0000
  Zn  Zn2       1.0  0.2543424173349982  0.5778798180254541  0.5736039547690449  1.0000
  C   C23       1.0  0.148624086681524  0.5721384746205611  0.8107024829243835  1.0000
  C   C24       1.0  0.14854568327781573  0.5836270855298886  0.33650992335825514  1.0000
  C   C25       1.0  0.14684619529729173  0.8412088837882661  0.5693708332720149  1.0000
  C   C26       1.0  0.1503235139135854  0.3145549441421702  0.5778416360583816  1.0000
  O   O1        1.0  0.2288011377397567  0.5855472612542161  0.38488495313749843  1.0000
  O   O2        1.0  0.2289054233330378  0.5702140956426031  0.7623237642174865  1.0000
  O   O3        1.0  0.2274686714812899  0.7874918539262163  0.5674467550233411  1.0000
  O   O4        1.0  0.23023781734691767  0.36826951328585583  0.5797618650274772  1.0000
  O   O5        1.0  0.06692958267012171  0.7874942277447801  0.5674504073942002  1.0000
  O   O6        1.0  0.06836632308982704  0.570218201684151  0.7623273535352539  1.0000
  O   O7        1.0  0.06826203789223027  0.585551317053441  0.38488698139323274  1.0000
  O   O8        1.0  0.06969871756347334  0.36827355877279855  0.5797639905820436  1.0000
