data_image0
_chemical_formula_structural       NC8NH4C9H8C7NH4Zn2C4O8
_chemical_formula_sum              "N3 C28 H16 Zn2 O8"
_cell_length_a       13.859017124695912
_cell_length_b       9.275152443626249
_cell_length_c       9.275157849593905
_cell_angle_alpha    85.91609934181939
_cell_angle_beta     89.74086887057864
_cell_angle_gamma    90.57357307376715

_space_group_name_H-M_alt    "P 1"
_space_group_IT_number       1

loop_
  _space_group_symop_operation_xyz
  'x, y, z'

loop_
  _atom_site_type_symbol
  _atom_site_label
  _atom_site_symmetry_multiplicity
  _atom_site_fract_x
  _atom_site_fract_y
  _atom_site_fract_z
  _atom_site_occupancy
  N   N1        1.0  0.9238915077632395  0.5634253180977047  0.40498180156295316  1.0000
  C   C1        1.0  0.8515499060177255  0.5400185429289461  0.34890863471698336  1.0000
  C   C2        1.0  0.7615612504372719  0.5109039302416496  0.2791608203188891  1.0000
  C   C3        1.0  0.673930409760525  0.5392877159185709  0.34715616161107943  1.0000
  C   C4        1.0  0.5863309405206235  0.5109051508394138  0.2791602369081263  1.0000
  C   C5        1.0  0.5865447324744152  0.45413109673101815  0.14314809576403453  1.0000
  C   C6        1.0  0.6739929515788382  0.4258564064485941  0.07541448729641576  1.0000
  C   C7        1.0  0.761410072090254  0.45412875794467533  0.14314928198073137  1.0000
  C   C8        1.0  0.4963100749932906  0.5400194649529695  0.3489081336045672  1.0000
  N   N2        1.0  0.42394263615655137  0.563425638720188  0.4049815844842497  1.0000
  H   H1        1.0  0.6739061383370865  0.583233032048858  0.4524328145394383  1.0000
  H   H2        1.0  0.5192616416670892  0.4317919647796517  0.0896283118261989  1.0000
  H   H3        1.0  0.6740172449178982  0.38200083812789715  0.970351034781523  1.0000
  H   H4        1.0  0.8287178219696689  0.43178753428323596  0.08963050431559183  1.0000
  C   C9        1.0  0.17107095331132705  0.13980737379133168  0.40645296300804934  1.0000
  C   C10       1.0  0.13662577401601794  0.2213670816573385  0.2840238833719584  1.0000
  C   C11       1.0  0.11115646164069215  0.15472396367023666  0.1593026221446414  1.0000
  C   C12       1.0  0.11973392571305497  0.005336149791459241  0.15454099634889285  1.0000
  C   C13       1.0  0.15229534129305544  0.922078324056128  0.2759353922782606  1.0000
  C   C14       1.0  0.17677231793585022  0.9870326638545203  0.4035229072606856  1.0000
  C   C15       1.0  0.09397464334919148  0.9369421306248267  0.02538428618853649  1.0000
  C   C16       1.0  0.07240729311283123  0.8796446941636497  0.9172357917646421  1.0000
  C   C17       1.0  0.04623958384190785  0.8101123883982088  0.7860165608885965  1.0000
  H   H5        1.0  0.30886522439414016  0.22423207679322799  0.694258737369142  1.0000
  H   H6        1.0  0.13154437579957268  0.33788019626225174  0.28357058161121285  1.0000
  H   H7        1.0  0.08563506438421564  0.22006439466969205  0.06596925223381445  1.0000
  H   H8        1.0  0.15636975217104898  0.8057295606936125  0.27191523601406103  1.0000
  H   H9        1.0  0.2664428266789345  0.6936300745359341  0.6003723958943252  1.0000
  H   H10       1.0  0.06383893508584215  0.6935202949664928  0.799479592397816  1.0000
  H   H11       1.0  0.9677645016974874  0.8225048029904052  0.7662879487152033  1.0000
  H   H12       1.0  0.08726375115249296  0.8615621419567472  0.6927357866381514  1.0000
  C   C18       1.0  0.17517451208649648  0.5593424179417612  0.9818042844075086  1.0000
  C   C19       1.0  0.25865657591912083  0.6063696990731082  0.051337646354301145  1.0000
  C   C20       1.0  0.33726535788775425  0.6647403161536445  0.9712575834103379  1.0000
  C   C21       1.0  0.3333101446190845  0.6770116240346067  0.8205561991371293  1.0000
  C   C22       1.0  0.2518039826190859  0.628816205408161  0.7496853344130221  1.0000
  C   C23       1.0  0.17266877777322676  0.5674975481853487  0.8281716524988734  1.0000
  C   C24       1.0  0.42170664367603306  0.713776550290391  0.044091589422542654  1.0000
  N   N3        1.0  0.48957581154934715  0.7531884603172303  0.10263786052176482  1.0000
  H   H13       1.0  0.9400789090100133  0.5107035644360816  0.08981019605717178  1.0000
  H   H14       1.0  0.3937008751651585  0.7226419577681595  0.7575755725942379  1.0000
  H   H15       1.0  0.25164156372308  0.6364003829102285  0.6325946658369062  1.0000
  H   H16       1.0  0.015350633683054449  0.5286928668672071  0.5508994126799571  1.0000
  Zn  Zn1       1.0  0.06819541415823305  0.5634216393975074  0.40499007862456904  1.0000
  Zn  Zn2       1.0  0.2796386079437194  0.5634176637494148  0.40498516768763343  1.0000
  C   C25       1.0  0.1731015667570548  0.560209248940448  0.668209946706842  1.0000
  C   C26       1.0  0.1747347761278526  0.566631875676983  0.14176543469933756  1.0000
  C   C27       1.0  0.17570666737266352  0.8268336890161903  0.3983341820903981  1.0000
  C   C28       1.0  0.1721295914708041  0.3000057031850489  0.41164128214158  1.0000
  O   O1        1.0  0.2548287444680548  0.5690704821349978  0.1954480160904048  1.0000
  O   O2        1.0  0.25348808394235123  0.5577665328011053  0.6145232269559249  1.0000
  O   O3        1.0  0.2555906495041371  0.7730691545470929  0.39659663245006904  1.0000
  O   O4        1.0  0.2527261071443707  0.3537678696686628  0.4133745025110475  1.0000
  O   O5        1.0  0.0951078428024299  0.7730714334811141  0.39660074379524507  1.0000
  O   O6        1.0  0.09300528912693175  0.5577705441541732  0.6145272554693926  1.0000
  O   O7        1.0  0.0943459545080656  0.569074426524055  0.19545031217906184  1.0000
  O   O8        1.0  0.09224331679112763  0.35377180478092224  0.41337690667900845  1.0000
