data_image0
_chemical_formula_structural       NC10NC3NH7C7OC6H10C6SCOC6H10Zn2C4O8
_chemical_formula_sum              "N3 C43 H27 O10 S1 Zn2"
_cell_length_a       19.210446455230148
_cell_length_b       10.299379429549807
_cell_length_c       10.302041481415108
_cell_angle_alpha    85.5191038852169
_cell_angle_beta     89.98692140310254
_cell_angle_gamma    89.94476483549958

_space_group_name_H-M_alt    "P 1"
_space_group_IT_number       1

loop_
  _space_group_symop_operation_xyz
  'x, y, z'

loop_
  _atom_site_type_symbol
  _atom_site_label
  _atom_site_symmetry_multiplicity
  _atom_site_fract_x
  _atom_site_fract_y
  _atom_site_fract_z
  _atom_site_occupancy
  N   N1        1.0  0.6554856489344502  0.42076932755685736  0.5671471769125878  1.0000
  C   C1        1.0  0.5952568685599777  0.4229768566056303  0.5673775201476827  1.0000
  C   C2        1.0  0.5204521425588431  0.4257137884637711  0.5676628859638806  1.0000
  C   C3        1.0  0.4848289868092721  0.5419439383476465  0.5827316411946566  1.0000
  C   C4        1.0  0.4121634920713765  0.5420955013783074  0.58267900357594  1.0000
  C   C5        1.0  0.3752853129954405  0.42642275519836276  0.5677491079024874  1.0000
  C   C6        1.0  0.29796332865111275  0.425066274181302  0.5675990124380026  1.0000
  C   C7        1.0  0.2601990862322741  0.5286644985835915  0.5042157456772929  1.0000
  C   C8        1.0  0.18742088002633892  0.527262245277953  0.5041071744869665  1.0000
  C   C9        1.0  0.15140547877779822  0.4225193073167767  0.5673307964411902  1.0000
  C   C10       1.0  0.07647609777341521  0.42121721773056753  0.5671944426587133  1.0000
  N   N2        1.0  0.016238357256112203  0.4201702934798264  0.5670848491009466  1.0000
  C   C11       1.0  0.1884460507994788  0.31904679010399595  0.6306890172770026  1.0000
  C   C12       1.0  0.2612261341604794  0.3201747449407619  0.6308479170127903  1.0000
  C   C13       1.0  0.4135181350654553  0.3120128367528576  0.5529678319926425  1.0000
  N   N3        1.0  0.4842878220269012  0.31445785927661785  0.55313252291105  1.0000
  H   H1        1.0  0.5129203442029203  0.63137710072967  0.5947468602300974  1.0000
  H   H2        1.0  0.3848849535870995  0.6321100445900336  0.596088440811828  1.0000
  H   H3        1.0  0.2869182145455643  0.6099400904096209  0.4532085491146747  1.0000
  H   H4        1.0  0.1592663899724369  0.6077096089436009  0.45443036200913345  1.0000
  H   H5        1.0  0.1610873125213722  0.23763602339093093  0.6802666961897964  1.0000
  H   H6        1.0  0.288735724067877  0.2398460464723968  0.6819620992243731  1.0000
  H   H7        1.0  0.3872625718416122  0.22113535151481445  0.5395124527891106  1.0000
  C   C14       1.0  0.835872918600282  0.03907785207499104  0.5672700449532975  1.0000
  C   C15       1.0  0.8780653744943137  0.02908159758708151  0.6789837439569819  1.0000
  C   C16       1.0  0.8986935131060952  0.9068013138123987  0.7361799998625342  1.0000
  C   C17       1.0  0.8779806555850912  0.7938597587089942  0.6787075371022864  1.0000
  C   C18       1.0  0.8358577411247257  0.8018518047102193  0.5669732054806247  1.0000
  C   C19       1.0  0.8148970122285514  0.9249344344669223  0.5120996887416767  1.0000
  C   C20       1.0  0.9438501704273459  0.8961621072020648  0.8533438479209754  1.0000
  O   O1        1.0  0.988010719256341  0.8052981926776305  0.8656896918094641  1.0000
  C   C21       1.0  0.9389056342214442  0.9885013076703025  0.9565067123461691  1.0000
  C   C22       1.0  0.9984448388178603  0.017843135924661798  0.028043297122734897  1.0000
  C   C23       1.0  0.9941299968747613  0.10357676477741638  0.12651459563376077  1.0000
  C   C24       1.0  0.9303644314263273  0.15996658560525145  0.15527749911507593  1.0000
  C   C25       1.0  0.8707184301478111  0.13031531182241674  0.08598453685068064  1.0000
  C   C26       1.0  0.8747537402861926  0.044661829445957084  0.9874256390337482  1.0000
  H   H8        1.0  0.7571316431309073  0.26535066350615355  0.3552989986586639  1.0000
  H   H9        1.0  0.8955738559328068  0.11662642781543517  0.7208084901967283  1.0000
  H   H10       1.0  0.8942745039508384  0.6995166855020768  0.7221323401188913  1.0000
  H   H11       1.0  0.782370136113531  0.9318367001662291  0.4259762409301102  1.0000
  H   H12       1.0  0.8201605144220252  0.4775138813750545  0.5234179414281601  1.0000
  H   H13       1.0  0.04838241933975929  0.9753221497741128  0.0069919815666535925  1.0000
  H   H14       1.0  0.04027093234131263  0.1262521262570222  0.1805907485623636  1.0000
  H   H15       1.0  0.9271194167658814  0.22621671493570503  0.23160221453305485  1.0000
  H   H16       1.0  0.8212286975242753  0.17327362659363144  0.10903515927740746  1.0000
  H   H17       1.0  0.8276513709805987  0.021302109941088387  0.9365087005957842  1.0000
  C   C27       1.0  0.8358783761265066  0.42059407927381803  0.1858345469490306  1.0000
  C   C28       1.0  0.8677880810935376  0.5436467576333088  0.17486815444589854  1.0000
  C   C29       1.0  0.8839750031187649  0.6043495614387606  0.05245641378433331  1.0000
  C   C30       1.0  0.8678541539734941  0.5432427616072573  0.9397628882717197  1.0000
  C   C31       1.0  0.8358523000755224  0.4203355485111652  0.9484087429866883  1.0000
  C   C32       1.0  0.8200814307720602  0.3595934961663092  0.07201385330682619  1.0000
  S   S1        1.0  0.9253603402501569  0.7608229601066974  0.039865812347315906  1.0000
  C   C33       1.0  0.011110497895418184  0.690875764928377  0.042446574298471214  1.0000
  O   O2        1.0  0.03835290459614105  0.6676564108817411  0.9353906204493914  1.0000
  C   C34       1.0  0.04947920415530782  0.6594675267864574  0.1659766518953949  1.0000
  C   C35       1.0  0.11123192084233247  0.5856372805683989  0.16618694691140545  1.0000
  C   C36       1.0  0.14751332847017865  0.5546784706203398  0.28214477714191566  1.0000
  C   C37       1.0  0.12278092870567738  0.5970695544343083  0.39907014130154234  1.0000
  C   C38       1.0  0.061776366745065925  0.6707397382323343  0.40024004563096227  1.0000
  C   C39       1.0  0.02528717967156991  0.702073049883742  0.284581511679191  1.0000
  H   H18       1.0  0.7756298433560258  0.18877459207389963  0.41381261610533865  1.0000
  H   H19       1.0  0.8802918761592808  0.5925566547105734  0.26116128696273866  1.0000
  H   H20       1.0  0.8806530010477085  0.591820618965863  0.8457703986897451  1.0000
  H   H21       1.0  0.7954829386390906  0.2647284298077537  0.07954760535165284  1.0000
  H   H22       1.0  0.82387527306793  0.3734360362171854  0.6243698057666607  1.0000
  H   H23       1.0  0.1313399402271065  0.5511439621048533  0.07687823078572344  1.0000
  H   H24       1.0  0.1948320060835347  0.49761206731003543  0.28131176234011357  1.0000
  H   H25       1.0  0.15092978640720633  0.5729702229215698  0.48873670717762163  1.0000
  H   H26       1.0  0.042749268105880533  0.7038441423463453  0.49090315286443764  1.0000
  H   H27       1.0  0.9784967370065962  0.7600806884927074  0.2886413271127215  1.0000
  Zn  Zn1       1.0  0.7595910868414631  0.42059299245761966  0.5671366892587131  1.0000
  Zn  Zn2       1.0  0.9121329032558484  0.42033604178723327  0.5671059743682862  1.0000
  C   C40       1.0  0.8358557609076036  0.4152104436909285  0.8042678797453637  1.0000
  C   C41       1.0  0.8358698949046217  0.4257202264234454  0.32997491034762777  1.0000
  C   C42       1.0  0.8358572003026248  0.6576730434159026  0.5618552609328213  1.0000
  C   C43       1.0  0.8358684034864293  0.18325606636580516  0.5723875990016478  1.0000
  O   O3        1.0  0.8937558729927584  0.4273374307106561  0.378338079106769  1.0000
  O   O4        1.0  0.8937454919329078  0.41339724013532075  0.7558810257105447  1.0000
  O   O5        1.0  0.893745873847346  0.6091888566281449  0.5601311205415354  1.0000
  O   O6        1.0  0.8937554390292777  0.2315458236292982  0.5740878869288704  1.0000
  O   O7        1.0  0.7779684990129981  0.6093832107046557  0.5601547767017805  1.0000
  O   O8        1.0  0.7779681170666957  0.4135931546335989  0.7559046120329647  1.0000
  O   O9        1.0  0.7779784982271676  0.42753330047935334  0.37836010438114287  1.0000
  O   O10       1.0  0.7779780642576938  0.2317416840756299  0.5741100095538039  1.0000
