data_image0
_chemical_formula_structural       NC6NC3H6C7NH3C6SCH6Zn2C4O8
_chemical_formula_sum              "N3 C27 H15 S1 Zn2 O8"
_cell_length_a       14.934028789175542
_cell_length_b       9.275154477615127
_cell_length_c       10.302812801239593
_cell_angle_alpha    85.78691219350036
_cell_angle_beta     89.97499208564275
_cell_angle_gamma    89.3962875590186

_space_group_name_H-M_alt    "P 1"
_space_group_IT_number       1

loop_
  _space_group_symop_operation_xyz
  'x, y, z'

loop_
  _atom_site_type_symbol
  _atom_site_label
  _atom_site_symmetry_multiplicity
  _atom_site_fract_x
  _atom_site_fract_y
  _atom_site_fract_z
  _atom_site_occupancy
  N   N1        1.0  0.8335081903113136  0.5770495303474925  0.573109372587278  1.0000
  C   C1        1.0  0.7560288584165222  0.575951638754793  0.5724940542716015  1.0000
  C   C2        1.0  0.6596406951088885  0.574580813686318  0.5717259426966952  1.0000
  C   C3        1.0  0.6112259771367111  0.6813415860578196  0.6314506112509572  1.0000
  C   C4        1.0  0.5177209755201244  0.6802409093867067  0.630834748096055  1.0000
  C   C5        1.0  0.47171781001721397  0.5724339433187222  0.5705248761456341  1.0000
  C   C6        1.0  0.3750579127893741  0.5747470506333332  0.5718200512699492  1.0000
  N   N2        1.0  0.29756657977242523  0.5765827929146561  0.5728482317464103  1.0000
  C   C7        1.0  0.5201359796879731  0.46419615901498856  0.5099734300852453  1.0000
  C   C8        1.0  0.4725357094627357  0.3469875774255206  0.44440517140615204  1.0000
  C   C9        1.0  0.6142651886801536  0.46641997165440374  0.5112175341477474  1.0000
  H   H1        1.0  0.6457564152465318  0.7654591715837051  0.6785086408641072  1.0000
  H   H2        1.0  0.4811754257309264  0.7637106674951974  0.677530236832067  1.0000
  H   H3        1.0  0.4294850064764883  0.39604617452145496  0.36477685832337126  1.0000
  H   H4        1.0  0.4301766091608939  0.2841566662826782  0.5163349107989494  1.0000
  H   H5        1.0  0.5204582955160636  0.2710698909146354  0.40192908683546236  1.0000
  H   H6        1.0  0.6522970154686767  0.3840606101460716  0.46514349157675194  1.0000
  C   C10       1.0  0.06813287369388571  0.15342424544985223  0.5714749972332613  1.0000
  C   C11       1.0  0.043554226153535304  0.2366280515566208  0.45702059504918524  1.0000
  C   C12       1.0  0.011692162392351596  0.17062167369201187  0.3486338447124018  1.0000
  C   C13       1.0  0.0038841227887054194  0.02050900228115871  0.353425091618337  1.0000
  C   C14       1.0  0.029292687728514  0.9360966864025332  0.4652698145178539  1.0000
  C   C15       1.0  0.06295057292130224  0.00019697593518985378  0.5744938134022637  1.0000
  C   C16       1.0  0.985922215559939  0.2574084903306572  0.23280047222863587  1.0000
  N   N3        1.0  0.965210326442306  0.32716917767823234  0.1397001108952718  1.0000
  H   H7        1.0  0.08549507074866429  0.2300778403092117  0.8901430330057707  1.0000
  H   H8        1.0  0.9789189996027248  0.9684075366536453  0.2701233352641539  1.0000
  H   H9        1.0  0.0784408655185575  0.7014111505358999  0.7880082911340885  1.0000
  C   C17       1.0  0.06554174767501836  0.5768106072675032  0.19173592534028527  1.0000
  C   C18       1.0  0.03446365935295123  0.7206220438749866  0.18106822460447614  1.0000
  C   C19       1.0  0.018770634471596766  0.7919656521934462  0.05878410007635382  1.0000
  C   C20       1.0  0.0344635795535608  0.720621892607098  0.9459170544210946  1.0000
  C   C21       1.0  0.06554168965338514  0.5768105976096132  0.954232828967871  1.0000
  C   C22       1.0  0.08090135634975933  0.5055950863487653  0.07768474796944025  1.0000
  S   S1        1.0  0.9792470305584706  0.9758125952674277  0.04664966658307489  1.0000
  C   C23       1.0  0.8617712019850218  0.9255570458195969  0.05004850336094169  1.0000
  H   H10       1.0  0.022118217449026856  0.7777443579771628  0.26739762674274137  1.0000
  H   H11       1.0  0.022118039445502488  0.7777441504667202  0.852047313121111  1.0000
  H   H12       1.0  0.10485708434011216  0.3946574091724262  0.08500677454424554  1.0000
  H   H13       1.0  0.8462854938495016  0.8614330699800172  0.9661824558262321  1.0000
  H   H14       1.0  0.8462858684413951  0.8614345266950896  0.14241715283851186  1.0000
  H   H15       1.0  0.81971943189269  0.025115147988817643  0.043490101113360824  1.0000
  Zn  Zn1       1.0  0.9674254544549603  0.576910976443753  0.5730414906935987  1.0000
  Zn  Zn2       1.0  0.1636494179735506  0.5767095364732945  0.5729266858968782  1.0000
  C   C24       1.0  0.06557485753479275  0.571066830161326  0.8100841249029109  1.0000
  C   C25       1.0  0.06550214651979425  0.5825554997348146  0.33588418434553313  1.0000
  C   C26       1.0  0.06392552552126918  0.8401388906412318  0.5687496263048746  1.0000
  C   C27       1.0  0.06715142217716519  0.3134817070915723  0.5772187460240329  1.0000
  O   O1        1.0  0.13995486603138152  0.5844008026595473  0.38421806663199626  1.0000
  O   O2        1.0  0.1400515926770509  0.569067551282058  0.7616627308265693  1.0000
  O   O3        1.0  0.13871873238047083  0.7863466440307194  0.5667834216588921  1.0000
  O   O4        1.0  0.1412876593068999  0.3671217202935366  0.5790972785317063  1.0000
  O   O5        1.0  0.9897871461599934  0.7864987926938221  0.5668708980911246  1.0000
  O   O6        1.0  0.9911199958511073  0.5692214321788084  0.7617501442106926  1.0000
  O   O7        1.0  0.9910232695725911  0.584554633313558  0.3843039189294465  1.0000
  O   O8        1.0  0.9923560629075531  0.3672755406352082  0.579183228129478  1.0000
