data_image0
_chemical_formula_structural       NC8NH4C6BrH5C9H8Zn2C4O8
_chemical_formula_sum              "N2 C27 H17 Br1 Zn2 O8"
_cell_length_a       13.859017124695912
_cell_length_b       9.276564384272257
_cell_length_c       9.275155815604963
_cell_angle_alpha    86.0004437210585
_cell_angle_beta     90.3574901998649
_cell_angle_gamma    90.58596084768166

_space_group_name_H-M_alt    "P 1"
_space_group_IT_number       1

loop_
  _space_group_symop_operation_xyz
  'x, y, z'

loop_
  _atom_site_type_symbol
  _atom_site_label
  _atom_site_symmetry_multiplicity
  _atom_site_fract_x
  _atom_site_fract_y
  _atom_site_fract_z
  _atom_site_occupancy
  N   N1        1.0  0.9126552532860153  0.5645267855721741  0.4089244334677278  1.0000
  C   C1        1.0  0.8399065456913829  0.5411849703742246  0.35278584784768063  1.0000
  C   C2        1.0  0.7494115028089101  0.5121511594069601  0.2829566619627093  1.0000
  C   C3        1.0  0.6622743261312932  0.5404561733405763  0.3510313320425481  1.0000
  C   C4        1.0  0.5741811888824779  0.5121523801904126  0.28295608168295017  1.0000
  C   C5        1.0  0.5734074974251363  0.45553589359953084  0.1467852643711891  1.0000
  C   C6        1.0  0.6603639527543943  0.4273396719003551  0.07897263205353888  1.0000
  C   C7        1.0  0.7482728452159101  0.45553355438776677  0.14678644459403567  1.0000
  C   C8        1.0  0.4846667112032975  0.5411858926000577  0.35278534909555526  1.0000
  N   N2        1.0  0.4127063801667374  0.5645271063084594  0.4089242172063625  1.0000
  H   H1        1.0  0.6630143906346808  0.5842795281596782  0.45643080630777333  1.0000
  H   H2        1.0  0.5057358392703772  0.4332587629658464  0.09320304523737932  1.0000
  H   H3        1.0  0.6596254581732452  0.3836058176497558  0.9737866088909586  1.0000
  H   H4        1.0  0.8151920346661039  0.4332543317191826  0.09320522636791287  1.0000
  C   C9        1.0  0.15977991643959435  0.14104916786453958  0.4092928864315384  1.0000
  C   C10       1.0  0.14685676379535528  0.22341394914869106  0.2775675837836331  1.0000
  C   C11       1.0  0.14291861834409225  0.157301175919361  0.14707265770273414  1.0000
  C   C12       1.0  0.15187169064597497  0.007883277877757326  0.1458252047955782  1.0000
  C   C13       1.0  0.1630865743116641  0.9238080108031855  0.2755585990450282  1.0000
  C   C14       1.0  0.16559092900298555  0.9879937331388412  0.40856820894904433  1.0000
  Br  Br1       1.0  0.1471913233842812  0.9179833112063651  0.9667633657717247  1.0000
  H   H5        1.0  0.13247813726245683  0.40561958153900957  0.6436043621497081  1.0000
  H   H6        1.0  0.142084641790456  0.34004908797033995  0.27510022283190244  1.0000
  H   H7        1.0  0.13382263096450608  0.2226567757249711  0.046681840940802306  1.0000
  H   H8        1.0  0.16753783318397675  0.8075412696661476  0.27245130759212244  1.0000
  H   H9        1.0  0.2197696985519439  0.6919943727529376  0.6330371998459712  1.0000
  C   C15       1.0  0.1608925068233045  0.5608763565436032  0.9857024564731085  1.0000
  C   C16       1.0  0.08589200652896123  0.6311435611724372  0.05345723703630757  1.0000
  C   C17       1.0  0.01742013749886317  0.7109948646896955  0.9721041748069715  1.0000
  C   C18       1.0  0.022680270033682767  0.7222510625766075  0.8215127446771262  1.0000
  C   C19       1.0  0.09573375948851437  0.6512090545344664  0.7520502629936363  1.0000
  C   C20       1.0  0.16447831443443484  0.5681665287896154  0.8321586432714645  1.0000
  C   C21       1.0  0.9522810976528869  0.8054714677412655  0.7378441822632849  1.0000
  C   C22       1.0  0.8933344979185965  0.8751571922200099  0.6677565376116994  1.0000
  C   C23       1.0  0.8218134039460595  0.959709036363763  0.5827055547217328  1.0000
  H   H10       1.0  0.3840547830838297  0.44452735024644013  0.098759763982458  1.0000
  H   H11       1.0  0.08152962233351557  0.6271460892383631  0.1702521970074169  1.0000
  H   H12       1.0  0.9608521319057948  0.7651968402326514  0.026870852678408937  1.0000
  H   H13       1.0  0.09756307624431826  0.6579901613400072  0.6348981645939533  1.0000
  H   H14       1.0  0.31334057281659344  0.48465475779113437  0.5586476493417695  1.0000
  H   H15       1.0  0.8414491902904593  0.9638524103486343  0.4667030141857569  1.0000
  H   H16       1.0  0.7495978327074684  0.9083567429129146  0.5977757998804223  1.0000
  H   H17       1.0  0.8201354719768709  0.07106095266976986  0.6191150116130135  1.0000
  Zn  Zn1       1.0  0.05695921867381793  0.564523099671487  0.4089327016141002  1.0000
  Zn  Zn2       1.0  0.2684023765074688  0.5645191303573478  0.408927779934557  1.0000
  C   C24       1.0  0.1637589655182552  0.5610436343836795  0.6721652496376693  1.0000
  C   C25       1.0  0.16160495169917377  0.5680004163682193  0.1456953717576912  1.0000
  C   C26       1.0  0.16446322428822158  0.8278537407316864  0.4029620269355657  1.0000
  C   C27       1.0  0.16090060921643928  0.30118857809964794  0.414898672782128  1.0000
  O   O1        1.0  0.24208558799468438  0.5703835182650396  0.19938859331152609  1.0000
  O   O2        1.0  0.24375878433507125  0.5586564283973097  0.6184678786942055  1.0000
  O   O3        1.0  0.24432640685204388  0.7741089764748457  0.40108437044706646  1.0000
  O   O4        1.0  0.24151789293948123  0.3549309795741593  0.4167719934889682  1.0000
  O   O5        1.0  0.08384363008661144  0.774111250457534  0.40108848805378555  1.0000
  O   O6        1.0  0.08327601912721258  0.5586604343034223  0.6184719179726887  1.0000
  O   O7        1.0  0.08160281516565891  0.5703874589944369  0.19939089985237013  1.0000
  O   O8        1.0  0.08103512049349226  0.3549349109197606  0.41677440809360633  1.0000
