data_image0
_chemical_formula_structural       NC10NC5H10C12NCOCH13C16H10Zn2C4O8
_chemical_formula_sum              "N3 C49 H33 O9 Zn2"
_cell_length_a       19.4436361288709
_cell_length_b       10.299155265289647
_cell_length_c       10.299151387937775
_cell_angle_alpha    85.56903598390942
_cell_angle_beta     89.69351296060239
_cell_angle_gamma    89.39615277754326

_space_group_name_H-M_alt    "P 1"
_space_group_IT_number       1

loop_
  _space_group_symop_operation_xyz
  'x, y, z'

loop_
  _atom_site_type_symbol
  _atom_site_label
  _atom_site_symmetry_multiplicity
  _atom_site_fract_x
  _atom_site_fract_y
  _atom_site_fract_z
  _atom_site_occupancy
  N   N1        1.0  0.6475097666329408  0.4087912763249373  0.5617066217900941  1.0000
  C   C1        1.0  0.5886711586047652  0.41869760824725893  0.576088077249806  1.0000
  C   C2        1.0  0.5153385391068876  0.4310521459019363  0.5940772528826523  1.0000
  C   C3        1.0  0.47316559682454684  0.39902851668836514  0.499411258327924  1.0000
  C   C4        1.0  0.39725853576818376  0.409468946156585  0.5047366005840206  1.0000
  C   C5        1.0  0.3575193105507204  0.3847467629800403  0.6118165058313798  1.0000
  C   C6        1.0  0.2813985686614366  0.38866033753883583  0.5988559769313092  1.0000
  C   C7        1.0  0.2408193568004762  0.446350027713874  0.6926120791001584  1.0000
  C   C8        1.0  0.1691557084297747  0.4499853374685099  0.682067122752271  1.0000
  C   C9        1.0  0.1370765841664792  0.39553499011928733  0.5780526986553074  1.0000
  C   C10       1.0  0.0632836858666999  0.39923150771592897  0.5673524427207379  1.0000
  N   N2        1.0  0.003959200708490502  0.40220331393197917  0.5587501463501208  1.0000
  C   C11       1.0  0.1769310323839454  0.33713825586435653  0.4846800227902919  1.0000
  C   C12       1.0  0.24861113293159354  0.3334486534042267  0.4949732140583034  1.0000
  C   C13       1.0  0.3856541913747369  0.34431671312703527  0.742922988862967  1.0000
  C   C14       1.0  0.4443066436850439  0.38745389892283266  0.7901544024235683  1.0000
  C   C15       1.0  0.4884974653895141  0.48530017119087354  0.7157603188025247  1.0000
  H   H1        1.0  0.4952749359014069  0.3698860771323103  0.4091114410448518  1.0000
  H   H2        1.0  0.37255994158064193  0.4319413243744339  0.4115714940865556  1.0000
  H   H3        1.0  0.2646770171624581  0.48966486563464756  0.7734495555694136  1.0000
  H   H4        1.0  0.13879806572840242  0.49532201361257955  0.7549765297497895  1.0000
  H   H5        1.0  0.1526014331628735  0.29401917572512937  0.4041769799965782  1.0000
  H   H6        1.0  0.2783035878223032  0.2858686022930417  0.4227607426760105  1.0000
  H   H7        1.0  0.35469886205590423  0.2801114395644806  0.8071875140437759  1.0000
  H   H8        1.0  0.45945889255287203  0.35340933181336687  0.8880987130947837  1.0000
  H   H9        1.0  0.4583709993953068  0.5760145981190754  0.6904840670367027  1.0000
  H   H10       1.0  0.5317742640714418  0.5109042450146088  0.7788390133416054  1.0000
  C   C16       1.0  0.8258145800264748  0.024098383466338195  0.5603464496238846  1.0000
  C   C17       1.0  0.8140797559808283  0.033968357113177916  0.425518555593138  1.0000
  C   C18       1.0  0.8080633530335316  0.9218361483705526  0.35704080152570983  1.0000
  C   C19       1.0  0.813915334088416  0.7987115191923371  0.4252121344254396  1.0000
  C   C20       1.0  0.825660988639897  0.7868861399847769  0.5601215292152509  1.0000
  C   C21       1.0  0.831541360909589  0.9000977998119527  0.6268581028047415  1.0000
  C   C22       1.0  0.7956501752043498  0.9332510423330281  0.2144091629804641  1.0000
  C   C23       1.0  0.8305396784444167  0.02668875190741616  0.132702166495535  1.0000
  C   C24       1.0  0.8188637196369358  0.03729993727333425  0.9984762433476897  1.0000
  C   C25       1.0  0.772492476989086  0.9537952295663131  0.9431102747349072  1.0000
  C   C26       1.0  0.7367628465775843  0.8621893091757946  0.024756079849216572  1.0000
  C   C27       1.0  0.7484638597651295  0.8513216283221214  0.15894445971755822  1.0000
  N   N3        1.0  0.758603475008462  0.9642449950804189  0.8056643777465391  1.0000
  C   C28       1.0  0.8088342397574876  0.00021891193528355806  0.7070300036055341  1.0000
  O   O1        1.0  0.8719285674695412  0.0015968138011319664  0.7343651163423042  1.0000
  C   C29       1.0  0.7869068111360155  0.027022646520543214  0.5686719452080053  1.0000
  H   H11       1.0  0.8303496448848714  0.34777775973431146  0.6122011534885138  1.0000
  H   H12       1.0  0.8086435037223841  0.12909586935793138  0.37375399255395014  1.0000
  H   H13       1.0  0.8102209981853211  0.7119623731496239  0.37261431244725324  1.0000
  H   H14       1.0  0.8405949913756373  0.8917699748265117  0.7308532103903936  1.0000
  H   H15       1.0  0.848242157852694  0.5572753805145964  0.8146217204753939  1.0000
  H   H16       1.0  0.867262426856267  0.0910723755977856  0.17248991462585872  1.0000
  H   H17       1.0  0.8452558196994129  0.11224702237862381  0.9386768942703553  1.0000
  H   H18       1.0  0.6999741829528889  0.798510651833222  0.9841018422596896  1.0000
  H   H19       1.0  0.7198616078426292  0.7800320300821248  0.21959508767294356  1.0000
  H   H20       1.0  0.7101633986326698  0.9362608633822732  0.7749926931665773  1.0000
  H   H21       1.0  0.7372588618761236  0.08138436442799502  0.5646300893968905  1.0000
  H   H22       1.0  0.7805470498878664  0.9335147922192852  0.5235006130948681  1.0000
  H   H23       1.0  0.8260671301367263  0.08637084228530488  0.5129518415140595  1.0000
  C   C30       1.0  0.8257776679550526  0.40532274629699977  0.17886273825888543  1.0000
  C   C31       1.0  0.7594049040515819  0.46050647647187604  0.17448877490822245  1.0000
  C   C32       1.0  0.72571148365923  0.48866048078736496  0.055115418910563374  1.0000
  C   C33       1.0  0.7592851795700415  0.46088631124422746  0.9391773217263308  1.0000
  C   C34       1.0  0.8256978675564597  0.4056616958793846  0.9416052766887484  1.0000
  C   C35       1.0  0.8585359338852118  0.37822182139487365  0.06187786584281941  1.0000
  C   C36       1.0  0.6554971377401936  0.5470384950857008  0.05153370289341775  1.0000
  C   C37       1.0  0.6380071556300773  0.647181417656768  0.9563443890457823  1.0000
  C   C38       1.0  0.5719100854978744  0.7020877989342295  0.9531016553770462  1.0000
  C   C39       1.0  0.5224358992559572  0.6576757947121148  0.04475344596533959  1.0000
  C   C40       1.0  0.5393024075370813  0.558102775235858  0.13978567255836394  1.0000
  C   C41       1.0  0.605379762970604  0.5031091590458803  0.14327816066910762  1.0000
  C   C42       1.0  0.4543984335244835  0.7142478833147895  0.0412869572416721  1.0000
  C   C43       1.0  0.3974180160380973  0.7616261536219693  0.0383837367504416  1.0000
  C   C44       1.0  0.3306945396598637  0.8171056823307443  0.034984094269515424  1.0000
  C   C45       1.0  0.2737233302729504  0.864476533965062  0.032081449391103016  1.0000
  H   H24       1.0  0.8512928632428439  0.3840344205062562  0.5080257357037106  1.0000
  H   H25       1.0  0.7341287348149055  0.4833696603855784  0.263995632125291  1.0000
  H   H26       1.0  0.7331830988199679  0.4807491657549213  0.8470151745974253  1.0000
  H   H27       1.0  0.9097301208660615  0.33565365337509734  0.06453614987862744  1.0000
  H   H28       1.0  0.9508756870184136  0.3006729272957196  0.7389554501609532  1.0000
  H   H29       1.0  0.6757055352253254  0.684189448954052  0.8854741233884624  1.0000
  H   H30       1.0  0.5594560578537484  0.7793728545514178  0.8793296687970896  1.0000
  H   H31       1.0  0.5013369104521558  0.5227409985415148  0.21098907534157577  1.0000
  H   H32       1.0  0.617021134676722  0.4250774303739253  0.21666409609021486  1.0000
  H   H33       1.0  0.22369790466675132  0.9060719904397697  0.029532694930550333  1.0000
  Zn  Zn1       1.0  0.7503733747558077  0.4068866643829288  0.5608609600505201  1.0000
  Zn  Zn2       1.0  0.9010955851198247  0.4040973221054034  0.559606492463055  1.0000
  C   C46       1.0  0.8257124659693448  0.4004236092616602  0.7974321263052058  1.0000
  C   C47       1.0  0.825758139444783  0.41056198557201173  0.3230354394936797  1.0000
  C   C48       1.0  0.8256870027789169  0.6427007549135306  0.5549888827447667  1.0000
  C   C49       1.0  0.8257835515112598  0.16828328047765556  0.5654787531813203  1.0000
  O   O2        1.0  0.8829498799771758  0.41125611509001514  0.3709450528208853  1.0000
  O   O3        1.0  0.8829153958651152  0.3976114535304347  0.7485700275460743  1.0000
  O   O4        1.0  0.8828940628152006  0.5932533275268282  0.5527953990643333  1.0000
  O   O5        1.0  0.8829711616041247  0.21561425129310874  0.5667195843526855  1.0000
  O   O6        1.0  0.7684977468374149  0.5953697361485001  0.5537478685821466  1.0000
  O   O7        1.0  0.7685190795771875  0.39972942254786986  0.7495224273579424  1.0000
  O   O8        1.0  0.7685535639074467  0.4133740381531242  0.3718958912354329  1.0000
  O   O9        1.0  0.7685748455232683  0.21773216511000748  0.5676705201384309  1.0000
