data_image0
_chemical_formula_structural       NC8NH3C10H6C9H7Zn2C4O8
_chemical_formula_sum              "N2 C31 H16 Zn2 O8"
_cell_length_a       13.859017981522156
_cell_length_b       9.275150299802176
_cell_length_c       9.273585224739813
_cell_angle_alpha    85.81607574140205
_cell_angle_beta     90.10206682284496
_cell_angle_gamma    89.4839203727508

_space_group_name_H-M_alt    "P 1"
_space_group_IT_number       1

loop_
  _space_group_symop_operation_xyz
  'x, y, z'

loop_
  _atom_site_type_symbol
  _atom_site_label
  _atom_site_symmetry_multiplicity
  _atom_site_fract_x
  _atom_site_fract_y
  _atom_site_fract_z
  _atom_site_occupancy
  N   N1        1.0  0.8972628571883432  0.5628594321445399  0.4013096469729469  1.0000
  C   C1        1.0  0.8248813954099418  0.5552041098377798  0.34004573636587554  1.0000
  C   C2        1.0  0.734843132963985  0.5456822627069526  0.26384140115998056  1.0000
  C   C3        1.0  0.7345954688169353  0.5271137565028461  0.11523921153636119  1.0000
  C   C4        1.0  0.6471303528441776  0.5178676680567864  0.04123500362530507  1.0000
  C   C5        1.0  0.5597301821846189  0.5271154771560573  0.11523895350952816  1.0000
  C   C6        1.0  0.5596128899896023  0.5456832345735831  0.26384121188018694  1.0000
  C   C7        1.0  0.647260671946951  0.5549654287583501  0.33813117264586756  1.0000
  C   C8        1.0  0.4696415729137642  0.5552050115852022  0.34004549085445057  1.0000
  N   N2        1.0  0.3973139395239689  0.5628597448278738  0.4013095516064331  1.0000
  H   H1        1.0  0.801865293364629  0.5198069234134026  0.056765819303883795  1.0000
  H   H2        1.0  0.6470799491506166  0.5035245550056073  0.9264462048063159  1.0000
  H   H3        1.0  0.6473111715499863  0.5693374768741786  0.4531533459787569  1.0000
  C   C9        1.0  0.14984164530439606  0.13917851547183013  0.4037224131586652  1.0000
  C   C10       1.0  0.20046050085915135  0.22012592427193578  0.2946844171921017  1.0000
  C   C11       1.0  0.24279811968701814  0.15281556639342656  0.18010525481397166  1.0000
  C   C12       1.0  0.2349461401905524  0.0035769570568244856  0.17308825664717564  1.0000
  C   C13       1.0  0.1864330966655494  0.9211791466006949  0.28147851110641975  1.0000
  C   C14       1.0  0.14474444349547522  0.9865296829570549  0.3989093082462829  1.0000
  C   C15       1.0  0.29342587176004487  0.2374798548002333  0.06857421628992943  1.0000
  C   C16       1.0  0.3358141005890145  0.3083888541083902  0.9751994908614482  1.0000
  C   C17       1.0  0.3854487492377371  0.3914282752766902  0.8658617596574048  1.0000
  C   C18       1.0  0.4278288049500258  0.46233197377141205  0.7725049335074701  1.0000
  H   H4        1.0  0.10434703451420768  0.4038209706331837  0.6325889748682441  1.0000
  H   H5        1.0  0.20509904207553342  0.33659684913770094  0.2969109325525774  1.0000
  H   H6        1.0  0.2671904386716686  0.9505335933551246  0.08442805887219706  1.0000
  H   H7        1.0  0.18347519176215088  0.8051160440426799  0.27525612387254683  1.0000
  H   H8        1.0  0.0824344098759391  0.8595280785753575  0.7413430668242029  1.0000
  H   H9        1.0  0.46504202922623544  0.5245914423557712  0.6905299293653577  1.0000
  C   C19       1.0  0.14681377595448142  0.5585634023313526  0.9780887076544214  1.0000
  C   C20       1.0  0.2331165139111313  0.5264297929828088  0.054227990914345936  1.0000
  C   C21       1.0  0.320646976878032  0.5072817224338937  0.9820763666893191  1.0000
  C   C22       1.0  0.3210851615925357  0.5210784346346513  0.8299387729606833  1.0000
  C   C23       1.0  0.23582991614076093  0.5504993900122739  0.7528111784902465  1.0000
  C   C24       1.0  0.14777234716703605  0.5671448167045667  0.8245430041157666  1.0000
  C   C25       1.0  0.41027916142829546  0.4741952754722834  0.07377949431519837  1.0000
  C   C26       1.0  0.4863240205303702  0.3752022839575089  0.014103837430911034  1.0000
  C   C27       1.0  0.5053584463132996  0.5365210185098295  0.017091396308667184  1.0000
  H   H10       1.0  0.23269879755410044  0.5194669457590293  0.17143704994619635  1.0000
  H   H11       1.0  0.3866068241677472  0.5080423044081275  0.7690784823208481  1.0000
  H   H12       1.0  0.003624395160905406  0.6696585905526927  0.5352906135889519  1.0000
  H   H13       1.0  0.40399334834804224  0.4648903150288722  0.19359419831566682  1.0000
  H   H14       1.0  0.4735693653500979  0.33807572742529296  0.9047368893396603  1.0000
  H   H15       1.0  0.5267755269155134  0.30765133801837274  0.09800882701316271  1.0000
  H   H16       1.0  0.5041229730212458  0.5972091619926743  0.9095275272826231  1.0000
  Zn  Zn1       1.0  0.04156683644145743  0.5628557539977531  0.4013179603024317  1.0000
  Zn  Zn2       1.0  0.25301004713973585  0.5628517708166777  0.40131309724827724  1.0000
  C   C28       1.0  0.14762357391090708  0.5597750613909782  0.664577668544426  1.0000
  C   C29       1.0  0.14695560783316777  0.5659342852356755  0.13805352006974636  1.0000
  C   C30       1.0  0.1456964770600342  0.8263040722103656  0.39407589585523306  1.0000
  C   C31       1.0  0.1488826430474859  0.2994035417811609  0.40855537944483045  1.0000
  O   O1        1.0  0.22724484228486985  0.5684002149300345  0.19173736266226693  1.0000
  O   O2        1.0  0.22781484999381596  0.5573050159272406  0.6108897263101818  1.0000
  O   O3        1.0  0.226257614917252  0.7725305780965475  0.3924576225223464  1.0000
  O   O4        1.0  0.2288020050257289  0.3531746619874988  0.4101693583308339  1.0000
  O   O5        1.0  0.0657748064002557  0.772532862829785  0.3924616992139456  1.0000
  O   O6        1.0  0.06733203095816555  0.5573090332984578  0.6108937163099599  1.0000
  O   O7        1.0  0.06676202165354805  0.5684041644571858  0.1917396201709436  1.0000
  O   O8        1.0  0.06831918457490338  0.35317860229073195  0.4101717239528493  1.0000
