data_image0
_chemical_formula_structural       NC9NC5H8C16H10C12NCOCH13Zn2C4O8
_chemical_formula_sum              "N3 C48 H31 O9 Zn2"
_cell_length_a       17.807436237873137
_cell_length_b       10.299148015769433
_cell_length_c       10.299158637457994
_cell_angle_alpha    85.55741753884429
_cell_angle_beta     89.37443015321587
_cell_angle_gamma    88.40369483635645

_space_group_name_H-M_alt    "P 1"
_space_group_IT_number       1

loop_
  _space_group_symop_operation_xyz
  'x, y, z'

loop_
  _atom_site_type_symbol
  _atom_site_label
  _atom_site_symmetry_multiplicity
  _atom_site_fract_x
  _atom_site_fract_y
  _atom_site_fract_z
  _atom_site_occupancy
  N   N1        1.0  0.7078730527464083  0.38733635060824095  0.556523947723319  1.0000
  C   C1        1.0  0.6472826330603544  0.3521399117105313  0.5455146794561103  1.0000
  C   C2        1.0  0.5719148104249308  0.30835941775018  0.5318203450824195  1.0000
  C   C3        1.0  0.5538328393930965  0.23690064388882903  0.426846001669095  1.0000
  C   C4        1.0  0.4806545723643978  0.1942816230116775  0.4134671026715999  1.0000
  C   C5        1.0  0.4245095109635526  0.22274380557858375  0.5050302538788607  1.0000
  C   C6        1.0  0.34673987804719464  0.17756571807529695  0.49089397623281356  1.0000
  C   C7        1.0  0.28457017888242825  0.25933759946332935  0.5167988587124679  1.0000
  C   C8        1.0  0.2112495760011995  0.21651552991107523  0.5034337265084621  1.0000
  C   C9        1.0  0.1480300969106605  0.30097910219068086  0.529701384364589  1.0000
  N   N2        1.0  0.0972146233304784  0.36888197117447774  0.5508198572420251  1.0000
  C   C10       1.0  0.1995150959703145  0.09166357000673339  0.4641384702935123  1.0000
  C   C11       1.0  0.2608274249256587  0.00987783220454097  0.43822520382220964  1.0000
  C   C12       1.0  0.33402857803794  0.05230525671272579  0.4513879607063494  1.0000
  C   C13       1.0  0.443282915151297  0.29469706355783026  0.6102236220908144  1.0000
  C   C14       1.0  0.5165140556702986  0.33712561876283925  0.6234469481510645  1.0000
  H   H1        1.0  0.5962378948120212  0.21438757909055203  0.35514164113169855  1.0000
  H   H2        1.0  0.4677498590085251  0.14056503792385674  0.3305680079094475  1.0000
  H   H3        1.0  0.2930759536200468  0.356820456408834  0.5456352852461883  1.0000
  H   H4        1.0  0.14304726392462677  0.05762105953959297  0.45355776216696864  1.0000
  H   H5        1.0  0.25162364284959976  0.913214700226557  0.4081880027519402  1.0000
  H   H6        1.0  0.3806637266032885  0.9865482587055904  0.43236696197572577  1.0000
  H   H7        1.0  0.4015944246828064  0.3166715093230874  0.683222727321475  1.0000
  H   H8        1.0  0.5299474826001971  0.3920625034496834  0.7053038866158345  1.0000
  C   C15       1.0  0.9024938991857457  0.9967102266143177  0.5538382067645584  1.0000
  C   C16       1.0  0.8853653053991302  0.007073890348337828  0.42061395319296335  1.0000
  C   C17       1.0  0.8767359820241435  0.8951960511439191  0.352901014111231  1.0000
  C   C18       1.0  0.8854656660546123  0.7718171757418905  0.42020788886959615  1.0000
  C   C19       1.0  0.9026009406606886  0.7594977830524021  0.5535167982305049  1.0000
  C   C20       1.0  0.9110108947676316  0.8724651341686667  0.6195111097358221  1.0000
  C   C21       1.0  0.8586161809508359  0.9072051543815866  0.2119658180018005  1.0000
  C   C22       1.0  0.8941756307608424  0.8245045573527736  0.1262263860814794  1.0000
  C   C23       1.0  0.8770956526200369  0.8359335322661309  0.9935839977588944  1.0000
  C   C24       1.0  0.8242809259824727  0.9299710866972116  0.9448793378881692  1.0000
  C   C25       1.0  0.7885847277872806  0.012658028568204747  0.02933682066047827  1.0000
  C   C26       1.0  0.8056111383680326  0.0014728657782652201  0.16200094054351988  1.0000
  C   C27       1.0  0.806724798716965  0.9416122041757541  0.8083111441386905  1.0000
  C   C28       1.0  0.7920217312977655  0.9513615279383286  0.6939372585072294  1.0000
  C   C29       1.0  0.7748046130142693  0.962777855604675  0.5600066043757606  1.0000
  C   C30       1.0  0.7601040133318214  0.9725256917411759  0.4456511905228706  1.0000
  H   H9        1.0  0.9090436516941578  0.320200353802798  0.6050966216067066  1.0000
  H   H10       1.0  0.879707515949708  0.1023790987992965  0.36878628843263206  1.0000
  H   H11       1.0  0.8778686779921859  0.6852658909497433  0.3689032203838136  1.0000
  H   H12       1.0  0.924220421306793  0.8637555880522886  0.7222712840470018  1.0000
  H   H13       1.0  0.9344776044156116  0.5289611277065769  0.8053154320658231  1.0000
  H   H14       1.0  0.9359019964020945  0.7521347303866905  0.1614650943376743  1.0000
  H   H15       1.0  0.9052142388190861  0.7716552123630169  0.9289966085345283  1.0000
  H   H16       1.0  0.7474561570129741  0.08556338995580436  0.9927194492658648  1.0000
  H   H17       1.0  0.7766169344844911  0.06540259891849473  0.2257983633492462  1.0000
  H   H18       1.0  0.7471957033786963  0.981085112533305  0.3452374938465992  1.0000
  C   C31       1.0  0.9026178380672585  0.3779626938688545  0.17230342281567723  1.0000
  C   C32       1.0  0.9043825360193695  0.5145939213640685  0.16090669523954726  1.0000
  C   C33       1.0  0.9052183188503444  0.5840105071176693  0.03797156926998757  1.0000
  C   C34       1.0  0.9042387716081499  0.5149606359585361  0.9255971719559124  1.0000
  C   C35       1.0  0.9024770109570789  0.37824535322234865  0.9350515855366758  1.0000
  C   C36       1.0  0.9016806764359026  0.31058685606018094  0.05879204150948225  1.0000
  C   C37       1.0  0.9070860530407884  0.7285495371974442  0.026888755340989997  1.0000
  C   C38       1.0  0.9532058968501668  0.7942031734706338  0.10875201115544164  1.0000
  C   C39       1.0  0.9549696558055614  0.9302217335704698  0.0981915517778482  1.0000
  C   C40       1.0  0.9111249744379609  0.0032913198292723327  0.004654572699212215  1.0000
  C   C41       1.0  0.864110515985075  0.9380405059243822  0.9245873516744392  1.0000
  C   C42       1.0  0.862377604165248  0.8020483955241564  0.9348863605643483  1.0000
  N   N3        1.0  0.9108577346189166  0.14336185655979738  0.9933643778451242  1.0000
  C   C43       1.0  0.9752344789048822  0.21930507016796508  0.015619666887138008  1.0000
  O   O1        1.0  0.0400002273729767  0.16681838123134307  0.02320767218828368  1.0000
  C   C44       1.0  0.9664422810026111  0.36354917600619086  0.02029072422423628  1.0000
  H   H19       1.0  0.9019625961457689  0.32540550187530637  0.504162521037302  1.0000
  H   H20       1.0  0.9040615416595721  0.5674308698678658  0.2478401027204582  1.0000
  H   H21       1.0  0.9058749185655735  0.5679011900474663  0.8305793605067713  1.0000
  H   H22       1.0  0.9003220954160274  0.20519987622249602  0.06686766893842955  1.0000
  H   H23       1.0  0.8996078565452632  0.12016541276163671  0.7455974049760492  1.0000
  H   H24       1.0  0.988359786297909  0.7403054396202795  0.18045143188702517  1.0000
  H   H25       1.0  0.9896432095304882  0.97792201635782  0.16469439167639943  1.0000
  H   H26       1.0  0.8289781399367823  0.9928123017115069  0.8534565393753928  1.0000
  H   H27       1.0  0.8252428306195428  0.7544179878305362  0.8721038402691597  1.0000
  H   H28       1.0  0.8621654531590028  0.1931288445424868  0.9591111090380423  1.0000
  H   H29       1.0  0.9136198728468263  0.3877694241235727  0.07247329440205008  1.0000
  H   H30       1.0  0.9644289966304769  0.41031590858891587  0.9195818534203896  1.0000
  H   H31       1.0  0.014376941094590643  0.40204823043738447  0.07222612121169925  1.0000
  Zn  Zn1       1.0  0.8202286167100923  0.38200735256591406  0.5548853827797264  1.0000
  Zn  Zn2       1.0  0.9848590377125528  0.3742003861701082  0.5524691034031035  1.0000
  C   C45       1.0  0.9025012259158047  0.37301790047092553  0.7908780300873985  1.0000
  C   C46       1.0  0.9025882264723645  0.3831913918083887  0.31647655648734624  1.0000
  C   C47       1.0  0.9025778024206144  0.6153129739898359  0.5484023441346936  1.0000
  C   C48       1.0  0.9025115935589259  0.14089476055435377  0.5589523131616811  1.0000
  O   O2        1.0  0.9650546745472066  0.3819778213557285  0.3639454141422258  1.0000
  O   O3        1.0  0.9649854580247106  0.3683051841323295  0.7415748988563604  1.0000
  O   O4        1.0  0.9650464520598807  0.5639615606773184  0.5457740786860761  1.0000
  O   O5        1.0  0.964993624354109  0.18632145672959535  0.559746137757124  1.0000
  O   O6        1.0  0.8400939738882541  0.5698862846719719  0.5476083492434318  1.0000
  O   O7        1.0  0.8400329800814321  0.374231468527654  0.7434090995098117  1.0000
  O   O8        1.0  0.8401021969358322  0.3879040599105927  0.36577805339224034  1.0000
  O   O9        1.0  0.8400411467203809  0.19224768603114992  0.5615788743802501  1.0000
