data_image0
_chemical_formula_structural       NC10NC3NH7C12NCOCH13C12ClH9Zn2C4O8
_chemical_formula_sum              "N4 C43 H29 O9 Cl1 Zn2"
_cell_length_a       19.210446455230148
_cell_length_b       10.299155265289647
_cell_length_c       10.299771906710086
_cell_angle_alpha    85.5278422735101
_cell_angle_beta     89.99986541556282
_cell_angle_gamma    89.9251083167036

_space_group_name_H-M_alt    "P 1"
_space_group_IT_number       1

loop_
  _space_group_symop_operation_xyz
  'x, y, z'

loop_
  _atom_site_type_symbol
  _atom_site_label
  _atom_site_symmetry_multiplicity
  _atom_site_fract_x
  _atom_site_fract_y
  _atom_site_fract_z
  _atom_site_occupancy
  N   N1        1.0  0.6550507972819051  0.42070455166295484  0.5669699584218484  1.0000
  C   C1        1.0  0.5948216387794943  0.42291212746507467  0.5672005560684541  1.0000
  C   C2        1.0  0.5200164439425886  0.42564911727574933  0.5674862372614176  1.0000
  C   C3        1.0  0.4843737352760861  0.5418819052508033  0.5825690218598254  1.0000
  C   C4        1.0  0.4117082062866463  0.5420334673842689  0.5825163869468502  1.0000
  C   C5        1.0  0.3748494944232085  0.42635809976029293  0.5675725435470833  1.0000
  C   C6        1.0  0.2975277413946758  0.42500158950100597  0.5674222899072778  1.0000
  C   C7        1.0  0.2597367680602821  0.5285975564107595  0.5040349631013379  1.0000
  C   C8        1.0  0.18695880661793743  0.5271952756715115  0.5039262384450445  1.0000
  C   C9        1.0  0.150970327494402  0.4224545685469061  0.5671537798504345  1.0000
  C   C10       1.0  0.0760411694660047  0.42115245135440516  0.5670172759005481  1.0000
  N   N2        1.0  0.0158036082337528  0.4201055049096383  0.5669075616116053  1.0000
  C   C11       1.0  0.18803760427733002  0.31898430919924636  0.6305160669892342  1.0000
  C   C12       1.0  0.2608174994210314  0.3201122903972604  0.6306751056041149  1.0000
  C   C13       1.0  0.4131015694366006  0.3119455876272865  0.5527774690820717  1.0000
  N   N3        1.0  0.48387082663739256  0.31439065650825526  0.5529424222808494  1.0000
  H   H1        1.0  0.5124500986358875  0.6313171227441974  0.5945951264736429  1.0000
  H   H2        1.0  0.3844147356910127  0.6320501580339677  0.5959370643391297  1.0000
  H   H3        1.0  0.2864347700706133  0.6098713002937686  0.45302430501271673  1.0000
  H   H4        1.0  0.1587835037181926  0.6076408588616307  0.4542461745184141  1.0000
  H   H5        1.0  0.1606998440351001  0.2375753026412846  0.6800968866215406  1.0000
  H   H6        1.0  0.288348054428906  0.23978546041716894  0.6817928602330513  1.0000
  H   H7        1.0  0.3868610914786768  0.2210659393210657  0.5393107597807454  1.0000
  C   C14       1.0  0.8355082853176576  0.03900738934300207  0.567057452695716  1.0000
  C   C15       1.0  0.8236057740194389  0.04877756446888659  0.4321348637338427  1.0000
  C   C16       1.0  0.8175035233520072  0.9365937217372847  0.363608557119427  1.0000
  C   C17       1.0  0.8234393077397381  0.813518186094435  0.4318271089402559  1.0000
  C   C18       1.0  0.8353527960301665  0.8017927285001287  0.5668312862434881  1.0000
  C   C19       1.0  0.8413170378136864  0.9150549940761623  0.6336153154387625  1.0000
  C   C20       1.0  0.8049129629080696  0.9479030551804533  0.2208767496647932  1.0000
  C   C21       1.0  0.8402079850844661  0.0419857195172153  0.1394533735024288  1.0000
  C   C22       1.0  0.8283651658538981  0.05249766064368533  0.005133230760446366  1.0000
  C   C23       1.0  0.7814233400213617  0.9682540704881522  0.9493910113572754  1.0000
  C   C24       1.0  0.745278034781608  0.8759891289930879  0.030746375401979442  1.0000
  C   C25       1.0  0.7571462036721968  0.8652211402763104  0.1650291784431066  1.0000
  N   N4        1.0  0.7673401354593402  0.9785697458442113  0.8118329408901342  1.0000
  C   C26       1.0  0.8181583931386119  0.015458499531124659  0.7136068159638227  1.0000
  O   O1        1.0  0.8820198220220281  0.017876387161441583  0.7414540752320691  1.0000
  C   C27       1.0  0.7959395262909374  0.04199379143058724  0.5750713238563918  1.0000
  H   H8        1.0  0.8401081065190501  0.36272551520843144  0.618948753644347  1.0000
  H   H9        1.0  0.8180939014334382  0.14385112602078798  0.380326386462915  1.0000
  H   H10       1.0  0.819690223577327  0.7267449473168838  0.3791995189730901  1.0000
  H   H11       1.0  0.8505000368301578  0.9068041850003316  0.7376834820048775  1.0000
  H   H12       1.0  0.8582556897658574  0.5723775801916454  0.8215137190229469  1.0000
  H   H13       1.0  0.8773818126345857  0.10695741441674689  0.17953910314770805  1.0000
  H   H14       1.0  0.8550644070687076  0.12793117172788168  0.9455484171082321  1.0000
  H   H15       1.0  0.7080373290640551  0.8117219186350765  0.9897936248602109  1.0000
  H   H16       1.0  0.7282102883058739  0.7934073807661535  0.22544732303898976  1.0000
  H   H17       1.0  0.7183092569875698  0.9497941641342025  0.780768102320049  1.0000
  H   H18       1.0  0.7456913248550533  0.09552455543268358  0.5706263926834896  1.0000
  H   H19       1.0  0.78949426503407  0.9484117176163247  0.529848551142289  1.0000
  H   H20       1.0  0.8355619424723505  0.10203992027796607  0.5196694034708438  1.0000
  C   C28       1.0  0.8353973757864717  0.4205064219357393  0.1855750837065444  1.0000
  C   C29       1.0  0.8985214017330317  0.4892898482847596  0.17921604815331582  1.0000
  C   C30       1.0  0.9305408259356086  0.5240347452161926  0.05886356243155899  1.0000
  C   C31       1.0  0.8985885939443571  0.48907455799019894  0.9439463240614585  1.0000
  C   C32       1.0  0.8354636724799174  0.42029369321494525  0.9483137030498159  1.0000
  C   C33       1.0  0.8042218806949671  0.38639396704477585  0.06959593096333383  1.0000
  C   C34       1.0  0.9973212444189645  0.5968004780883696  0.053189980855562924  1.0000
  C   C35       1.0  0.00830183028742781  0.6997952930271658  0.13295963880341444  1.0000
  C   C36       1.0  0.07118851073833476  0.7681834643625665  0.12743218553215474  1.0000
  C   C37       1.0  0.1238081329271623  0.7346227085844614  0.04244494312875659  1.0000
  C   C38       1.0  0.11349191110076795  0.6324863233970603  0.96280371058355  1.0000
  C   C39       1.0  0.05066766463839034  0.5638977111591499  0.9679555812281198  1.0000
  Cl  Cl1       1.0  0.2026672184078418  0.8205486210750441  0.03574618184741607  1.0000
  H   H21       1.0  0.8113255843518151  0.3943538325835656  0.5154471191566434  1.0000
  H   H22       1.0  0.9234212926301717  0.5144499531850448  0.26818507403220826  1.0000
  H   H23       1.0  0.9225709511767991  0.5171779908531844  0.8508242650928719  1.0000
  H   H24       1.0  0.7555241770887586  0.33333184052058473  0.07373343142586752  1.0000
  H   H25       1.0  0.8114234490154099  0.3940390742519409  0.6225280107415982  1.0000
  H   H26       1.0  0.9679419315298821  0.7285176437125815  0.19833206005367401  1.0000
  H   H27       1.0  0.07886924735619893  0.8474507620892504  0.18904096712843144  1.0000
  H   H28       1.0  0.15416903716728614  0.6059107580630259  0.8970870226637024  1.0000
  H   H29       1.0  0.04414241441409916  0.4840881753291999  0.9065662950340805  1.0000
  Zn  Zn1       1.0  0.7591562663515963  0.42052821330382617  0.5669594521520229  1.0000
  Zn  Zn2       1.0  0.9116981263063366  0.42027125695725814  0.5669287068069733  1.0000
  C   C40       1.0  0.835450649465902  0.41515981215452474  0.8041412797947443  1.0000
  C   C41       1.0  0.8354054086213804  0.42564129400807316  0.3297470058092365  1.0000
  C   C42       1.0  0.8353781346790423  0.6576114842205594  0.5616988730754147  1.0000
  C   C43       1.0  0.8354778716805149  0.18318806159028522  0.5721894822403897  1.0000
  O   O2        1.0  0.8932969465435873  0.42726142422056945  0.3781207538753637  1.0000
  O   O3        1.0  0.8933348538382225  0.4133436783285229  0.7557438231672073  1.0000
  O   O4        1.0  0.8932755169788853  0.6091264706795823  0.5599698641780029  1.0000
  O   O5        1.0  0.8933562313403617  0.23147864127527584  0.5738946154975402  1.0000
  O   O6        1.0  0.7774981092625202  0.6093208290749113  0.5599935434651164  1.0000
  O   O7        1.0  0.777557445794531  0.4135395971647072  0.7557674327461578  1.0000
  O   O8        1.0  0.7775195384196846  0.4274572982328426  0.37814280206548606  1.0000
  O   O9        1.0  0.7775788232239709  0.2316745059708858  0.5739167610583511  1.0000
