data_image0
_chemical_formula_structural       NC9NC5H8C7NH5C8H10Zn2C4O8
_chemical_formula_sum              "N3 C33 H23 Zn2 O8"
_cell_length_a       17.807436237873137
_cell_length_b       10.302819778424748
_cell_length_c       9.275657083861812
_cell_angle_alpha    85.85420737229721
_cell_angle_beta     88.90332225934053
_cell_angle_gamma    88.39001009685678

_space_group_name_H-M_alt    "P 1"
_space_group_IT_number       1

loop_
  _space_group_symop_operation_xyz
  'x, y, z'

loop_
  _atom_site_type_symbol
  _atom_site_label
  _atom_site_symmetry_multiplicity
  _atom_site_fract_x
  _atom_site_fract_y
  _atom_site_fract_z
  _atom_site_occupancy
  N   N1        1.0  0.7146525823100917  0.37959240988763  0.3982931334699517  1.0000
  C   C1        1.0  0.6541203865824949  0.34435430585486904  0.38605563521198966  1.0000
  C   C2        1.0  0.5788249882218623  0.30052198496966276  0.3708335161125426  1.0000
  C   C3        1.0  0.5612605834362586  0.22856554603034349  0.254271471041299  1.0000
  C   C4        1.0  0.4881530506748311  0.1858958338515715  0.23940004991693503  1.0000
  C   C5        1.0  0.4315613671365154  0.21480497223541817  0.34105464957354736  1.0000
  C   C6        1.0  0.3538664935929365  0.16957337943918493  0.3253412897183349  1.0000
  C   C7        1.0  0.2915599419136006  0.2514436965306668  0.35413571647416303  1.0000
  C   C8        1.0  0.2183100356646926  0.20857108167063232  0.33927948242385697  1.0000
  C   C9        1.0  0.1549515673866214  0.2931338804124941  0.36847787366889373  1.0000
  N   N2        1.0  0.1040243508311532  0.36111652607270717  0.39195257376410064  1.0000
  C   C10       1.0  0.2067832635167001  0.08357011261272371  0.29560068110270565  1.0000
  C   C11       1.0  0.2682324874832591  0.0016859024570543566  0.2667969410669988  1.0000
  C   C12       1.0  0.34136397832677134  0.04416301047233251  0.2814283402048743  1.0000
  C   C13       1.0  0.44981607602580714  0.28725680239013873  0.45786005831335985  1.0000
  C   C14       1.0  0.5229772613541814  0.32973534348983224  0.4725586938575832  1.0000
  H   H1        1.0  0.6040154266623391  0.20570254910223484  0.17466425393424245  1.0000
  H   H2        1.0  0.4756566770862472  0.13178520679272654  0.14735132290504227  1.0000
  H   H3        1.0  0.2999124578540984  0.34903367473676816  0.3861917055895785  1.0000
  H   H4        1.0  0.15037141970790688  0.04948764107146952  0.2838394534209654  1.0000
  H   H5        1.0  0.2591876514443627  0.9049093343851385  0.23340839460547566  1.0000
  H   H6        1.0  0.3881004262394189  0.9783359066556077  0.2602829820618269  1.0000
  H   H7        1.0  0.4077716162863875  0.30958785809385114  0.5389042775048245  1.0000
  H   H8        1.0  0.5360072120488091  0.38506059609682364  0.5634511278942995  1.0000
  C   C15       1.0  0.9093420213145947  0.9891013115273702  0.3951290242978019  1.0000
  C   C16       1.0  0.8649168562552781  0.9818939326099352  0.5220865980970892  1.0000
  C   C17       1.0  0.8428148991199164  0.8612056143084171  0.5852491920620166  1.0000
  C   C18       1.0  0.8649169168718716  0.7465929199448287  0.5220866018341805  1.0000
  C   C19       1.0  0.9093420335050791  0.7515973383292958  0.3951290669450649  1.0000
  C   C20       1.0  0.9313225183039353  0.8733704257047821  0.3323136258145507  1.0000
  C   C21       1.0  0.7972726648052679  0.8549460998024238  0.7153993597396653  1.0000
  N   N3        1.0  0.7606716113460638  0.8499155281414681  0.8199974032918951  1.0000
  H   H9        1.0  0.9261691927543297  0.3191537191239111  0.3470399679620335  1.0000
  H   H10       1.0  0.8473960674503355  0.06991009376306079  0.5721570176362263  1.0000
  H   H11       1.0  0.8473961613752804  0.6537604850236016  0.5721569818606094  1.0000
  H   H12       1.0  0.9655816353946555  0.8780790578991311  0.23440851560490628  1.0000
  H   H13       1.0  0.9261692611841809  0.4261706357964987  0.34704007641017975  1.0000
  C   C22       1.0  0.9112558305800931  0.36830139418039876  0.9717780085856966  1.0000
  C   C23       1.0  0.9501752109054369  0.4654227089151224  0.03608463299540497  1.0000
  C   C24       1.0  0.9824604334546468  0.5684155140135019  0.9518203217946261  1.0000
  C   C25       1.0  0.9769413590443938  0.5733483539638511  0.8012713079486549  1.0000
  C   C26       1.0  0.9396447366656273  0.4767313166939901  0.7354856548071984  1.0000
  C   C27       1.0  0.9074282179934473  0.37239728842383313  0.8184801240174159  1.0000
  C   C28       1.0  0.02485341757538095  0.6705151878669751  0.02232990052408933  1.0000
  C   C29       1.0  0.1073797419164717  0.6295523748166536  0.03883065643916005  1.0000
  H   H14       1.0  0.8775309518044702  0.16278500443824284  0.270154224110736  1.0000
  H   H15       1.0  0.9540598795645737  0.462831391273969  0.1527464009697718  1.0000
  H   H16       1.0  0.002270668711214394  0.6514973300545575  0.7344726195395039  1.0000
  H   H17       1.0  0.9377113053460482  0.4818825686511039  0.61854281871191  1.0000
  H   H18       1.0  0.8187186268100797  0.22697776858177288  0.5520902643964285  1.0000
  H   H19       1.0  0.02073876400742725  0.7649623067723068  0.9565566000978256  1.0000
  H   H20       1.0  0.9998640933020854  0.6864047291356032  0.13061332129940384  1.0000
  H   H21       1.0  0.11272834545893384  0.5369400228227079  0.10749173999646255  1.0000
  H   H22       1.0  0.133819809980249  0.6163490111983894  0.9312252936649221  1.0000
  H   H23       1.0  0.13759406163232477  0.7060535193921436  0.09090526030775825  1.0000
  Zn  Zn1       1.0  0.8270168249281178  0.37425724501963503  0.3964717225030483  1.0000
  Zn  Zn2       1.0  0.9916600364379036  0.3664411653170209  0.39378583665270295  1.0000
  C   C30       1.0  0.9081500443233572  0.36645106114266157  0.6584352982142088  1.0000
  C   C31       1.0  0.9105286143017762  0.37424890264879185  0.13182237311017797  1.0000
  C   C32       1.0  0.909364132090982  0.6074417891284487  0.3893842641669705  1.0000
  C   C33       1.0  0.909314470005455  0.1332566178734547  0.40087348493441316  1.0000
  O   O1        1.0  0.9727657945981553  0.3732731152889004  0.1845154441849075  1.0000
  O   O2        1.0  0.9708732538543541  0.3614936434276965  0.6037032869261385  1.0000
  O   O3        1.0  0.9718527960273875  0.5560967512567767  0.3864426870929666  1.0000
  O   O4        1.0  0.9717861967321968  0.1786700188914147  0.40177593684065416  1.0000
  O   O5        1.0  0.8468906084492109  0.5620283941138617  0.38848162322407465  1.0000
  O   O6        1.0  0.8459110666202603  0.36742684574295326  0.6057421461892278  1.0000
  O   O7        1.0  0.8478036152495295  0.3792062639748371  0.18655257016325058  1.0000
  O   O8        1.0  0.8468240168918827  0.18460315881437794  0.4038131709054009  1.0000
