data_image0
_chemical_formula_structural       NC8NH4C6NH7C6ClH3Zn2C4O8
_chemical_formula_sum              "N3 C24 H14 Cl1 Zn2 O8"
_cell_length_a       13.859017124695912
_cell_length_b       9.274771166103582
_cell_length_c       9.276548810779733
_cell_angle_alpha    85.98017888068892
_cell_angle_beta     89.72475413929395
_cell_angle_gamma    90.59707951677755

_space_group_name_H-M_alt    "P 1"
_space_group_IT_number       1

loop_
  _space_group_symop_operation_xyz
  'x, y, z'

loop_
  _atom_site_type_symbol
  _atom_site_label
  _atom_site_symmetry_multiplicity
  _atom_site_fract_x
  _atom_site_fract_y
  _atom_site_fract_z
  _atom_site_occupancy
  N   N1        1.0  0.9246174195809853  0.5641187381414792  0.4076934216757673  1.0000
  C   C1        1.0  0.8522802890708046  0.5407417938045076  0.3515887310623049  1.0000
  C   C2        1.0  0.7622971952421397  0.5116642868104331  0.281801705808445  1.0000
  C   C3        1.0  0.674660932745987  0.5400118990573292  0.3498352738872168  1.0000
  C   C4        1.0  0.5870668857652468  0.5116655076166858  0.2818011244395913  1.0000
  C   C5        1.0  0.5872915237336063  0.45496381161204785  0.14571252166426985  1.0000
  C   C6        1.0  0.6747451437439472  0.4267251555293861  0.07794083329390178  1.0000
  C   C7        1.0  0.7621568624937176  0.4549614723918469  0.1457137039607106  1.0000
  C   C8        1.0  0.49704045839014577  0.5407427160164042  0.3515882314991759  1.0000
  N   N2        1.0  0.4246685481020566  0.564119058850831  0.40769320514066903  1.0000
  H   H1        1.0  0.6746282664730642  0.5839012082248916  0.4551711113068535  1.0000
  H   H2        1.0  0.5200127010340667  0.4326531519732948  0.09216265232231002  1.0000
  H   H3        1.0  0.6747778151337356  0.38292548069688953  0.9728183173624091  1.0000
  H   H4        1.0  0.8294688797260733  0.4326487206824732  0.09216483739153918  1.0000
  C   C9        1.0  0.1716828080688293  0.14052953240598784  0.40847873326926204  1.0000
  C   C10       1.0  0.14988544699879935  0.22266143962983498  0.2796211214339863  1.0000
  C   C11       1.0  0.13709947746163986  0.1564277495861497  0.14994596029515897  1.0000
  C   C12       1.0  0.14616441273721703  0.006676101391337899  0.14818916162697215  1.0000
  C   C13       1.0  0.16618310407050418  0.9232085986390326  0.27527664720805456  1.0000
  C   C14       1.0  0.17761228820097805  0.9876973436847727  0.40692042537192497  1.0000
  N   N3        1.0  0.11589940076574834  0.2416462211778954  0.01967212830944343  1.0000
  H   H5        1.0  0.2792795973736366  0.2230699860687582  0.7238329312489956  1.0000
  H   H6        1.0  0.14502209393925036  0.3392490892313855  0.279067616841799  1.0000
  H   H7        1.0  0.1367835774878967  0.9542776763187136  0.04841720791027649  1.0000
  H   H8        1.0  0.17044838099037807  0.8070068972361446  0.2711498560646024  1.0000
  H   H9        1.0  0.24616549972676283  0.6925905416075707  0.6214729385531933  1.0000
  H   H10       1.0  0.10925157220817328  0.35371969029692774  0.019625329414294065  1.0000
  H   H11       1.0  0.10660193649616612  0.1932866458780511  0.9222698772591774  1.0000
  C   C15       1.0  0.17598051515794055  0.5602489593477729  0.984557318575197  1.0000
  C   C16       1.0  0.2573033179377797  0.6150816868828781  0.053562895396567445  1.0000
  C   C17       1.0  0.33328964264322547  0.6806653830610065  0.9732097543192705  1.0000
  C   C18       1.0  0.32909369300284874  0.6925202576088094  0.8227484233186662  1.0000
  C   C19       1.0  0.24986621998723504  0.6366757154531537  0.7520956005448114  1.0000
  C   C20       1.0  0.17331454168467464  0.5679778208026969  0.8308418399153799  1.0000
  Cl  Cl1       1.0  0.43338914549702645  0.7501208116317157  0.06158641999066174  1.0000
  H   H12       1.0  0.05777920376216206  0.39879566052951404  0.2778564943300028  1.0000
  H   H13       1.0  0.3877096832622815  0.743834358309609  0.7601647541897064  1.0000
  H   H14       1.0  0.017949783992671886  0.515093641857258  0.5543430819805941  1.0000
  Zn  Zn1       1.0  0.06892132339997947  0.5641150555343231  0.40770169184361715  1.0000
  Zn  Zn2       1.0  0.28036451705986853  0.5641110826328427  0.40769677502885765  1.0000
  C   C21       1.0  0.17377611372345061  0.5607705021173883  0.6708864896763759  1.0000
  C   C22       1.0  0.17551204798264244  0.5674574573255893  0.14451211522304158  1.0000
  C   C23       1.0  0.17650460046868433  0.8275121225654611  0.40147291863694723  1.0000
  C   C24       1.0  0.17278347671478778  0.30071410454022174  0.4139257662747198  1.0000
  O   O1        1.0  0.2555963721219565  0.5698688944187622  0.19819255185333784  1.0000
  O   O2        1.0  0.2541722747998181  0.5583549577102582  0.6172019085037819  1.0000
  O   O3        1.0  0.2563744759381048  0.7737522033341901  0.3996485410099565  1.0000
  O   O4        1.0  0.25339409924500056  0.3544716581281988  0.4157458112892363  1.0000
  O   O5        1.0  0.09589166905969737  0.7737544800418239  0.39965265557733376  1.0000
  O   O6        1.0  0.09368948028888102  0.5583589667580442  0.6172059430530054  1.0000
  O   O7        1.0  0.09511358278083537  0.5698728373785213  0.19819485406595794  1.0000
  O   O8        1.0  0.09291130948739879  0.35447559175744675  0.4157482215538801  1.0000
