data_image0
_chemical_formula_structural       NC8NC6H8C7NC2NH8C8H6Zn2C4O8
_chemical_formula_sum              "N4 C35 H22 Zn2 O8"
_cell_length_a       17.457602349358154
_cell_length_b       9.273995741505848
_cell_length_c       9.275144076552243
_cell_angle_alpha    86.09759500334717
_cell_angle_beta     93.32514331016303
_cell_angle_gamma    92.2639659462817

_space_group_name_H-M_alt    "P 1"
_space_group_IT_number       1

loop_
  _space_group_symop_operation_xyz
  'x, y, z'

loop_
  _atom_site_type_symbol
  _atom_site_label
  _atom_site_symmetry_multiplicity
  _atom_site_fract_x
  _atom_site_fract_y
  _atom_site_fract_z
  _atom_site_occupancy
  N   N1        1.0  0.7246185273882229  0.6027908446534214  0.47974997060386215  1.0000
  C   C1        1.0  0.6632127748434734  0.551694638240669  0.46780993854217595  1.0000
  C   C2        1.0  0.586821515762061  0.48813738078687113  0.4529671527208803  1.0000
  C   C3        1.0  0.5288934482695719  0.5333442871462963  0.5362644898152156  1.0000
  C   C4        1.0  0.45395598933879555  0.4721447947766774  0.5221109978947941  1.0000
  C   C5        1.0  0.3924717097266781  0.5198785313400884  0.6103256117216662  1.0000
  C   C6        1.0  0.31776969554716883  0.5399478968056586  0.5484691374057025  1.0000
  C   C7        1.0  0.2598410321326951  0.5849513677857631  0.6318857310125765  1.0000
  C   C8        1.0  0.18369391915391672  0.6056760277984965  0.5675712995719908  1.0000
  N   N2        1.0  0.12248451906432911  0.6223315693823257  0.5158626432000585  1.0000
  C   C9        1.0  0.27612611952411953  0.6101595967782407  0.7777242477850679  1.0000
  C   C10       1.0  0.350047630363641  0.5905253890367761  0.8400123910454269  1.0000
  C   C11       1.0  0.40796796462841695  0.5457255623710838  0.757104634079866  1.0000
  C   C12       1.0  0.4382243025911118  0.36497452870185954  0.4230668518511749  1.0000
  C   C13       1.0  0.4961442465428686  0.3200803554090452  0.3402145912490908  1.0000
  C   C14       1.0  0.5703002485207394  0.3814090528549894  0.35497910212028905  1.0000
  H   H1        1.0  0.5420098305130652  0.6173977464491787  0.610498951360813  1.0000
  H   H2        1.0  0.3048463299282292  0.5225064053900768  0.4351348944462079  1.0000
  H   H3        1.0  0.2317328985518989  0.6449317024749339  0.8431562159716975  1.0000
  H   H4        1.0  0.3624648957195521  0.6096940820117582  0.9529373574673826  1.0000
  H   H5        1.0  0.4645837045307217  0.5294408575686513  0.8082498040219621  1.0000
  H   H6        1.0  0.3814152123783207  0.3145330103419981  0.41108867743871924  1.0000
  H   H7        1.0  0.48354267651663024  0.23725745820583355  0.26465326724073  1.0000
  H   H8        1.0  0.6146907121743582  0.34567500116908983  0.2901117778010902  1.0000
  C   C15       1.0  0.921254651178082  0.18895204141218216  0.49654484390100007  1.0000
  C   C16       1.0  0.9341735338478476  0.27191212278915566  0.3673613469153598  1.0000
  C   C17       1.0  0.9539852028177555  0.20689784654656718  0.24421001990017557  1.0000
  C   C18       1.0  0.9617114786990226  0.05684407518307988  0.2467487369071124  1.0000
  C   C19       1.0  0.9471753695161766  0.9725186273890277  0.3745913603212012  1.0000
  C   C20       1.0  0.925855726067219  0.036159637096853985  0.499080844329245  1.0000
  C   C21       1.0  0.9836376457401211  0.9899878555857653  0.11479060481595106  1.0000
  N   N3        1.0  0.9858710707206769  0.06346709366417125  0.9840139205685273  1.0000
  C   C22       1.0  0.008508985498474132  0.9660581312051643  0.8954126042569835  1.0000
  C   C23       1.0  0.019792347813368364  0.8362324210937543  0.9729582377331663  1.0000
  N   N4        1.0  0.00418370275938716  0.8514382765712809  0.11091061946951641  1.0000
  H   H9        1.0  0.8598883150944401  0.4519890550063674  0.6984277748477512  1.0000
  H   H10       1.0  0.9308130824717995  0.38855847922195136  0.3624072976839614  1.0000
  H   H11       1.0  0.9643993567772643  0.2749252154232009  0.14723622740935086  1.0000
  H   H12       1.0  0.9497835674003047  0.8560985781809979  0.3768256604839928  1.0000
  H   H13       1.0  0.9278909128761638  0.7399033789132109  0.7389707777389032  1.0000
  H   H14       1.0  0.01650864634700123  0.9886698182093883  0.7812157209197836  1.0000
  H   H15       1.0  0.03846377840102422  0.7377394441452721  0.9319223625283861  1.0000
  H   H16       1.0  0.008718369585380751  0.7717088587120178  0.19557919433833004  1.0000
  C   C24       1.0  0.921730823757293  0.6095151736636515  0.074354386757842  1.0000
  C   C25       1.0  0.872186213015957  0.7011335771886111  0.13606638589891262  1.0000
  C   C26       1.0  0.8288406476657697  0.8002017985920991  0.04945002804687303  1.0000
  C   C27       1.0  0.834256979894507  0.809683536907174  0.8995342169565443  1.0000
  C   C28       1.0  0.8822072048728804  0.7178810690959969  0.835921404683174  1.0000
  C   C29       1.0  0.9253795532645617  0.6155965962068275  0.9212713746881374  1.0000
  C   C30       1.0  0.7898179055176936  0.9126624074457975  0.8104586066378935  1.0000
  C   C31       1.0  0.7526136395923829  0.9988800069866688  0.7358654360579586  1.0000
  H   H17       1.0  0.08030121887823705  0.4279900039976665  0.2068777130660049  1.0000
  H   H18       1.0  0.8683328905361848  0.6985200335857754  0.25238069569004257  1.0000
  H   H19       1.0  0.7916189018361319  0.8704813520675552  0.09969030228500997  1.0000
  H   H20       1.0  0.8844407411165561  0.7239833244204873  0.7190545108022954  1.0000
  H   H21       1.0  0.030455899761434157  0.4887140407050602  0.6606643100037283  1.0000
  H   H22       1.0  0.719956014343851  0.07456065564772806  0.6703866396589491  1.0000
  Zn  Zn1       1.0  0.8394340731013638  0.6084260670464134  0.49017962229127177  1.0000
  Zn  Zn2       1.0  0.0076689457325307435  0.6166846045901786  0.5054447620893446  1.0000
  C   C32       1.0  0.9246569410729756  0.6087002458487414  0.7611685348759543  1.0000
  C   C33       1.0  0.9224479253750577  0.6164123371003549  0.23445616318204676  1.0000
  C   C34       1.0  0.9249573158853486  0.8759779539648949  0.49285482412854553  1.0000
  C   C35       1.0  0.9221474840747427  0.3491328935963591  0.5027699404127196  1.0000
  O   O1        1.0  0.9865328144509277  0.6218548668347859  0.2939808040579389  1.0000
  O   O2        1.0  0.9882584199357405  0.6095246638031149  0.7132293635326503  1.0000
  O   O3        1.0  0.988500122204213  0.8253547618128017  0.4965640701358631  1.0000
  O   O4        1.0  0.986291054365518  0.40602477554985045  0.5106459841552913  1.0000
  O   O5        1.0  0.8608119070580467  0.8190858932700245  0.4849783950085018  1.0000
  O   O6        1.0  0.8605702138671875  0.6032575278314618  0.7016436167052014  1.0000
  O   O7        1.0  0.8588446006911199  0.6155876681479175  0.2823933233608926  1.0000
  O   O8        1.0  0.8586028410123178  0.39975756732151346  0.4990586115408566  1.0000
