data_image0
_chemical_formula_structural       NC8NC6H8C6NO2H5C7F3H4Zn2C4O8
_chemical_formula_sum              "N3 C31 H17 O10 F3 Zn2"
_cell_length_a       17.457602349358154
_cell_length_b       9.273392599741051
_cell_length_c       9.272721663655245
_cell_angle_alpha    86.00529282621046
_cell_angle_beta     93.38388695232669
_cell_angle_gamma    91.0881455882028

_space_group_name_H-M_alt    "P 1"
_space_group_IT_number       1

loop_
  _space_group_symop_operation_xyz
  'x, y, z'

loop_
  _atom_site_type_symbol
  _atom_site_label
  _atom_site_symmetry_multiplicity
  _atom_site_fract_x
  _atom_site_fract_y
  _atom_site_fract_z
  _atom_site_occupancy
  N   N1        1.0  0.706264955123193  0.604237127574752  0.4769671232038594  1.0000
  C   C1        1.0  0.6454120265264102  0.5531805794545808  0.46509055682018086  1.0000
  C   C2        1.0  0.5697084158104061  0.48967263899220637  0.45032671813343855  1.0000
  C   C3        1.0  0.5113301096715608  0.5347411882923736  0.5335983082658637  1.0000
  C   C4        1.0  0.4370548637202705  0.4735889865195917  0.5195208927695669  1.0000
  C   C5        1.0  0.3750953191522581  0.5211762614544444  0.6077084297788067  1.0000
  C   C6        1.0  0.3001406079867805  0.5413245349210296  0.5457992103164047  1.0000
  C   C7        1.0  0.24176399608124025  0.5861895699166779  0.6291903793675722  1.0000
  C   C8        1.0  0.16535570099222313  0.6069963366395423  0.5648212973774234  1.0000
  N   N2        1.0  0.1039363881043114  0.6237178949586608  0.5130687115171919  1.0000
  C   C9        1.0  0.257851134084198  0.6111795302672738  0.775056085836682  1.0000
  C   C10       1.0  0.3320208101543092  0.5914656082560377  0.8373965716796195  1.0000
  C   C11       1.0  0.3903871361087651  0.5468034046170263  0.7545141791362378  1.0000
  C   C12       1.0  0.4224431370389893  0.36660696978818486  0.4205789274819882  1.0000
  C   C13       1.0  0.48081013488006713  0.3218503826506227  0.3377521809025148  1.0000
  C   C14       1.0  0.5543028363553307  0.3831308645379188  0.3524406976607575  1.0000
  H   H1        1.0  0.5235662678086865  0.6186518962792846  0.6077511892627607  1.0000
  H   H2        1.0  0.2873475610669184  0.5240517100948945  0.43244095936087934  1.0000
  H   H3        1.0  0.2131123275736203  0.6458432816879949  0.840468819219835  1.0000
  H   H4        1.0  0.3442886353517479  0.6104654482389926  0.9503430609733712  1.0000
  H   H5        1.0  0.44720842920066894  0.53045331835134  0.8057025461873233  1.0000
  H   H6        1.0  0.36617968538846124  0.3162048729560869  0.4086633256767709  1.0000
  H   H7        1.0  0.46907461245702337  0.2391715738730047  0.26227023413264616  1.0000
  H   H8        1.0  0.5990497149614178  0.3475047928810937  0.2875941329542808  1.0000
  C   C15       1.0  0.9074391670246605  0.19055837401189565  0.4943234628380191  1.0000
  C   C16       1.0  0.8970399367690893  0.2726557608146396  0.36165937715737373  1.0000
  C   C17       1.0  0.8798917633893998  0.2060072202139478  0.23316214614964406  1.0000
  C   C18       1.0  0.8725782914544512  0.05523987105332284  0.2337369101429554  1.0000
  C   C19       1.0  0.8841696700662879  0.9720268698908223  0.36550370573550506  1.0000
  C   C20       1.0  0.9027696317474234  0.03738591825516147  0.4957254640150217  1.0000
  N   N3        1.0  0.854215947835385  0.9870906866204846  0.10090130794181595  1.0000
  O   O1        1.0  0.8435376423086448  0.0689469242119105  0.9719164726617833  1.0000
  O   O2        1.0  0.8474598526943263  0.8528277675012694  0.1005181745849897  1.0000
  H   H9        1.0  0.8934986824575377  0.268343068851163  0.8469618357377567  1.0000
  H   H10       1.0  0.9003741252435484  0.38963754534098216  0.3577018166228969  1.0000
  H   H11       1.0  0.8715790595312586  0.272960731814752  0.13330315610954346  1.0000
  H   H12       1.0  0.8804682385615605  0.8552491625724856  0.3661941001417224  1.0000
  H   H13       1.0  0.8960021486008849  0.7403125799916154  0.734293775415292  1.0000
  C   C21       1.0  0.903087024081247  0.6115340643242178  0.07139306876222551  1.0000
  C   C22       1.0  0.9363955125006245  0.49519624195035394  0.15688493389530533  1.0000
  C   C23       1.0  0.9763822315496182  0.3877645069122395  0.0943742149938378  1.0000
  C   C24       1.0  0.9807201134342398  0.39461851540423415  0.9436325164116619  1.0000
  C   C25       1.0  0.9469734105922522  0.5079320365178929  0.8571260941053529  1.0000
  C   C26       1.0  0.9071217905881638  0.6164102843632717  0.9186558680830025  1.0000
  C   C27       1.0  0.009924846862992664  0.26189970211456304  0.18749179015744155  1.0000
  F   F1        1.0  0.03553545760696886  0.3050721370247094  0.3221400936817323  1.0000
  F   F2        1.0  0.07141953472819207  0.20525571170097323  0.12382591568741153  1.0000
  F   F3        1.0  0.9541617803047323  0.1553531460712576  0.20524140271529626  1.0000
  H   H14       1.0  0.9325922787157679  0.4898859792440744  0.2733742551239884  1.0000
  H   H15       1.0  0.009549152462221553  0.31130673238937945  0.8921591931780233  1.0000
  H   H16       1.0  0.9502590032706422  0.508554268163308  0.7407707451827785  1.0000
  H   H17       1.0  0.7680784285745977  0.8528604062371082  0.7852667051271673  1.0000
  Zn  Zn1       1.0  0.8210244015252881  0.609855037460395  0.48739358478493977  1.0000
  Zn  Zn2       1.0  0.9891770488840804  0.6180882311794749  0.5026540411651192  1.0000
  C   C28       1.0  0.9063890799416527  0.609744334242752  0.758495407568953  1.0000
  C   C29       1.0  0.9038141973317901  0.6182008444149303  0.2315525296289074  1.0000
  C   C30       1.0  0.9036209463365551  0.8772842352120336  0.48971144884041706  1.0000
  C   C31       1.0  0.906582283476815  0.3506592087345579  0.5003365571935061  1.0000
  O   O3        1.0  0.9678713313417975  0.6235564403677445  0.29109476102159304  1.0000
  O   O4        1.0  0.969955918509991  0.6106364516811293  0.7105350923901315  1.0000
  O   O5        1.0  0.9677197625288412  0.8266782717315413  0.49349006843779986  1.0000
  O   O6        1.0  0.9701074293718681  0.40751462719996173  0.5081396716181192  1.0000
  O   O7        1.0  0.8400939636552097  0.8204286386318493  0.4819079491167093  1.0000
  O   O8        1.0  0.8423301097141418  0.6043885504844688  0.6989528990177476  1.0000
  O   O9        1.0  0.8402455146145128  0.617308478945551  0.2795108331388503  1.0000
  O   O10       1.0  0.8424816132133717  0.4012666560870797  0.49655585187595186  1.0000
