data_image0
_chemical_formula_structural       NC9NC5H8C6SCH8C6NCH7Zn2C4O8
_chemical_formula_sum              "N3 C32 H23 S1 Zn2 O8"
_cell_length_a       17.807436237873137
_cell_length_b       10.302809429070853
_cell_length_c       9.273390368590327
_cell_angle_alpha    86.16778919332907
_cell_angle_beta     89.39974432744097
_cell_angle_gamma    88.39000425637651

_space_group_name_H-M_alt    "P 1"
_space_group_IT_number       1

loop_
  _space_group_symop_operation_xyz
  'x, y, z'

loop_
  _atom_site_type_symbol
  _atom_site_label
  _atom_site_symmetry_multiplicity
  _atom_site_fract_x
  _atom_site_fract_y
  _atom_site_fract_z
  _atom_site_occupancy
  N   N1        1.0  0.7075435530729742  0.37201834061479877  0.39868906544165  1.0000
  C   C1        1.0  0.6469570449999734  0.33672232199576224  0.38645459915187463  1.0000
  C   C2        1.0  0.5715940879788269  0.29281796165358315  0.3712362514916365  1.0000
  C   C3        1.0  0.5535123432832493  0.2203101549026245  0.2547030459417612  1.0000
  C   C4        1.0  0.4803388083167307  0.17757006311826262  0.23983530934437258  1.0000
  C   C5        1.0  0.4241983026166156  0.20696001894299834  0.3414647629734718  1.0000
  C   C6        1.0  0.346433690191702  0.16165406188331266  0.3257552962651905  1.0000
  C   C7        1.0  0.2842549337172071  0.24366064901087814  0.35454258905874125  1.0000
  C   C8        1.0  0.210939092680716  0.20071772616816363  0.3396900358100152  1.0000
  C   C9        1.0  0.14771021238955326  0.2854187082831452  0.36888119277468717  1.0000
  N   N2        1.0  0.0968871809965164  0.3535124495551256  0.39235007670882527  1.0000
  C   C10       1.0  0.19921846565766332  0.07551004573514519  0.29602205625164296  1.0000
  C   C11       1.0  0.2605398530845197  0.993489521480956  0.2672254524837183  1.0000
  C   C12       1.0  0.333736280840808  0.036035873692250586  0.2818532264870546  1.0000
  C   C13       1.0  0.44297143152211954  0.27996436843160466  0.45824127192713315  1.0000
  C   C14       1.0  0.5161978521824406  0.32251247173170633  0.47293626570740543  1.0000
  H   H1        1.0  0.5959138624992616  0.19707062251362806  0.17511552109383643  1.0000
  H   H2        1.0  0.467433892663183  0.12302402516999679  0.14780935641233128  1.0000
  H   H3        1.0  0.2927497199277446  0.34140233919581764  0.38659063516710557  1.0000
  H   H4        1.0  0.14275442329547747  0.04137191336312141  0.28426374256976256  1.0000
  H   H5        1.0  0.2513468323613433  0.8965549397615149  0.23384517847978128  1.0000
  H   H6        1.0  0.38037888191922475  0.970108693366882  0.2607131080757792  1.0000
  H   H7        1.0  0.4012866737537518  0.30267875553535784  0.5392654435345758  1.0000
  H   H8        1.0  0.5296312128288055  0.3782676676314878  0.5638062114595732  1.0000
  C   C15       1.0  0.9022189714015396  0.9815118802875717  0.39552579798390175  1.0000
  C   C16       1.0  0.9455683616525162  0.9859023923612988  0.2679998248878466  1.0000
  C   C17       1.0  0.9669314417807494  0.8711161775961039  0.20438704839473656  1.0000
  C   C18       1.0  0.9455682669309601  0.7507512382019723  0.26799974897189954  1.0000
  C   C19       1.0  0.9022189414579176  0.7440087430075248  0.39552579090510287  1.0000
  C   C20       1.0  0.8807366412476835  0.8600068905960103  0.4586385788469645  1.0000
  S   S1        1.0  0.022455276539465437  0.8782113415106768  0.04161991592398207  1.0000
  C   C21       1.0  0.9410529585435476  0.8892406488107333  0.9240004124657313  1.0000
  H   H9        1.0  0.8858579784579741  0.30717350460201215  0.4435535791434609  1.0000
  H   H10       1.0  0.9627862736255698  0.07821312773028001  0.21734455461849292  1.0000
  H   H11       1.0  0.9627861078492808  0.6628627410474207  0.21734444500342678  1.0000
  H   H12       1.0  0.8472870710928848  0.855714705774682  0.556990430060565  1.0000
  H   H13       1.0  0.8858567514345471  0.4141577797847512  0.44355201422737967  1.0000
  H   H14       1.0  0.9065755461635848  0.8016080671700916  0.9437807553470338  1.0000
  H   H15       1.0  0.9065762497706851  0.9778429903810383  0.9437802199645376  1.0000
  H   H16       1.0  0.960460741539098  0.8951698921237962  0.8097628781641615  1.0000
  C   C22       1.0  0.9022537751068197  0.3587100571690967  0.972279429803706  1.0000
  C   C23       1.0  0.9712542451981986  0.35285077743378235  0.044758515023784806  1.0000
  C   C24       1.0  0.03905119110624233  0.35911764122178996  0.9682399197329805  1.0000
  C   C25       1.0  0.039570227222566194  0.37151363065520876  0.8166034795532795  1.0000
  C   C26       1.0  0.9710276705345191  0.37516164972848715  0.743307337222296  1.0000
  C   C27       1.0  0.9021841508915867  0.3668105757714004  0.8187720971583916  1.0000
  N   N3        1.0  0.10863693947383735  0.37921499866536085  0.7346907278892268  1.0000
  C   C28       1.0  0.18281292681562267  0.37584236322846976  0.8004712619166097  1.0000
  H   H17       1.0  0.7836747972989878  0.3019822598520254  0.26005002223455165  1.0000
  H   H18       1.0  0.09081335616920505  0.3554626855650942  0.028518181308536457  1.0000
  H   H19       1.0  0.7271026656478695  0.2742688101173954  0.7261315340629493  1.0000
  H   H20       1.0  0.10619934331092873  0.3879351945244703  0.6218545803719189  1.0000
  H   H21       1.0  0.1876886343513302  0.45889442249599016  0.8698604074216677  1.0000
  H   H22       1.0  0.1919768530785555  0.28260283519909146  0.8658760106019631  1.0000
  H   H23       1.0  0.22683979614802485  0.383564618709618  0.7148638901338282  1.0000
  Zn  Zn1       1.0  0.819899711927884  0.36667455573439844  0.39686810576205445  1.0000
  Zn  Zn2       1.0  0.9845310029700705  0.3588457648562818  0.39418288538044544  1.0000
  C   C29       1.0  0.9021956199582689  0.3601073531931611  0.6587668927092964  1.0000
  C   C30       1.0  0.9022368926965517  0.36541452138441066  0.13228421057386264  1.0000
  C   C31       1.0  0.9022155488124507  0.5998258158520409  0.3897823650024288  1.0000
  C   C32       1.0  0.9022169076589663  0.12569450230225424  0.4012688160387272  1.0000
  O   O1        1.0  0.9647079437730265  0.3646879514574448  0.18496424952181337  1.0000
  O   O2        1.0  0.9646759095082211  0.35489106859338926  0.6040484187261658  1.0000
  O   O3        1.0  0.9646911599706819  0.5484668132359045  0.38684152322977705  1.0000
  O   O4        1.0  0.9646926371419484  0.1711122177396267  0.4021710378672832  1.0000
  O   O5        1.0  0.8397380215754269  0.554408105523976  0.3888799541839698  1.0000
  O   O6        1.0  0.8397227711157901  0.36083391997766  0.6060867728311146  1.0000
  O   O7        1.0  0.839754805573128  0.37063074101455645  0.18700087077070854  1.0000
  O   O8        1.0  0.8397394989300881  0.17705499904496347  0.40420776717585016  1.0000
