data_image0
_chemical_formula_structural       Pb3K3S3O12N3C2H3C2H3C2H3C2H3C2H3C2H3C3Pb3K3S3O12N3C2H3C2H3C2H3C2H3C2H3C2H3C3Pb3K3S3O12N3C2H3C2H3C2H3C2H3C2H3C2H3C3Pb3K3S3O12N3C2H3C2H3C2H3C2H3C2H3C2H3C3
_chemical_formula_sum              "Pb12 K12 S12 O48 N12 C60 H72"
_cell_length_a       10.601
_cell_length_b       26.841
_cell_length_c       11.464
_cell_angle_alpha    90.0
_cell_angle_beta     97.32
_cell_angle_gamma    90.0

_space_group_name_H-M_alt    "P 1"
_space_group_IT_number       1

loop_
  _space_group_symop_operation_xyz
  'x, y, z'

loop_
  _atom_site_type_symbol
  _atom_site_label
  _atom_site_symmetry_multiplicity
  _atom_site_fract_x
  _atom_site_fract_y
  _atom_site_fract_z
  _atom_site_occupancy
  Pb  Pb1       1.0  0.13332  0.37412  0.56364  1.0000
  Pb  Pb2       1.0  0.26127  0.39041  0.91223  1.0000
  Pb  Pb3       1.0  0.39172  0.3957499999999998  0.27827  1.0000
  K   K1        1.0  0.5166999999999999  0.37406  0.6851  1.0000
  K   K2        1.0  0.8964  0.4903899999999999  0.6391999999999999  1.0000
  K   K3        1.0  0.8149  0.24225999999999998  0.6163  1.0000
  S   S1        1.0  0.5311  0.2303  0.9399  1.0000
  S   S2        1.0  0.6845000000000002  0.3597  0.4595  1.0000
  S   S3        1.0  0.511  0.517  0.491  1.0000
  O   O1        1.0  0.9626  0.3242999999999999  0.6784  1.0000
  O   O2        1.0  0.0386  0.3969  0.7393  1.0000
  O   O3        1.0  0.1565  0.4693  0.5831  1.0000
  O   O4        1.0  0.30069999999999997  0.429  0.7046  1.0000
  O   O5        1.0  0.4378000000000001  0.3581  0.0814  1.0000
  O   O6        1.0  0.48750000000000004  0.3831  0.9111999999999999  1.0000
  O   O7        1.0  0.202  0.3016  0.9121  1.0000
  O   O8        1.0  0.27279999999999993  0.3292  0.7519999999999999  1.0000
  O   O9        1.0  0.3932  0.30929999999999996  0.3206  1.0000
  O   O10       1.0  0.3799  0.3497999999999999  0.4775  1.0000
  O   O11       1.0  0.1641  0.4054  0.3198  1.0000
  O   O12       1.0  0.20030000000000003  0.369  0.155  1.0000
  N   N1        1.0  0.6215  0.2752  0.7473  1.0000
  N   N2        1.0  0.9166000000000001  0.4106  0.48199999999999993  1.0000
  N   N3        1.0  0.651  0.47599999999999987  0.685  1.0000
  C   C1        1.0  0.9632  0.3615  0.7451  1.0000
  C   C2        1.0  0.8740000000000001  0.36219999999999997  0.839  1.0000
  H   H1        1.0  0.8229999999999998  0.3326  0.8326999999999999  1.0000
  H   H2        1.0  0.8199999999999998  0.391  0.828  1.0000
  H   H3        1.0  0.9232000000000001  0.3636  0.9152  1.0000
  C   C3        1.0  0.24750000000000003  0.4694  0.6678  1.0000
  C   C4        1.0  0.288  0.5186  0.7349999999999999  1.0000
  H   H4        1.0  0.2391  0.5459  0.6993  1.0000
  H   H5        1.0  0.3769  0.5246  0.7317  1.0000
  H   H6        1.0  0.2735  0.5155  0.8156999999999999  1.0000
  C   C5        1.0  0.5206  0.3696  0.0153  1.0000
  C   C6        1.0  0.6583000000000001  0.3673  0.0628  1.0000
  H   H7        1.0  0.6672  0.3546  0.1418  1.0000
  H   H8        1.0  0.6945  0.4001  0.0628  1.0000
  H   H9        1.0  0.7018  0.3456  0.014499999999999996  1.0000
  C   C7        1.0  0.2258  0.2949  0.8109  1.0000
  C   C8        1.0  0.19999999999999998  0.2446  0.7538  1.0000
  H   H10       1.0  0.2771  0.2254  0.7618  1.0000
  H   H11       1.0  0.1699  0.24899999999999992  0.6718  1.0000
  H   H12       1.0  0.1368000000000001  0.2274  0.7912999999999999  1.0000
  C   C9        1.0  0.389  0.3086  0.4244999999999999  1.0000
  C   C10       1.0  0.399  0.2627  0.48799999999999993  1.0000
  H   H13       1.0  0.3623  0.2665  0.5596  1.0000
  H   H14       1.0  0.4867  0.2535  0.5053  1.0000
  H   H15       1.0  0.3539  0.23709999999999992  0.4406  1.0000
  C   C11       1.0  0.132  0.383  0.2276  1.0000
  C   C12       1.0  0.9841000000000001  0.3745  0.18789999999999996  1.0000
  H   H16       1.0  0.9408000000000001  0.3716999999999999  0.2563  1.0000
  H   H17       1.0  0.9721000000000001  0.3443999999999999  0.1425  1.0000
  H   H18       1.0  0.9503000000000001  0.4022  0.1411  1.0000
  C   C13       1.0  0.5841  0.2558  0.826  1.0000
  C   C14       1.0  0.8199999999999998  0.3909  0.47519999999999996  1.0000
  C   C15       1.0  0.593  0.4884999999999999  0.601  1.0000
  Pb  Pb4       1.0  0.36667999999999995  0.8741199999999999  0.9363599999999999  1.0000
  Pb  Pb5       1.0  0.23873000000000003  0.8904099999999999  0.58777  1.0000
  Pb  Pb6       1.0  0.10828000000000002  0.89575  0.22173  1.0000
  K   K4        1.0  0.9833  0.87406  0.8149  1.0000
  K   K5        1.0  0.6036  0.9903899999999997  0.8607999999999999  1.0000
  K   K6        1.0  0.6851  0.74226  0.8836999999999999  1.0000
  S   S4        1.0  0.9689000000000001  0.7303  0.5601  1.0000
  S   S5        1.0  0.8155  0.8596999999999999  0.04050000000000001  1.0000
  S   S6        1.0  0.989  0.017000000000000005  0.008999999999999996  1.0000
  O   O13       1.0  0.5374  0.8243  0.8215999999999999  1.0000
  O   O14       1.0  0.46140000000000003  0.8968999999999998  0.7606999999999999  1.0000
  O   O15       1.0  0.3435000000000001  0.9692999999999998  0.9168999999999998  1.0000
  O   O16       1.0  0.1993  0.9289999999999999  0.7954  1.0000
  O   O17       1.0  0.0622  0.8581  0.4186  1.0000
  O   O18       1.0  0.012499999999999982  0.8831  0.5887999999999999  1.0000
  O   O19       1.0  0.298  0.8015999999999999  0.5879  1.0000
  O   O20       1.0  0.22720000000000004  0.8292  0.748  1.0000
  O   O21       1.0  0.1068  0.8092999999999998  0.1794  1.0000
  O   O22       1.0  0.1201  0.8497999999999997  0.0225  1.0000
  O   O23       1.0  0.3359  0.9054  0.18019999999999997  1.0000
  O   O24       1.0  0.2997  0.869  0.345  1.0000
  N   N4        1.0  0.8785  0.7752  0.7527  1.0000
  N   N5        1.0  0.5834  0.9106  0.01799999999999999  1.0000
  N   N6        1.0  0.849  0.976  0.815  1.0000
  C   C16       1.0  0.5368  0.8615  0.7548999999999999  1.0000
  C   C17       1.0  0.626  0.8622  0.661  1.0000
  H   H19       1.0  0.677  0.8326  0.6672999999999999  1.0000
  H   H20       1.0  0.68  0.891  0.672  1.0000
  H   H21       1.0  0.5768  0.8635999999999998  0.5848  1.0000
  C   C18       1.0  0.2525  0.9693999999999998  0.8322  1.0000
  C   C19       1.0  0.212  0.0186  0.765  1.0000
  H   H22       1.0  0.2609  0.0459  0.8007  1.0000
  H   H23       1.0  0.12309999999999997  0.024599999999999993  0.7682999999999999  1.0000
  H   H24       1.0  0.2265  0.015499999999999995  0.6842999999999999  1.0000
  C   C20       1.0  0.9794  0.8696  0.4847  1.0000
  C   C21       1.0  0.8417  0.8672999999999998  0.4371999999999999  1.0000
  H   H25       1.0  0.8328  0.8546  0.3582  1.0000
  H   H26       1.0  0.8054999999999999  0.9000999999999999  0.4371999999999999  1.0000
  H   H27       1.0  0.7982000000000001  0.8455999999999998  0.4855  1.0000
  C   C22       1.0  0.2742  0.7949  0.6891  1.0000
  C   C23       1.0  0.3  0.7446  0.7461999999999999  1.0000
  H   H28       1.0  0.2229  0.7254  0.7382  1.0000
  H   H29       1.0  0.3301  0.749  0.8282  1.0000
  H   H30       1.0  0.3632  0.7274  0.7087  1.0000
  C   C24       1.0  0.111  0.8085999999999999  0.0755  1.0000
  C   C25       1.0  0.101  0.7627  0.011999999999999997  1.0000
  H   H31       1.0  0.1377  0.7665  0.9404  1.0000
  H   H32       1.0  0.013300000000000008  0.7535  0.9947  1.0000
  H   H33       1.0  0.1461  0.7371  0.059399999999999994  1.0000
  C   C26       1.0  0.368  0.883  0.2724  1.0000
  C   C27       1.0  0.5159  0.8744999999999998  0.3121  1.0000
  H   H34       1.0  0.5592  0.8717  0.2437  1.0000
  H   H35       1.0  0.5279  0.8444  0.35749999999999993  1.0000
  H   H36       1.0  0.5497  0.9022  0.35889999999999994  1.0000
  C   C28       1.0  0.9159000000000002  0.7558  0.674  1.0000
  C   C29       1.0  0.68  0.8909  0.024799999999999996  1.0000
  C   C30       1.0  0.9070000000000001  0.9885  0.899  1.0000
  Pb  Pb7       1.0  0.86668  0.62588  0.43635999999999997  1.0000
  Pb  Pb8       1.0  0.73873  0.60959  0.08777  1.0000
  Pb  Pb9       1.0  0.60828  0.60425  0.72173  1.0000
  K   K7        1.0  0.48330000000000006  0.6259399999999999  0.3149  1.0000
  K   K8        1.0  0.10360000000000001  0.50961  0.3608  1.0000
  K   K9        1.0  0.1851  0.7577399999999999  0.3837  1.0000
  S   S7        1.0  0.46890000000000004  0.7697  0.060099999999999994  1.0000
  S   S8        1.0  0.3155  0.6403  0.5405  1.0000
  S   S9        1.0  0.48900000000000005  0.48299999999999993  0.509  1.0000
  O   O25       1.0  0.03740000000000001  0.6757  0.3216  1.0000
  O   O26       1.0  0.9614  0.6031  0.2607  1.0000
  O   O27       1.0  0.8435  0.5307  0.4169  1.0000
  O   O28       1.0  0.6993  0.571  0.2954  1.0000
  O   O29       1.0  0.5622  0.6419  0.9186  1.0000
  O   O30       1.0  0.5125  0.6169  0.0888  1.0000
  O   O31       1.0  0.798  0.6984  0.0879  1.0000
  O   O32       1.0  0.7272  0.6707999999999997  0.24799999999999994  1.0000
  O   O33       1.0  0.6068  0.6907  0.6794  1.0000
  O   O34       1.0  0.6201  0.6502  0.5225  1.0000
  O   O35       1.0  0.8359  0.5946  0.6802  1.0000
  O   O36       1.0  0.7997  0.631  0.845  1.0000
  N   N7        1.0  0.3785  0.7247999999999999  0.2527  1.0000
  N   N8        1.0  0.0834  0.5894  0.518  1.0000
  N   N9        1.0  0.349  0.524  0.315  1.0000
  C   C31       1.0  0.036800000000000006  0.6385  0.2549  1.0000
  C   C32       1.0  0.126  0.6378  0.161  1.0000
  H   H37       1.0  0.177  0.6674  0.1673  1.0000
  H   H38       1.0  0.18  0.609  0.172  1.0000
  H   H39       1.0  0.0768  0.6364  0.0848  1.0000
  C   C33       1.0  0.7525000000000001  0.5306  0.33219999999999994  1.0000
  C   C34       1.0  0.712  0.4813999999999999  0.265  1.0000
  H   H40       1.0  0.7609000000000001  0.45409999999999984  0.3007  1.0000
  H   H41       1.0  0.6231  0.4754  0.2683  1.0000
  H   H42       1.0  0.7265  0.4845  0.18429999999999996  1.0000
  C   C35       1.0  0.47940000000000005  0.6303999999999997  0.9846999999999999  1.0000
  C   C36       1.0  0.3417  0.6327  0.9371999999999999  1.0000
  H   H43       1.0  0.3328  0.6454  0.8581999999999999  1.0000
  H   H44       1.0  0.3055  0.5999  0.9371999999999999  1.0000
  H   H45       1.0  0.2982  0.6544  0.9855  1.0000
  C   C37       1.0  0.7742000000000001  0.7051  0.1891  1.0000
  C   C38       1.0  0.7999999999999999  0.7554  0.2462  1.0000
  H   H46       1.0  0.7229  0.7746  0.23819999999999994  1.0000
  H   H47       1.0  0.8301000000000001  0.7509999999999998  0.3282  1.0000
  H   H48       1.0  0.8632000000000001  0.7725999999999998  0.2087  1.0000
  C   C39       1.0  0.611  0.6914  0.5755  1.0000
  C   C40       1.0  0.601  0.7373  0.512  1.0000
  H   H49       1.0  0.6377  0.7335  0.44039999999999996  1.0000
  H   H50       1.0  0.5132999999999999  0.7464999999999999  0.4946999999999999  1.0000
  H   H51       1.0  0.6460999999999999  0.7629  0.5594  1.0000
  C   C41       1.0  0.8680000000000001  0.617  0.7724  1.0000
  C   C42       1.0  0.015900000000000008  0.6255  0.8121  1.0000
  H   H52       1.0  0.059199999999999996  0.6283  0.7436999999999999  1.0000
  H   H53       1.0  0.027900000000000005  0.6555999999999998  0.8575  1.0000
  H   H54       1.0  0.04970000000000005  0.5978  0.8589  1.0000
  C   C43       1.0  0.41590000000000005  0.7442  0.174  1.0000
  C   C44       1.0  0.17999999999999997  0.6091  0.5247999999999999  1.0000
  C   C45       1.0  0.4069999999999999  0.5115  0.399  1.0000
  Pb  Pb10      1.0  0.63332  0.12588  0.06364  1.0000
  Pb  Pb11      1.0  0.7612700000000001  0.10959  0.41222999999999993  1.0000
  Pb  Pb12      1.0  0.8917200000000001  0.10425  0.77827  1.0000
  K   K10       1.0  0.016700000000000003  0.12594  0.18509999999999996  1.0000
  K   K11       1.0  0.39640000000000003  0.009609999999999999  0.1392  1.0000
  K   K12       1.0  0.3149  0.25774  0.11629999999999997  1.0000
  S   S10       1.0  0.0311  0.2697  0.4399  1.0000
  S   S11       1.0  0.18449999999999997  0.1403  0.9594999999999999  1.0000
  S   S12       1.0  0.011000000000000001  0.983  0.991  1.0000
  O   O37       1.0  0.4626  0.17569999999999997  0.1784  1.0000
  O   O38       1.0  0.5386  0.1031  0.2393  1.0000
  O   O39       1.0  0.6565  0.0307  0.0831  1.0000
  O   O40       1.0  0.8007000000000001  0.071  0.2046  1.0000
  O   O41       1.0  0.9378000000000001  0.1419  0.5814  1.0000
  O   O42       1.0  0.9875000000000002  0.1169  0.4112  1.0000
  O   O43       1.0  0.7020000000000002  0.1984  0.4121  1.0000
  O   O44       1.0  0.7728000000000002  0.1708  0.252  1.0000
  O   O45       1.0  0.8932000000000001  0.1907  0.8206  1.0000
  O   O46       1.0  0.8799000000000001  0.15019999999999997  0.9775  1.0000
  O   O47       1.0  0.6641  0.0946  0.8198  1.0000
  O   O48       1.0  0.7003  0.131  0.655  1.0000
  N   N10       1.0  0.12150000000000001  0.2248  0.24729999999999996  1.0000
  N   N11       1.0  0.4166  0.0894  0.982  1.0000
  N   N12       1.0  0.15099999999999994  0.024  0.18499999999999994  1.0000
  C   C46       1.0  0.4632  0.1385  0.2451  1.0000
  C   C47       1.0  0.374  0.1378  0.339  1.0000
  H   H55       1.0  0.323  0.1674  0.3327  1.0000
  H   H56       1.0  0.32  0.109  0.328  1.0000
  H   H57       1.0  0.4232  0.1364  0.41519999999999996  1.0000
  C   C48       1.0  0.7475  0.0306  0.1678  1.0000
  C   C49       1.0  0.7879999999999999  0.9814  0.235  1.0000
  H   H58       1.0  0.7391  0.9541  0.1993  1.0000
  H   H59       1.0  0.8769000000000001  0.9754  0.2317  1.0000
  H   H60       1.0  0.7735000000000001  0.9844999999999998  0.3157  1.0000
  C   C50       1.0  0.020599999999999993  0.1304  0.5153  1.0000
  C   C51       1.0  0.1583  0.1327  0.5628  1.0000
  H   H61       1.0  0.1672  0.1454  0.6418  1.0000
  H   H62       1.0  0.1945  0.0999  0.5628  1.0000
  H   H63       1.0  0.20180000000000003  0.1544  0.5145  1.0000
  C   C52       1.0  0.7258  0.20509999999999995  0.3109  1.0000
  C   C53       1.0  0.7  0.2554  0.2538  1.0000
  H   H64       1.0  0.7771000000000001  0.2746  0.2618  1.0000
  H   H65       1.0  0.6699  0.251  0.17179999999999998  1.0000
  H   H66       1.0  0.6368  0.2726  0.2913  1.0000
  C   C54       1.0  0.8890000000000001  0.19139999999999993  0.9245  1.0000
  C   C55       1.0  0.899  0.2373  0.988  1.0000
  H   H67       1.0  0.8623  0.2335  0.05959999999999999  1.0000
  H   H68       1.0  0.9867  0.2465  0.0053  1.0000
  H   H69       1.0  0.8539  0.2629  0.9406  1.0000
  C   C56       1.0  0.632  0.11699999999999999  0.7276  1.0000
  C   C57       1.0  0.4841  0.1255  0.6878999999999998  1.0000
  H   H70       1.0  0.4408000000000001  0.1283  0.7563  1.0000
  H   H71       1.0  0.47209999999999996  0.1556  0.6425  1.0000
  H   H72       1.0  0.4503  0.0978  0.6411  1.0000
  C   C58       1.0  0.0841  0.24419999999999997  0.32599999999999996  1.0000
  C   C59       1.0  0.31999999999999995  0.1091  0.9751999999999998  1.0000
  C   C60       1.0  0.093  0.011499999999999998  0.10099999999999999  1.0000
