data_image0
_chemical_formula_structural       NC5NC3H4C10H6C6ClH4Zn2C4O8
_chemical_formula_sum              "N2 C28 H14 Cl1 Zn2 O8"
_cell_length_a       13.859018345313864
_cell_length_b       9.275150299802176
_cell_length_c       9.276548810779733
_cell_angle_alpha    85.75527424230437
_cell_angle_beta     89.72476444669817
_cell_angle_gamma    89.48388887768701

_space_group_name_H-M_alt    "P 1"
_space_group_IT_number       1

loop_
  _space_group_symop_operation_xyz
  'x, y, z'

loop_
  _atom_site_type_symbol
  _atom_site_label
  _atom_site_symmetry_multiplicity
  _atom_site_fract_x
  _atom_site_fract_y
  _atom_site_fract_z
  _atom_site_occupancy
  N   N1        1.0  0.9042980604935749  0.5644655473413829  0.40168656042430384  1.0000
  C   C1        1.0  0.8320137434840356  0.5253733978069932  0.45314408308310966  1.0000
  C   C2        1.0  0.7420962920977529  0.4767480002957747  0.5171503963665769  1.0000
  C   C3        1.0  0.6543959922156024  0.5241520709759803  0.454752077945435  1.0000
  C   C4        1.0  0.566865989784318  0.47674770857065973  0.5171502725134924  1.0000
  C   C5        1.0  0.4767738648547694  0.5253732841794994  0.45314398644907494  1.0000
  N   N2        1.0  0.40434915836556246  0.5644655127970514  0.4016864916180849  1.0000
  C   C6        1.0  0.5672187912942329  0.3819252573491767  0.6419654538790942  1.0000
  C   C7        1.0  0.6547362219310806  0.33470366709377863  0.7041236482666229  1.0000
  C   C8        1.0  0.7420841324068048  0.38192555450651877  0.6419656557800293  1.0000
  H   H1        1.0  0.654264120695467  0.597547234875083  0.35814177012662757  1.0000
  H   H2        1.0  0.4999903343459901  0.34461340038137145  0.6910787766018198  1.0000
  H   H3        1.0  0.6548677623151945  0.26145751040305987  0.8005380111737037  1.0000
  H   H4        1.0  0.8094465914358718  0.34461393446644717  0.6910791987302518  1.0000
  C   C9        1.0  0.1568662254711073  0.14078199540640937  0.404098794428565  1.0000
  C   C10       1.0  0.207964914306346  0.22183895741293116  0.29508650415644877  1.0000
  C   C11       1.0  0.2508067511414298  0.15464372912055027  0.18053435223508574  1.0000
  C   C12       1.0  0.24298565093161434  0.005412179181703221  0.17351900672082698  1.0000
  C   C13       1.0  0.1939956245422516  0.9229054648192981  0.28188370845122  1.0000
  C   C14       1.0  0.15179020440055765  0.9881380048391413  0.39928682314658553  1.0000
  C   C15       1.0  0.3019253074183801  0.23942007651168562  0.06902960697416605  1.0000
  C   C16       1.0  0.34472444166329047  0.31042289254407845  0.9756768944874934  1.0000
  C   C17       1.0  0.3948402426336134  0.39357216900500674  0.866364939478259  1.0000
  C   C18       1.0  0.4376311249941641  0.4645696662399972  0.7730301220503994  1.0000
  H   H5        1.0  0.1103644617535613  0.4051944520487618  0.6329114096448776  1.0000
  H   H6        1.0  0.21259365738236702  0.338307640523287  0.2973124954351163  1.0000
  H   H7        1.0  0.27562010822168803  0.9524579020195643  0.0848797092897795  1.0000
  H   H8        1.0  0.19106510204151528  0.8068486189143677  0.27566278730029414  1.0000
  H   H9        1.0  0.08797325256455625  0.860792268254017  0.741639866962171  1.0000
  H   H10       1.0  0.47520508899966574  0.5269114978655653  0.6910744433840783  1.0000
  C   C19       1.0  0.155711406795223  0.5605946940443172  0.9785654030545996  1.0000
  C   C20       1.0  0.23632187726995335  0.6154395378016824  0.047360415812583094  1.0000
  C   C21       1.0  0.31145620555721076  0.681037743972531  0.9667554186364754  1.0000
  C   C22       1.0  0.30710625099698563  0.6928952566414166  0.8162485563082917  1.0000
  C   C23       1.0  0.2286042544744733  0.6370383716171046  0.7458101842773311  1.0000
  C   C24       1.0  0.152945028821396  0.5683252753797938  0.8248202399769964  1.0000
  Cl  Cl1       1.0  0.41065341275008327  0.7505085223832637  0.05486536640261663  1.0000
  H   H11       1.0  0.039607526025826845  0.39910561590282323  0.27248461853289685  1.0000
  H   H12       1.0  0.36505562092340016  0.7442207109885741  0.7534678292488426  1.0000
  H   H13       1.0  0.2282053905647179  0.6445666222674835  0.6287191416265898  1.0000
  H   H14       1.0  0.9982672962896465  0.5154294764302978  0.5485245379191421  1.0000
  Zn  Zn1       1.0  0.04860200003184301  0.5644617407675301  0.4016948926284274  1.0000
  Zn  Zn2       1.0  0.26004522754271164  0.5644575865384724  0.4016900612476142  1.0000
  C   C25       1.0  0.1535002302454973  0.561116354598995  0.6648925703824347  1.0000
  C   C26       1.0  0.1551492949151292  0.5678047943855853  0.13849251452651234  1.0000
  C   C27       1.0  0.15276350793765414  0.8279172514178386  0.3944545500454233  1.0000
  C   C28       1.0  0.1558859552049474  0.3010021648445369  0.4089306215289752  1.0000
  O   O1        1.0  0.23520228563373347  0.5702166990352311  0.19216371634946802  1.0000
  O   O2        1.0  0.2339277646203856  0.5587002047692902  0.6112172930534109  1.0000
  O   O3        1.0  0.233331765446829  0.7741453168162438  0.392836669742866  1.0000
  O   O4        1.0  0.23579821294737857  0.35477159632378075  0.4105442315662162  1.0000
  O   O5        1.0  0.07284894247199514  0.7741477309851414  0.39284072230388606  1.0000
  O   O6        1.0  0.07344493150839582  0.5587043516633106  0.6112212589430406  1.0000
  O   O7        1.0  0.07471945855010054  0.5702207798265344  0.19216595015631444  1.0000
  O   O8        1.0  0.07531538556847625  0.3547756677824996  0.4105465734609206  1.0000
