data_image0
_chemical_formula_structural       NC9NC3NH7C7NC2NH8C6SCNH5Zn2C4O8
_chemical_formula_sum              "N6 C32 H20 S1 Zn2 O8"
_cell_length_a       16.053384444249904
_cell_length_b       9.273995741505848
_cell_length_c       10.302218930750287
_cell_angle_alpha    85.6945973122959
_cell_angle_beta     89.81672032337951
_cell_angle_gamma    89.75855226915094

_space_group_name_H-M_alt    "P 1"
_space_group_IT_number       1

loop_
  _space_group_symop_operation_xyz
  'x, y, z'

loop_
  _atom_site_type_symbol
  _atom_site_label
  _atom_site_symmetry_multiplicity
  _atom_site_fract_x
  _atom_site_fract_y
  _atom_site_fract_z
  _atom_site_occupancy
  N   N1        1.0  0.7933326545390935  0.5590340118634327  0.5683868160750847  1.0000
  C   C1        1.0  0.7424303094625947  0.5359397753733421  0.4935081269162615  1.0000
  C   C2        1.0  0.6791726442787938  0.5072449324711769  0.4004905276046294  1.0000
  C   C3        1.0  0.6926911259975783  0.4938580225133862  0.26976341824363326  1.0000
  C   C4        1.0  0.6158936361711226  0.46574693848845533  0.2174613881762577  1.0000
  C   C5        1.0  0.558800852763656  0.4635480528670506  0.3191001836251999  1.0000
  C   C6        1.0  0.4679913426444344  0.437101467419051  0.30879715776510763  1.0000
  C   C7        1.0  0.412388565504521  0.4845082003696275  0.4027841528618014  1.0000
  C   C8        1.0  0.3266910420622396  0.4594260964190724  0.39291635629229643  1.0000
  C   C9        1.0  0.27031994769788004  0.5087696952112979  0.48927893078179147  1.0000
  N   N2        1.0  0.2250142075591668  0.5484349906431469  0.5667393516249841  1.0000
  C   C10       1.0  0.2958695368683037  0.386812923615063  0.2890749933722392  1.0000
  C   C11       1.0  0.350464575229941  0.33953895881142726  0.1952999053652673  1.0000
  C   C12       1.0  0.4359549905814242  0.3644371297481954  0.2047708173305116  1.0000
  N   N3        1.0  0.5981564240435778  0.4890341794222428  0.4306813657110269  1.0000
  H   H1        1.0  0.751474102630121  0.5034543155247074  0.21818303788448493  1.0000
  H   H2        1.0  0.6035279470161649  0.45047221475762345  0.11627974424753518  1.0000
  H   H3        1.0  0.4350609425977363  0.5427381241512554  0.48269061934466895  1.0000
  H   H4        1.0  0.2297286908022798  0.3668663589110255  0.280600238523818  1.0000
  H   H5        1.0  0.32651254487114845  0.28313188705160686  0.1151637212219343  1.0000
  H   H6        1.0  0.4768316529647483  0.32509686973385343  0.13145532584818231  1.0000
  H   H7        1.0  0.572022031352885  0.4916468709853887  0.5234208973688395  1.0000
  C   C13       1.0  0.006686070548741042  0.1303067612342963  0.5666241055521679  1.0000
  C   C14       1.0  0.02128874151389626  0.2132034227058377  0.44915198863137396  1.0000
  C   C15       1.0  0.04334573725713886  0.14756561582399572  0.33652128633516254  1.0000
  C   C16       1.0  0.051720430354756486  0.9969136527615216  0.3381443677275102  1.0000
  C   C17       1.0  0.035368446912428915  0.912782518812039  0.45454760621100254  1.0000
  C   C18       1.0  0.011668682084494675  0.9771509370771327  0.5685131899390794  1.0000
  C   C19       1.0  0.07611207794769603  0.9293369022258745  0.21739927841180287  1.0000
  N   N4        1.0  0.07912391036435529  0.0035665556229156317  0.09940995789156017  1.0000
  C   C20       1.0  0.10409325612983822  0.9050791908993127  0.017657506483063076  1.0000
  C   C21       1.0  0.11599175220262331  0.7738614721852862  0.08653773437298962  1.0000
  N   N5        1.0  0.09843020779261358  0.7892712256938779  0.21213949579181654  1.0000
  H   H8        1.0  0.9391718339730728  0.39653595475136133  0.7537420075171335  1.0000
  H   H9        1.0  0.017663568992700496  0.3301369853199396  0.4449782722097124  1.0000
  H   H10       1.0  0.05508503411530974  0.21549156622917479  0.24827730529958233  1.0000
  H   H11       1.0  0.03818934510987782  0.7961508650637698  0.4563361182909613  1.0000
  H   H12       1.0  0.012799678432502409  0.6790575395710161  0.784419914841971  1.0000
  H   H13       1.0  0.11328925726917105  0.9278917497378693  0.9141071783043326  1.0000
  H   H14       1.0  0.13644212994826677  0.6742540832905406  0.04797070511466495  1.0000
  H   H15       1.0  0.10297166002545777  0.7086067245657189  0.2880154361012339  1.0000
  C   C22       1.0  0.009100109875047167  0.553798318997607  0.1862939400614585  1.0000
  C   C23       1.0  0.08715608935367358  0.4846874929959295  0.189623353859242  1.0000
  C   C24       1.0  0.12595695894604853  0.44984558583863454  0.07430195185360589  1.0000
  C   C25       1.0  0.08735813915578738  0.48450392511857043  0.9544679335272609  1.0000
  C   C26       1.0  0.009254626560617929  0.5536594187729607  0.948843376816726  1.0000
  C   C27       1.0  0.9705400388947387  0.587874509712647  0.06532251538670386  1.0000
  S   S1        1.0  0.22574228207584968  0.3621822504032346  0.07999118190864629  1.0000
  C   C28       1.0  0.18114538158171922  0.18805049759708425  0.09202942435700212  1.0000
  N   N6        1.0  0.15188319074749868  0.07389971565925668  0.09992161351647287  1.0000
  H   H16       1.0  0.9794058776574313  0.5801673426830869  0.5123570666189345  1.0000
  H   H17       1.0  0.11808625336719558  0.45739002692033254  0.2815173655413532  1.0000
  H   H18       1.0  0.11842679326221539  0.45708056687377113  0.8660939201810285  1.0000
  H   H19       1.0  0.9103381306982584  0.6411557442261455  0.06190796933377074  1.0000
  H   H20       1.0  0.8620783422147033  0.6841482909250922  0.7310144517538109  1.0000
  Zn  Zn1       1.0  0.9179066025284085  0.5559715164287937  0.5679188758310099  1.0000
  Zn  Zn2       1.0  0.10044016914276678  0.5514857368993722  0.5672178772901788  1.0000
  C   C29       1.0  0.009189774518345127  0.5479414795606248  0.8046924013411443  1.0000
  C   C30       1.0  0.009159001144003477  0.5595175440922266  0.33044447561863266  1.0000
  C   C31       1.0  0.010721525426780731  0.817080451784986  0.5629822564716978  1.0000
  C   C32       1.0  0.007627177770785922  0.29037684100755684  0.5721546860842819  1.0000
  O   O1        1.0  0.07844926582818657  0.5597283477463255  0.37855667285726136  1.0000
  O   O2        1.0  0.07843825687933426  0.5443249853358035  0.7560477862497694  1.0000
  O   O3        1.0  0.07967423158314291  0.761658131836167  0.560865141059051  1.0000
  O   O4        1.0  0.07721322887899751  0.3423952131091672  0.5737392209595764  1.0000
  O   O5        1.0  0.9411334805024378  0.7650620417513462  0.561397532394003  1.0000
  O   O6        1.0  0.939897515973671  0.5477306276436378  0.7565801122209102  1.0000
  O   O7        1.0  0.9399085243659415  0.5631339400901572  0.37908743770106446  1.0000
  O   O8        1.0  0.9386724873723925  0.34580079512214135  0.5742700831241738  1.0000
