data_image0
_chemical_formula_structural       NC9NC5H8C8NH7C6OCH6Zn2C4O8
_chemical_formula_sum              "N3 C33 H21 O9 Zn2"
_cell_length_a       17.807436237873137
_cell_length_b       9.27426342843186
_cell_length_c       9.273891588657152
_cell_angle_alpha    86.03948257069723
_cell_angle_beta     89.08663702953788
_cell_angle_gamma    89.00683889979415

_space_group_name_H-M_alt    "P 1"
_space_group_IT_number       1

loop_
  _space_group_symop_operation_xyz
  'x, y, z'

loop_
  _atom_site_type_symbol
  _atom_site_label
  _atom_site_symmetry_multiplicity
  _atom_site_fract_x
  _atom_site_fract_y
  _atom_site_fract_z
  _atom_site_occupancy
  N   N1        1.0  0.7206379124983577  0.5262154540772799  0.397282919551033  1.0000
  C   C1        1.0  0.6598659559300405  0.4870302024974254  0.38507837539424616  1.0000
  C   C2        1.0  0.5842723214558814  0.4382880646641727  0.3698972475701945  1.0000
  C   C3        1.0  0.566068631573894  0.35792341486316787  0.25341481548296807  1.0000
  C   C4        1.0  0.492670686389894  0.3104739120662001  0.2385833055191804  1.0000
  C   C5        1.0  0.4364254618707877  0.3429695371884532  0.3401985436711943  1.0000
  C   C6        1.0  0.3584228228708149  0.2926713697816081  0.32452748438092915  1.0000
  C   C7        1.0  0.2966739111810784  0.3837136553023247  0.3532452985799197  1.0000
  C   C8        1.0  0.22313235196690806  0.3360388475588001  0.3384291539177193  1.0000
  C   C9        1.0  0.1603489752391006  0.4300731904661889  0.3675484860941154  1.0000
  N   N2        1.0  0.109884094523315  0.5056703076187463  0.39095962799926753  1.0000
  C   C10       1.0  0.21075463165832  0.19703504719558063  0.2948672875831704  1.0000
  C   C11       1.0  0.2716461137693455  0.10597729533552136  0.26614017370076315  1.0000
  C   C12       1.0  0.34506642353438527  0.1532119615188261  0.2807318650923347  1.0000
  C   C13       1.0  0.4553229431008015  0.42388533990212945  0.456923866549045  1.0000
  C   C14       1.0  0.5287730661974263  0.47112185339844936  0.4715827840275468  1.0000
  H   H1        1.0  0.6085507617881523  0.3322270113880541  0.1738386218096508  1.0000
  H   H2        1.0  0.47968639137859814  0.2500236747038542  0.1465950381155381  1.0000
  H   H3        1.0  0.3056874317325067  0.492228064136347  0.38521027003417596  1.0000
  H   H4        1.0  0.154111012463893  0.15913515957318114  0.28313792319097364  1.0000
  H   H5        1.0  0.2619431675201999  0.9983612701667892  0.23284210150442686  1.0000
  H   H6        1.0  0.3913577859952058  0.0800178454431486  0.2596478366310637  1.0000
  H   H7        1.0  0.4135502280392202  0.4489963824278749  0.5379373415766822  1.0000
  H   H8        1.0  0.5422966229627694  0.5329167718184683  0.5624138348812255  1.0000
  C   C15       1.0  0.9128869468861681  0.09248752002819033  0.3944661716651376  1.0000
  C   C16       1.0  0.9035565283092912  0.17515188176995294  0.2628881963247247  1.0000
  C   C17       1.0  0.9015894246829703  0.10916729601803676  0.13238304974527715  1.0000
  C   C18       1.0  0.9095146301493853  0.9589487970798256  0.13021794402275044  1.0000
  C   C19       1.0  0.9168318812504759  0.8748781237277972  0.2609450650358556  1.0000
  C   C20       1.0  0.917642140626588  0.9393869602054881  0.39378880154245  1.0000
  C   C21       1.0  0.9062729309058853  0.8878639377867348  0.9896355664803931  1.0000
  C   C22       1.0  0.8284358519326016  0.8527471073772066  0.9588653483135031  1.0000
  N   N3        1.0  0.7670006779404221  0.8250288833470472  0.9345886032845675  1.0000
  H   H9        1.0  0.9767506205221361  0.17037996277485165  0.7257408025707088  1.0000
  H   H10       1.0  0.8994113172381588  0.29196828591224655  0.2605948068744304  1.0000
  H   H11       1.0  0.8945866516834707  0.1755640709056283  0.032607660442794284  1.0000
  H   H12       1.0  0.9200803770264839  0.758199978594015  0.2589936791219798  1.0000
  H   H13       1.0  0.9577107968986965  0.6418122353231452  0.6188268516361373  1.0000
  H   H14       1.0  0.9409579200208712  0.7869682180066033  0.9946501269588723  1.0000
  H   H15       1.0  0.9287108412526116  0.9606837720249237  0.899571912367381  1.0000
  C   C23       1.0  0.9164735335225022  0.5120532228366883  0.9708352108496943  1.0000
  C   C24       1.0  0.9783242760171248  0.5697136366899256  0.03836099603080268  1.0000
  C   C25       1.0  0.035975128845276316  0.6383666731907724  0.9575639312860394  1.0000
  C   C26       1.0  0.03198198187467426  0.6497098216987347  0.8061802999589691  1.0000
  C   C27       1.0  0.9717042904715539  0.5910929877822977  0.737287381689995  1.0000
  C   C28       1.0  0.9140555318050354  0.5198211612839949  0.8174197189363293  1.0000
  O   O1        1.0  0.09576472502986255  0.6943599148030238  0.0317573652963079  1.0000
  C   C29       1.0  0.1580406999343846  0.7669852499388568  0.9636155538525014  1.0000
  H   H16       1.0  0.7373249622296519  0.4329157222819076  0.08482544801541558  1.0000
  H   H17       1.0  0.07555752324875908  0.7024903290636734  0.7405112668067941  1.0000
  H   H18       1.0  0.7945519344814191  0.46076454897406194  0.5439646909160984  1.0000
  H   H19       1.0  0.13842724388258504  0.8656310778080355  0.8994694427184853  1.0000
  H   H20       1.0  0.18895593536792998  0.6937658079503164  0.8927513883887018  1.0000
  H   H21       1.0  0.19668153217645612  0.7994235730494001  0.047806960462302595  1.0000
  Zn  Zn1       1.0  0.8329659058430964  0.5202827974004907  0.3954664937206178  1.0000
  Zn  Zn2       1.0  0.9975559831360791  0.5115913186086736  0.39278791350838066  1.0000
  C   C30       1.0  0.9144786680388728  0.5126083603609946  0.6574017595783492  1.0000
  C   C31       1.0  0.9160450280706344  0.5192674814866438  0.130852758424012  1.0000
  C   C32       1.0  0.916755843684074  0.7792524009714441  0.388172813897101  1.0000
  C   C33       1.0  0.9137677863152193  0.2526217120559009  0.40008178325493815  1.0000
  O   O2        1.0  0.9783622589680502  0.5183839906975217  0.18353960696913152  1.0000
  O   O3        1.0  0.9770814925287936  0.5068941282061776  0.6026815165579704  1.0000
  O   O4        1.0  0.9789194943750277  0.7222126213896285  0.3852772505848341  1.0000
  O   O5        1.0  0.9765242013249825  0.3030655098036389  0.4009437657691066  1.0000
  O   O6        1.0  0.8539976314877078  0.7288086091730013  0.387310642366377  1.0000
  O   O7        1.0  0.8521596395852021  0.5134918477773193  0.6047148300963205  1.0000
  O   O8        1.0  0.8534404107421231  0.5249816441139419  0.18557118750358526  1.0000
  O   O9        1.0  0.8516023527294038  0.30966315389796595  0.4029754543832064  1.0000
