data_image0
_chemical_formula_structural       NC8NC6H8C7OH6C6FH3Zn2C4O8
_chemical_formula_sum              "N2 C31 H17 O9 F1 Zn2"
_cell_length_a       17.457602349358154
_cell_length_b       9.274078303013077
_cell_length_c       9.275646106892307
_cell_angle_alpha    85.12816717497476
_cell_angle_beta     92.91404810424501
_cell_angle_gamma    91.09880916489897

_space_group_name_H-M_alt    "P 1"
_space_group_IT_number       1

loop_
  _space_group_symop_operation_xyz
  'x, y, z'

loop_
  _atom_site_type_symbol
  _atom_site_label
  _atom_site_symmetry_multiplicity
  _atom_site_fract_x
  _atom_site_fract_y
  _atom_site_fract_z
  _atom_site_occupancy
  N   N1        1.0  0.7133077329005054  0.6289700090665249  0.47771889090183506  1.0000
  C   C1        1.0  0.6525019019941046  0.5781157624701887  0.4657894446566988  1.0000
  C   C2        1.0  0.5768568339061745  0.5148593101973786  0.4509598344319865  1.0000
  C   C3        1.0  0.5181098032264841  0.5585558842863794  0.5343130247250285  1.0000
  C   C4        1.0  0.4438903045931784  0.4976435667348927  0.520172343977805  1.0000
  C   C5        1.0  0.3815402503326216  0.5437778928235697  0.6084461672899513  1.0000
  C   C6        1.0  0.3068662737797965  0.5649382129318263  0.5465258642344892  1.0000
  C   C7        1.0  0.24812037483545524  0.6084293423590046  0.6299985027486976  1.0000
  C   C8        1.0  0.17200395141321567  0.6302883888440813  0.5656177654928782  1.0000
  N   N2        1.0  0.11081930177253232  0.6478559785845357  0.5138558023292772  1.0000
  C   C9        1.0  0.2635549839414338  0.6310240412350809  0.7759572859667845  1.0000
  C   C10       1.0  0.3374420404872082  0.6102909372504184  0.8383094637028237  1.0000
  C   C11       1.0  0.39617539170597194  0.566994267389795  0.7553460332347721  1.0000
  C   C12       1.0  0.4297101157699375  0.3922996399216736  0.42108404551846573  1.0000
  C   C13       1.0  0.4884438771568925  0.3489076882243589  0.3381762004916191  1.0000
  C   C14       1.0  0.5618781004603974  0.4099382474927878  0.35292839423910505  1.0000
  H   H1        1.0  0.5300230009485216  0.6412383581569843  0.6085790252389349  1.0000
  H   H2        1.0  0.2945805982478729  0.5495265256794828  0.43309726439507945  1.0000
  H   H3        1.0  0.2185264405135632  0.6646101680731471  0.8414334360510605  1.0000
  H   H4        1.0  0.34920455749406004  0.6274361343860182  0.9513277002731361  1.0000
  H   H5        1.0  0.45276460318119904  0.5498073452567436  0.8065438501687874  1.0000
  H   H6        1.0  0.3734940177859601  0.3421003874806192  0.40911614990664535  1.0000
  H   H7        1.0  0.4770374403123952  0.2674787215088299  0.2625816349536312  1.0000
  H   H8        1.0  0.6069120528869435  0.3753806605957488  0.28801779518030735  1.0000
  C   C15       1.0  0.9143530333051684  0.21506809116124767  0.4947012741742148  1.0000
  C   C16       1.0  0.8994872576797658  0.2992135238341427  0.36306413069802845  1.0000
  C   C17       1.0  0.8779955942302621  0.23442514715882432  0.2357544955732658  1.0000
  C   C18       1.0  0.8711658684041138  0.08340537040826777  0.2399834997947317  1.0000
  C   C19       1.0  0.8868940687559772  0.9982709171169313  0.3690129755607252  1.0000
  C   C20       1.0  0.909781408309682  0.06174696529957124  0.49688657869260316  1.0000
  C   C21       1.0  0.8621575946769406  0.32602077503651256  0.0999926758164551  1.0000
  O   O1        1.0  0.8424137624776539  0.2710026376930619  0.9839213104785854  1.0000
  H   H9        1.0  0.9120890539135739  0.2878042144833209  0.8498445991685317  1.0000
  H   H10       1.0  0.9029172699234593  0.41627524712909403  0.3602630534086255  1.0000
  H   H11       1.0  0.8543619680817464  0.03077010135826664  0.14317534243710697  1.0000
  H   H12       1.0  0.8828957115594607  0.8816520281703624  0.36787743833088515  1.0000
  H   H13       1.0  0.9116147067925549  0.7604019311859644  0.735741969953752  1.0000
  H   H14       1.0  0.8674522127756482  0.44260305847458564  0.09895743055828854  1.0000
  C   C22       1.0  0.9119535813295212  0.6429154827020394  0.07195699358663288  1.0000
  C   C23       1.0  0.9821033131239952  0.661319445392371  0.15044129082149182  1.0000
  C   C24       1.0  0.051375382871179154  0.666141840865556  0.08129754965014291  1.0000
  C   C25       1.0  0.051715074654760995  0.6525002722935098  0.9329102321968707  1.0000
  C   C26       1.0  0.9827543115114047  0.6365571351329888  0.8526094463535939  1.0000
  C   C27       1.0  0.9121808170031472  0.6338996139176079  0.9196308126748236  1.0000
  F   F1        1.0  0.11847591695911719  0.6823486546250586  0.15887270932659248  1.0000
  H   H15       1.0  0.7347268935742519  0.5173430722396319  0.1686388247985331  1.0000
  H   H16       1.0  0.10549939345092368  0.6556588413559513  0.8794861384684123  1.0000
  H   H17       1.0  0.7921638033079231  0.5552553684401051  0.6336505623602  1.0000
  Zn  Zn1       1.0  0.8280210080956216  0.6344161372423525  0.48815554643488746  1.0000
  Zn  Zn2       1.0  0.9961060793164688  0.6423979049358257  0.5034309328205606  1.0000
  C   C28       1.0  0.9121671863545662  0.629860580087195  0.759387335953633  1.0000
  C   C29       1.0  0.9119617267576965  0.6469553667222023  0.23219945646400775  1.0000
  C   C30       1.0  0.9106400416278199  0.9017676374434277  0.4907216558389058  1.0000
  C   C31       1.0  0.9134888235015295  0.3750465737837572  0.5008652038447652  1.0000
  O   O2        1.0  0.9757519029427264  0.6513339385948027  0.29177520413093827  1.0000
  O   O3        1.0  0.9759496957632248  0.6315389020699611  0.7114048348217707  1.0000
  O   O4        1.0  0.9747156476005773  0.8511072328242165  0.49445532299720824  1.0000
  O   O5        1.0  0.9769858936646274  0.43176561658068824  0.5087246025516701  1.0000
  O   O6        1.0  0.8471411363882676  0.8450484228753543  0.4828618714834508  1.0000
  O   O7        1.0  0.8483751751746322  0.625481824981176  0.6998113108216559  1.0000
  O   O8        1.0  0.8481773822111683  0.6452768297277186  0.2801799447326274  1.0000
  O   O9        1.0  0.8494113730146198  0.4257084962513278  0.4971294513368627  1.0000
