data_image0
_chemical_formula_structural       NC9NC5H8C6NO2H5C6NO2H2Zn2C4O8
_chemical_formula_sum              "N4 C30 H15 O12 Zn2"
_cell_length_a       17.807436237873137
_cell_length_b       9.273392599741051
_cell_length_c       9.273395971720358
_cell_angle_alpha    85.0859035794884
_cell_angle_beta     89.26497821809997
_cell_angle_gamma    87.79638846343423

_space_group_name_H-M_alt    "P 1"
_space_group_IT_number       1

loop_
  _space_group_symop_operation_xyz
  'x, y, z'

loop_
  _atom_site_type_symbol
  _atom_site_label
  _atom_site_symmetry_multiplicity
  _atom_site_fract_x
  _atom_site_fract_y
  _atom_site_fract_z
  _atom_site_occupancy
  N   N1        1.0  0.7005998167694453  0.5582625972499109  0.3995512560202905  1.0000
  C   C1        1.0  0.6402354303555525  0.5193000910976412  0.38720910531189046  1.0000
  C   C2        1.0  0.5651487682335122  0.47083502441713826  0.3718568100629729  1.0000
  C   C3        1.0  0.5475977200528439  0.39271934174279455  0.2549561208358091  1.0000
  C   C4        1.0  0.4746931962197472  0.34554060050024415  0.2399579039679529  1.0000
  C   C5        1.0  0.4182933051509097  0.3760585435303636  0.3418233604119447  1.0000
  C   C6        1.0  0.3408138123315974  0.326046396150266  0.3259756615239999  1.0000
  C   C7        1.0  0.2781186850509917  0.4165640651033356  0.3550137267317104  1.0000
  C   C8        1.0  0.2050730619997297  0.3691596233952183  0.34003021120748955  1.0000
  C   C9        1.0  0.1413112862523551  0.4626627352163009  0.3694795126014436  1.0000
  N   N2        1.0  0.09005984272302368  0.53783275555394  0.3931559287678932  1.0000
  C   C10       1.0  0.19414059852173843  0.23095123237898624  0.2959798074961397  1.0000
  C   C11       1.0  0.2559784481091555  0.14041827284635128  0.2669323816238627  1.0000
  C   C12       1.0  0.328907224616404  0.18738678704440595  0.28168976827029013  1.0000
  C   C13       1.0  0.43653255479826886  0.45472085027604825  0.45896898186857843  1.0000
  C   C14       1.0  0.5094912589689224  0.5016898951676754  0.4737937002364478  1.0000
  H   H1        1.0  0.5902037131789364  0.36857158222661157  0.17518321999468922  1.0000
  H   H2        1.0  0.4621910613267605  0.28686767634391974  0.14764852277123186  1.0000
  H   H3        1.0  0.2859998631296995  0.5244975462181852  0.387357041205427  1.0000
  H   H4        1.0  0.1378913302297579  0.19326531696964722  0.2841174616896709  1.0000
  H   H5        1.0  0.2473952684100045  0.033409675922009725  0.23325672194730473  1.0000
  H   H6        1.0  0.3759633191612315  0.1145751715613821  0.2603512525389651  1.0000
  H   H7        1.0  0.39464531036269  0.4782548379174268  0.5401795177120956  1.0000
  H   H8        1.0  0.5225155116027181  0.5617307412184886  0.5649482425452361  1.0000
  C   C15       1.0  0.8976251309672983  0.12440810895940203  0.3954081509588325  1.0000
  C   C16       1.0  0.8881807786129802  0.20961621011268106  0.26369425348456876  1.0000
  C   C17       1.0  0.8720999835877576  0.14668070798183597  0.1368742778349754  1.0000
  C   C18       1.0  0.8649305652263863  0.9966279047145805  0.13823210583583068  1.0000
  C   C19       1.0  0.8755480996712849  0.9102003237350178  0.26892008522409827  1.0000
  C   C20       1.0  0.8930417557081376  0.9716756370648133  0.39731139205044075  1.0000
  N   N3        1.0  0.8476844293826438  0.9323799645833128  0.0071983386059728495  1.0000
  O   O1        1.0  0.837945947899541  0.017316789774259208  0.8791980461015054  1.0000
  O   O2        1.0  0.8410665455299969  0.7987914787261945  0.007537472012802966  1.0000
  H   H9        1.0  0.8819838808849959  0.19803817463245688  0.7499691535760775  1.0000
  H   H10       1.0  0.8914700590343203  0.326330228216998  0.25937517625848217  1.0000
  H   H11       1.0  0.8645158030047873  0.2160237012152129  0.037782395885165077  1.0000
  H   H12       1.0  0.8719173304957526  0.793777987011231  0.2700072859120257  1.0000
  H   H13       1.0  0.8850700229260308  0.6715280678332248  0.6368954702863137  1.0000
  C   C21       1.0  0.8957371191633742  0.5524512982886367  0.9724260066078294  1.0000
  C   C22       1.0  0.8285796986742407  0.5888925248375845  0.0441865318753456  1.0000
  C   C23       1.0  0.7612857206135591  0.6117038925727789  0.9689037462849162  1.0000
  C   C24       1.0  0.7592409110528693  0.5985614121262096  0.8196140911818102  1.0000
  C   C25       1.0  0.8263448007175996  0.5645942163254731  0.7464221002231253  1.0000
  C   C26       1.0  0.8949297455191555  0.5436324777041133  0.8202935898695403  1.0000
  N   N4        1.0  0.689473284156173  0.6210219112962307  0.7426628033292806  1.0000
  O   O3        1.0  0.6239982368493998  0.6554512685083435  0.8145794450033739  1.0000
  O   O4        1.0  0.6871443211277563  0.6092585760341489  0.6096798543419699  1.0000
  H   H14       1.0  0.06105093227079616  0.3822091884014699  0.08578467247543586  1.0000
  H   H15       1.0  0.7105810249399791  0.6382782468389936  0.028170955146020967  1.0000
  Zn  Zn1       1.0  0.8129895791405409  0.5523630500314479  0.39771404315224035  1.0000
  Zn  Zn2       1.0  0.9776701144679514  0.5437204197976869  0.39500498345622326  1.0000
  C   C27       1.0  0.8951117846040318  0.5395523921833559  0.6600155602615272  1.0000
  C   C28       1.0  0.8955496973290845  0.5565328020366952  0.1327035825460916  1.0000
  C   C29       1.0  0.8939097193043746  0.8115841044565542  0.39119895097591195  1.0000
  C   C30       1.0  0.8967517157376534  0.2844993586676914  0.4015202658290258  1.0000
  O   O5        1.0  0.9579822358128287  0.5546164651228036  0.18546611301045535  1.0000
  O   O6        1.0  0.9576679682686396  0.534908088735494  0.6051964981552458  1.0000
  O   O7        1.0  0.9566964414396539  0.7545771653071953  0.3881252014637404  1.0000
  O   O8        1.0  0.958953706494747  0.33494740294603575  0.4025373024068357  1.0000
  O   O9        1.0  0.8317059309163596  0.7611360698340544  0.3901817251185078  1.0000
  O   O10       1.0  0.8326774484390485  0.5414687273091132  0.6072529487295737  1.0000
  O   O11       1.0  0.8329917179579042  0.5611770714747266  0.18752082780126567  1.0000
  O   O12       1.0  0.8339631885895037  0.3415079978539808  0.40459212540965006  1.0000
