data_image0
_chemical_formula_structural       NC9NC3NH7C7ONH7C6NO2H3Zn2C4O8
_chemical_formula_sum              "N5 C29 H17 O11 Zn2"
_cell_length_a       16.053384444249904
_cell_length_b       10.297852080636378
_cell_length_c       9.273395971720356
_cell_angle_alpha    84.96325203877277
_cell_angle_beta     89.67931749283619
_cell_angle_gamma    89.15396345524235

_space_group_name_H-M_alt    "P 1"
_space_group_IT_number       1

loop_
  _space_group_symop_operation_xyz
  'x, y, z'

loop_
  _atom_site_type_symbol
  _atom_site_label
  _atom_site_symmetry_multiplicity
  _atom_site_fract_x
  _atom_site_fract_y
  _atom_site_fract_z
  _atom_site_occupancy
  N   N1        1.0  0.7859060708704032  0.4191794843644224  0.40431799577515903  1.0000
  C   C1        1.0  0.7352525563810665  0.3991441509802962  0.32111793360650265  1.0000
  C   C2        1.0  0.6723040370504364  0.37424982339594864  0.2177631742636665  1.0000
  C   C3        1.0  0.6860929162815086  0.3635332329636647  0.07244124961540699  1.0000
  C   C4        1.0  0.6095421932828572  0.3387464645556124  0.014356593715237008  1.0000
  C   C5        1.0  0.5523159590630317  0.335721306120045  0.12737401693984096  1.0000
  C   C6        1.0  0.4616824005303785  0.31200250507149807  0.11598382730668555  1.0000
  C   C7        1.0  0.4056551169288029  0.3537436567277321  0.22036995459904898  1.0000
  C   C8        1.0  0.3201246062434571  0.3312495901098611  0.20946030459140785  1.0000
  C   C9        1.0  0.2633137773051069  0.37471117825823885  0.31648302018855423  1.0000
  N   N2        1.0  0.2176545547447309  0.40964818198169883  0.40251252334176413  1.0000
  C   C10       1.0  0.2898953581035894  0.26690222468457314  0.09417976767411274  1.0000
  C   C11       1.0  0.34491378818316965  0.22527850126998222  0.9900289294767481  1.0000
  C   C12       1.0  0.4302388843743554  0.2476109478113513  0.000497741437996521  1.0000
  N   N3        1.0  0.5913551066497986  0.357534302550071  0.2513775581891984  1.0000
  H   H1        1.0  0.7448919698136174  0.37270809902528956  0.015065287417384663  1.0000
  H   H2        1.0  0.5974157131074924  0.3260256590216215  0.9018909001649297  1.0000
  H   H3        1.0  0.4278574144635399  0.4053796508214069  0.3090730754710467  1.0000
  H   H4        1.0  0.2238882354843814  0.2490202448182053  0.08480627537844598  1.0000
  H   H5        1.0  0.3214210676440839  0.17528700094014393  0.9010658560388638  1.0000
  H   H6        1.0  0.47146106124902726  0.21292416892376578  0.9190761686049783  1.0000
  H   H7        1.0  0.5650708166470482  0.3589351331984316  0.35448795177539627  1.0000
  C   C13       1.0  0.001873089378710222  0.03297457704558494  0.40342347702812376  1.0000
  C   C14       1.0  0.9906398555611198  0.044179948069371644  0.2526591210476783  1.0000
  C   C15       1.0  0.984207975284249  0.9327839644255003  0.17633547591092236  1.0000
  C   C16       1.0  0.9904292983976517  0.8089328560189204  0.25261019890129566  1.0000
  C   C17       1.0  0.0016954469248697775  0.795842840753829  0.4034194199552934  1.0000
  C   C18       1.0  0.007146437020244089  0.9083979572847856  0.4778756979288629  1.0000
  C   C19       1.0  0.9725500839895651  0.947215353762993  0.017077883209839276  1.0000
  O   O1        1.0  0.9948875799236346  0.05050393659647013  0.9450957471355652  1.0000
  N   N4        1.0  0.9354134896855614  0.8469275469690012  0.9426990471276615  1.0000
  H   H8        1.0  0.023405697181737347  0.21906393718773123  0.6882903391133797  1.0000
  H   H9        1.0  0.9861408791765764  0.13995411725291484  0.19448585302716626  1.0000
  H   H10       1.0  0.988137387262625  0.7223287280645073  0.1947197536218359  1.0000
  H   H11       1.0  0.015801951781899467  0.8990083353263878  0.5940716690553924  1.0000
  H   H12       1.0  0.024323515594260266  0.5638200976708454  0.6881501529335083  1.0000
  H   H13       1.0  0.9313420887763083  0.8571508495306103  0.8299219798936712  1.0000
  H   H14       1.0  0.9069010126393512  0.7668986279484854  0.998289170804849  1.0000
  C   C20       1.0  0.002257441278578965  0.41838861237967695  0.9794827574225913  1.0000
  C   C21       1.0  0.9279984798099683  0.44967546371006883  0.05037980852668822  1.0000
  C   C22       1.0  0.8535091883286438  0.468685387172594  0.974261776712522  1.0000
  C   C23       1.0  0.8511656459381787  0.4568039072734576  0.8249770134548324  1.0000
  C   C24       1.0  0.9253795699898387  0.4277437258475383  0.752642458860445  1.0000
  C   C25       1.0  0.0013111038472097783  0.4104287998004543  0.8273602136864824  1.0000
  N   N5        1.0  0.7739313288513654  0.4754415581293343  0.7471623790275115  1.0000
  O   O2        1.0  0.7015262806494351  0.5049550006042949  0.8182395821025525  1.0000
  O   O3        1.0  0.7712806765445352  0.4647955430621647  0.6141779882351552  1.0000
  H   H15       1.0  0.1845860737569609  0.268847285804624  0.09514315570275755  1.0000
  H   H16       1.0  0.797437302853449  0.4914615677017744  0.032879106735743235  1.0000
  H   H17       1.0  0.1256255606824883  0.31351225239743585  0.5553916696334338  1.0000
  Zn  Zn1       1.0  0.9104993462766133  0.41642541402530364  0.4038053046656773  1.0000
  Zn  Zn2       1.0  0.09306124517358216  0.4123915592035848  0.4030370135563195  1.0000
  C   C26       1.0  0.0014893448183515004  0.40675878756438766  0.6670932355828028  1.0000
  C   C27       1.0  0.0020732396623828167  0.4220597792059582  0.13974921593559975  1.0000
  C   C28       1.0  0.0017311828499257899  0.6516986003079074  0.3976674031935945  1.0000
  C   C29       1.0  0.0018313396126270459  0.17711840652652347  0.4091751255624665  1.0000
  O   O4        1.0  0.07129271043869667  0.4217553626626959  0.19324454102247812  1.0000
  O   O5        1.0  0.07083013180200748  0.40400062563354494  0.6130143797500065  1.0000
  O   O6        1.0  0.07102448345065215  0.6017926286545787  0.395451117786624  1.0000
  O   O7        1.0  0.07109829661269029  0.2239633713262621  0.4108076950039916  1.0000
  O   O8        1.0  0.932462232538097  0.6048536032806686  0.396034623472592  1.0000
  O   O9        1.0  0.9322678806082254  0.4070631615735909  0.6135978084529021  1.0000
  O   O10       1.0  0.9327304612480632  0.4248178696317473  0.1938262340354009  1.0000
  O   O11       1.0  0.9325360473000102  0.2270258679887551  0.4113894962533702  1.0000
