data_image0
_chemical_formula_structural       NC6NC3H6C6ClH5C6NH7Zn2C4O8
_chemical_formula_sum              "N3 C25 H18 Cl1 Zn2 O8"
_cell_length_a       14.934028789175542
_cell_length_b       9.276545438789551
_cell_length_c       9.274774538082513
_cell_angle_alpha    85.10039089897613
_cell_angle_beta     90.32448570792074
_cell_angle_gamma    89.37211250715544

_space_group_name_H-M_alt    "P 1"
_space_group_IT_number       1

loop_
  _space_group_symop_operation_xyz
  'x, y, z'

loop_
  _atom_site_type_symbol
  _atom_site_label
  _atom_site_symmetry_multiplicity
  _atom_site_fract_x
  _atom_site_fract_y
  _atom_site_fract_z
  _atom_site_occupancy
  N   N1        1.0  0.8269704633576208  0.5910760741794903  0.40846904484194885  1.0000
  C   C1        1.0  0.7494888027277521  0.589983985903709  0.40778874248978797  1.0000
  C   C2        1.0  0.6530977325087594  0.5886204051647002  0.4069395113628145  1.0000
  C   C3        1.0  0.6049089945557846  0.6948179169899423  0.4729710650859269  1.0000
  C   C4        1.0  0.5114016626423007  0.6937230485241692  0.47229016648598315  1.0000
  C   C5        1.0  0.46517030291958267  0.5864848620124857  0.40561161266375456  1.0000
  C   C6        1.0  0.3685153068156539  0.5887857543040143  0.40704356445866147  1.0000
  N   N2        1.0  0.2910278647232197  0.5906117995625857  0.4081803274838687  1.0000
  C   C7        1.0  0.513359364049505  0.4788181356781536  0.3386659712594371  1.0000
  C   C8        1.0  0.46551100401446016  0.3622279249686281  0.2661737553129695  1.0000
  C   C9        1.0  0.6074932803771407  0.4810302152189013  0.34004145216655446  1.0000
  H   H1        1.0  0.639617486229213  0.7784917003160339  0.5249983944527357  1.0000
  H   H2        1.0  0.4750327946080085  0.776752423570902  0.5239166701155076  1.0000
  H   H3        1.0  0.4221062059781935  0.41206390517132563  0.1774893539044089  1.0000
  H   H4        1.0  0.4234768726584035  0.2986922341246384  0.34634665509870444  1.0000
  H   H5        1.0  0.5132728705870279  0.286710829852616  0.21921218937326217  1.0000
  H   H6        1.0  0.6453507769037968  0.3991053758780059  0.2891020205885815  1.0000
  C   C10       1.0  0.06170503260205027  0.16740814745440624  0.4080850834471659  1.0000
  C   C11       1.0  0.06152307504644016  0.25221897867037035  0.27487576062100727  1.0000
  C   C12       1.0  0.053205877299749425  0.18828185948723136  0.1445708265298289  1.0000
  C   C13       1.0  0.04487791431811728  0.038691264909535686  0.14547054612372534  1.0000
  C   C14       1.0  0.04643181087502632  0.952361922514586  0.2762339544687604  1.0000
  C   C15       1.0  0.05630203964257016  0.014268531627912756  0.40857675318450903  1.0000
  Cl  Cl1       1.0  0.05186779301053576  0.29633838254536315  0.9798065911612563  1.0000
  H   H7        1.0  0.1083886381498464  0.42834596052029256  0.6349594282460658  1.0000
  H   H8        1.0  0.06570767101784902  0.36896022243297244  0.27201576332841926  1.0000
  H   H9        1.0  0.03805162832064868  0.9888537877478298  0.04465911205613083  1.0000
  H   H10       1.0  0.04204373828140828  0.836128941004959  0.27358282677593104  1.0000
  H   H11       1.0  0.027197424253116758  0.7135312836720205  0.6419680566319839  1.0000
  C   C16       1.0  0.05737300145281351  0.5945279085362365  0.9845177381862952  1.0000
  C   C17       1.0  0.1202791012377757  0.6795561709621247  0.0512641686285058  1.0000
  C   C18       1.0  0.18727818655246187  0.7527025391707793  0.970499777368119  1.0000
  C   C19       1.0  0.1919154695845776  0.7411521495713723  0.8215128195265682  1.0000
  C   C20       1.0  0.1292763871417483  0.6593000538542902  0.7530654918948776  1.0000
  C   C21       1.0  0.06063404142109685  0.5871486916459134  0.8321440825297239  1.0000
  N   N3        1.0  0.2512135349509911  0.8375291675116774  0.04025069686499073  1.0000
  H   H12       1.0  0.9253253467602394  0.3127874473607779  0.11035768970969362  1.0000
  H   H13       1.0  0.11862363826158147  0.6863965216572843  0.16728927120508685  1.0000
  H   H14       1.0  0.24364900110823723  0.7968109050156016  0.757981981150825  1.0000
  H   H15       1.0  0.1332949081259529  0.655285127156539  0.6368876292646282  1.0000
  H   H16       1.0  0.9689172402263629  0.4017790246928857  0.5660124336034138  1.0000
  H   H17       1.0  0.24855558995332405  0.8465741375846034  0.15162748733768616  1.0000
  H   H18       1.0  0.30166185916838373  0.8920552990125822  0.9810086890162989  1.0000
  Zn  Zn1       1.0  0.9608874754053951  0.5909381580915554  0.40839405288298725  1.0000
  Zn  Zn2       1.0  0.15711100349480933  0.5907378013612663  0.40826711199329635  1.0000
  C   C22       1.0  0.06005229171374448  0.582799194870173  0.6719212217856783  1.0000
  C   C23       1.0  0.05794831887860208  0.5988785805286638  0.14474008441343766  1.0000
  C   C24       1.0  0.05729656759281451  0.8542439318239644  0.4027326695397442  1.0000
  C   C25       1.0  0.06070398739106131  0.3274321105620346  0.41392871264142067  1.0000
  O   O1        1.0  0.1326072470797094  0.6002563807586736  0.19846399039824214  1.0000
  O   O2        1.0  0.1343224863709275  0.5812682443440833  0.6181005545182403  1.0000
  O   O3        1.0  0.132096206231187  0.8004632902820996  0.40072889554583435  1.0000
  O   O4        1.0  0.13483345977952155  0.38106134614606346  0.41583554120802124  1.0000
  O   O5        1.0  0.9831649521591844  0.800614613376766  0.4008256237039902  1.0000
  O   O6        1.0  0.9853912209458969  0.581421300521595  0.6181972067300763  1.0000
  O   O7        1.0  0.9836759753591265  0.6004094017941288  0.19855890740488857  1.0000
  O   O8        1.0  0.9859021885373684  0.38121435592612013  0.4159305664130233  1.0000
