data_image0
_chemical_formula_structural       NC6NC2H4C9H10C7NH4Zn2C4O8
_chemical_formula_sum              "N3 C28 H18 Zn2 O8"
_cell_length_a       14.927258858638513
_cell_length_b       10.297183801781406
_cell_length_c       9.275157849593905
_cell_angle_alpha    86.08426286032497
_cell_angle_beta     89.74087902936087
_cell_angle_gamma    89.99762792032334

_space_group_name_H-M_alt    "P 1"
_space_group_IT_number       1

loop_
  _space_group_symop_operation_xyz
  'x, y, z'

loop_
  _atom_site_type_symbol
  _atom_site_label
  _atom_site_symmetry_multiplicity
  _atom_site_fract_x
  _atom_site_fract_y
  _atom_site_fract_z
  _atom_site_occupancy
  N   N1        1.0  0.8479973211974922  0.4078848183238384  0.409658374186203  1.0000
  C   C1        1.0  0.7704708300007712  0.40788479273418443  0.4096583847847399  1.0000
  C   C2        1.0  0.674038322593754  0.407884895982108  0.40965833488711545  1.0000
  C   C3        1.0  0.6273424490856682  0.385445368867551  0.28302114776783305  1.0000
  C   C4        1.0  0.5336311381164514  0.3854453908027051  0.28302101433796256  1.0000
  C   C5        1.0  0.48622225855405554  0.40788473620672216  0.4096583535917029  1.0000
  C   C6        1.0  0.3897896841555183  0.4078848394572643  0.40965830368815426  1.0000
  N   N2        1.0  0.312263192958798  0.4078848138676106  0.40965831428669164  1.0000
  C   C7        1.0  0.5329180650706211  0.4303242633238982  0.5362955407050616  1.0000
  C   C8        1.0  0.6266293760398381  0.43032424138874426  0.5362956741349325  1.0000
  H   H1        1.0  0.6633160242150032  0.36798615050050776  0.18449014812059872  1.0000
  H   H2        1.0  0.49821236871294283  0.36798632839946155  0.18449014309685197  1.0000
  H   H3        1.0  0.4969445566257115  0.4477834733344419  0.6348266484097755  1.0000
  H   H4        1.0  0.6620481451296333  0.44778339242014803  0.6348266553276991  1.0000
  C   C9        1.0  0.08013711411396424  0.02641101873837348  0.40986255199757493  1.0000
  C   C10       1.0  0.07795153541345257  0.03495519527428059  0.25821338487241685  1.0000
  C   C11       1.0  0.07683159231993433  0.922716139379458  0.18051908186330912  1.0000
  C   C12       1.0  0.07794269162485651  0.7997790025710255  0.25762561515598414  1.0000
  C   C13       1.0  0.0801319691117735  0.789348709750329  0.4094665963169519  1.0000
  C   C14       1.0  0.08121403877362646  0.9031322460364695  0.48459388151590566  1.0000
  C   C15       1.0  0.07446748676837572  0.9413894644291001  0.016499799440671488  1.0000
  C   C16       1.0  0.02223728412917314  0.8419764828333387  0.9362765087610558  1.0000
  C   C17       1.0  0.12430975822777973  0.8422449684062453  0.9316984339601713  1.0000
  H   H5        1.0  0.08098779399038541  0.3506571274514294  0.4682978402627201  1.0000
  H   H6        1.0  0.07710796957295776  0.12967608415488452  0.19966843963880687  1.0000
  H   H7        1.0  0.07712037809764594  0.7116854296005598  0.2007064517241144  1.0000
  H   H8        1.0  0.0828998096271299  0.8958127915519577  0.6015943984768328  1.0000
  H   H9        1.0  0.08425499770327276  0.5624323736111724  0.6962514547721974  1.0000
  H   H10       1.0  0.07370844413585381  0.041647607284108754  0.9637811187025217  1.0000
  H   H11       1.0  0.9921595736980097  0.7589080204263337  0.0018600099027421518  1.0000
  H   H12       1.0  0.9909189889331271  0.8819647698633745  0.8343149088237256  1.0000
  H   H13       1.0  0.15623559238616025  0.7593404028083792  0.9945017528204841  1.0000
  H   H14       1.0  0.15264833586539506  0.8823877945733072  0.8270598211003128  1.0000
  C   C18       1.0  0.08132325509004623  0.404207942791981  0.986468724283947  1.0000
  C   C19       1.0  0.15853697240647563  0.4465565831391787  0.05614277348123786  1.0000
  C   C20       1.0  0.23115521454991284  0.4991200527319901  0.9762373247137942  1.0000
  C   C21       1.0  0.22740630458990554  0.5101705325137351  0.8255726432656041  1.0000
  C   C22       1.0  0.15203439281782452  0.4667699673744392  0.7545575979596837  1.0000
  C   C23       1.0  0.07894583719607717  0.4115517484998701  0.832860483972143  1.0000
  C   C24       1.0  0.3092469449660343  0.5432777815238543  0.04921802715512679  1.0000
  N   N3        1.0  0.3720127006290037  0.5787686887016668  0.10788220262823889  1.0000
  H   H15       1.0  0.8633560205193601  0.360408162054658  0.09432908048273325  1.0000
  H   H16       1.0  0.28318991374365926  0.5512612185706853  0.7627285183392316  1.0000
  H   H17       1.0  0.15183616600949845  0.4735996209124846  0.6374896139736417  1.0000
  H   H18       1.0  0.933128558728394  0.3766077191564068  0.555472127764078  1.0000
  Zn  Zn1       1.0  0.981974407706094  0.4078814084089084  0.40966668584435184  1.0000
  Zn  Zn2       1.0  0.17828608419849934  0.4078776858666455  0.40966182983162525  1.0000
  C   C25       1.0  0.07939323514564879  0.4049885371135044  0.6728769786616395  1.0000
  C   C26       1.0  0.08086940006794846  0.41077219741907767  0.14645167755715427  1.0000
  C   C27       1.0  0.08014444872040954  0.6450874150103567  0.40379870145273067  1.0000
  C   C28       1.0  0.08011811930047569  0.17067175945829582  0.41553003241009523  1.0000
  O   O1        1.0  0.15521634035681836  0.412968141251582  0.20014157824748824  1.0000
  O   O2        1.0  0.15404231614342445  0.4027887843660274  0.6191829780306661  1.0000
  O   O3        1.0  0.15464792211068493  0.5966716777533398  0.4019003647349022  1.0000
  O   O4        1.0  0.15461066770513365  0.21908525622076924  0.4174240834857721  1.0000
  O   O5        1.0  0.0056497572079396985  0.5966738380574035  0.40190443218428085  1.0000
  O   O6        1.0  0.005044151441872649  0.40279250473663963  0.6191869678300892  1.0000
  O   O7        1.0  0.006218180582017178  0.4129718013202033  0.20014383542181013  1.0000
  O   O8        1.0  0.005612507623237844  0.21908890793550964  0.41742644871165036  1.0000
