data_image0
_chemical_formula_structural       NC6NC2H4C6NCH9C6ClH3Zn2C4O8
_chemical_formula_sum              "N3 C25 H16 Cl1 Zn2 O8"
_cell_length_a       14.927258858638513
_cell_length_b       9.273386996610927
_cell_length_c       10.302974078461046
_cell_angle_alpha    85.46621229036245
_cell_angle_beta     89.99986750987136
_cell_angle_gamma    89.39858807063658

_space_group_name_H-M_alt    "P 1"
_space_group_IT_number       1

loop_
  _space_group_symop_operation_xyz
  'x, y, z'

loop_
  _atom_site_type_symbol
  _atom_site_label
  _atom_site_symmetry_multiplicity
  _atom_site_fract_x
  _atom_site_fract_y
  _atom_site_fract_z
  _atom_site_occupancy
  N   N1        1.0  0.83327532382419  0.5788743471924658  0.5656243202038407  1.0000
  C   C1        1.0  0.755748832842487  0.5788743186713252  0.5656243297822607  1.0000
  C   C2        1.0  0.6593163245474405  0.578874433815828  0.5656242847078243  1.0000
  C   C3        1.0  0.6124186753324321  0.5551741267147576  0.45156662857933116  1.0000
  C   C4        1.0  0.5187073638218507  0.5551741523609404  0.4515665083494995  1.0000
  C   C5        1.0  0.4715002617139447  0.5788742561943945  0.5656243017484877  1.0000
  C   C6        1.0  0.3750676864273432  0.5788743713418629  0.5656242566687115  1.0000
  N   N2        1.0  0.29754119544563984  0.5788743428207221  0.5656242662471314  1.0000
  C   C7        1.0  0.5183978439373979  0.602574563298431  0.6796819578716407  1.0000
  C   C8        1.0  0.6121091554479796  0.6025745376522482  0.6796820781014723  1.0000
  H   H1        1.0  0.6482352572255197  0.536733951546293  0.362823225992299  1.0000
  H   H2        1.0  0.4831316004258125  0.536734149163326  0.36282322125480215  1.0000
  H   H3        1.0  0.4825813290992978  0.6210147281452008  0.7684254578149743  1.0000
  H   H4        1.0  0.6476849182067359  0.621014638217833  0.7684254641434629  1.0000
  C   C9        1.0  0.06816735074500802  0.15522034615055633  0.5662622669471304  1.0000
  C   C10       1.0  0.08389705198140729  0.23869595576767935  0.4488767538989924  1.0000
  C   C11       1.0  0.0911919214734929  0.1741930772687459  0.3314839851872182  1.0000
  C   C12       1.0  0.08286744097898208  0.023892413453576962  0.3284752691405368  1.0000
  C   C13       1.0  0.06871644571163854  0.9394538894043248  0.4454530111078212  1.0000
  C   C14       1.0  0.06265781067894416  0.0025172030601361456  0.5649976085066053  1.0000
  N   N3        1.0  0.08940500657167716  0.9543531105715566  0.20865881066581315  1.0000
  C   C15       1.0  0.10432860837763425  0.03224961873115494  0.0819684098768878  1.0000
  H   H5        1.0  0.086469550035992  0.41736504468586255  0.7794062607067571  1.0000
  H   H6        1.0  0.08846627227336695  0.3553418490131537  0.4472839746199866  1.0000
  H   H7        1.0  0.10248932609990674  0.2427952034825136  0.24329816782827907  1.0000
  H   H8        1.0  0.06448803085112442  0.8230528202639157  0.4434049454134197  1.0000
  H   H9        1.0  0.09564200166539694  0.8711552203800024  0.8812048937331773  1.0000
  H   H10       1.0  0.08307155139725203  0.8419859880833008  0.21135095497325132  1.0000
  H   H11       1.0  0.04879306275244802  0.11082318567756365  0.059411505938451674  1.0000
  H   H12       1.0  0.16916953513700023  0.08980136343035294  0.08217790061017527  1.0000
  H   H13       1.0  0.1065869285060666  0.9548130318906906  0.005110209424196152  1.0000
  C   C16       1.0  0.06541259778875208  0.578868803493569  0.18438743161829074  1.0000
  C   C17       1.0  0.05080406269468974  0.4290276179768821  0.19384475616639452  1.0000
  C   C18       1.0  0.04355575200805075  0.3546805029508526  0.08158043147509209  1.0000
  C   C19       1.0  0.050804102231014614  0.42902769945317676  0.9587368570736734  1.0000
  C   C20       1.0  0.06541259598793708  0.5788687290238399  0.9468724508028651  1.0000
  C   C21       1.0  0.07264566936165906  0.6530589401612796  0.06035149226528058  1.0000
  Cl  Cl1       1.0  0.02530622410220308  0.16749326515637564  0.09489841932598342  1.0000
  H   H14       1.0  0.04499391933372077  0.3694322794001528  0.2881313847025182  1.0000
  H   H15       1.0  0.044993982067876664  0.3694322588142592  0.8729304186593336  1.0000
  H   H16       1.0  0.08391216990903727  0.7686209598654676  0.05212939468550215  1.0000
  Zn  Zn1       1.0  0.9672524587959853  0.5788704801636304  0.5656318120328292  1.0000
  Zn  Zn2       1.0  0.16356414819588283  0.5788663928255093  0.5656274417994036  1.0000
  C   C22       1.0  0.06544795703868633  0.5731214499631925  0.8027550070843776  1.0000
  C   C23       1.0  0.06537078183424687  0.5846172432862258  0.3285043714073228  1.0000
  C   C24       1.0  0.06369463506517037  0.8423600757302668  0.5600631788044772  1.0000
  C   C25       1.0  0.06712404809106087  0.3153768842161866  0.5711962714915402  1.0000
  O   O1        1.0  0.13985605198437837  0.5865386271275554  0.3768696838386203  1.0000
  O   O2        1.0  0.13995872387676436  0.5711958755755624  0.754386005649408  1.0000
  O   O3        1.0  0.13854188992363933  0.7886094708904652  0.5584106350117626  1.0000
  O   O4        1.0  0.1412728188825163  0.36912504213434705  0.5728449571199636  1.0000
  O   O5        1.0  0.9895437211177968  0.7886118308577579  0.5584142967069292  1.0000
  O   O6        1.0  0.9909605437960689  0.5711999688487848  0.7543895955349171  1.0000
  O   O7        1.0  0.9908578722901994  0.5865426701270449  0.3768717129160766  1.0000
  O   O8        1.0  0.9922746392517698  0.36912907481510704  0.5728470835483823  1.0000
