data_image0
_chemical_formula_structural       NC9NC5H8C7NH5C6OCH7Zn2C4O8
_chemical_formula_sum              "N3 C32 H20 O9 Zn2"
_cell_length_a       17.807436237873137
_cell_length_b       10.302819778424748
_cell_length_c       9.273891588657152
_cell_angle_alpha    86.07629757388266
_cell_angle_beta     89.08663702953788
_cell_angle_gamma    88.39001009685678

_space_group_name_H-M_alt    "P 1"
_space_group_IT_number       1

loop_
  _space_group_symop_operation_xyz
  'x, y, z'

loop_
  _atom_site_type_symbol
  _atom_site_label
  _atom_site_symmetry_multiplicity
  _atom_site_fract_x
  _atom_site_fract_y
  _atom_site_fract_z
  _atom_site_occupancy
  N   N1        1.0  0.7120685029587774  0.3741104279191829  0.39850376119741865  1.0000
  C   C1        1.0  0.6515165641263586  0.3388304399773303  0.38626787219549585  1.0000
  C   C2        1.0  0.5761966074870111  0.29494602005692094  0.3710477548358302  1.0000
  C   C3        1.0  0.5584441498309916  0.2225906373141886  0.254501037911812  1.0000
  C   C4        1.0  0.4853126245818902  0.17987002639473462  0.23963157240972846  1.0000
  C   C5        1.0  0.428884943307302  0.20912708654502407  0.34127280427866413  1.0000
  C   C6        1.0  0.3511647189522917  0.1638417133990966  0.32556151076239703  1.0000
  C   C7        1.0  0.28890462214255  0.24581058193689206  0.3543521509922398  1.0000
  C   C8        1.0  0.2156307479077078  0.20288712031526537  0.33949787056708325  1.0000
  C   C9        1.0  0.1523193862266579  0.2875498531072693  0.36869242216397835  1.0000
  N   N2        1.0  0.1014300420741006  0.3556128429835972  0.3921640352881315  1.0000
  C   C10       1.0  0.2040335075042918  0.07773665673607509  0.29582481309760245  1.0000
  C   C11       1.0  0.2654362615758769  0.995753863258576  0.2670248608125961  1.0000
  C   C12       1.0  0.3385913576727491  0.03828104851827608  0.2816543358915726  1.0000
  C   C13       1.0  0.4473280976925539  0.2819786934366182  0.4580628528684316  1.0000
  C   C14       1.0  0.5205129967486997  0.32450754190321973  0.47275955551203075  1.0000
  H   H1        1.0  0.6010705604641672  0.19945517771650012  0.1749042893165531  1.0000
  H   H2        1.0  0.47266774615777324  0.12544435450949676  0.14759494999362202  1.0000
  H   H3        1.0  0.2973088549241815  0.3435102745720089  0.3864039246795514  1.0000
  H   H4        1.0  0.1476026889715754  0.04361393136347047  0.28406513204134654  1.0000
  H   H5        1.0  0.2563375588430899  0.8988630199634721  0.2336407050131919  1.0000
  H   H6        1.0  0.3852936911762652  0.9723815728621846  0.2605117584063504  1.0000
  H   H7        1.0  0.4054143889024701  0.3045871300753429  0.539096414579386  1.0000
  H   H8        1.0  0.5336895867984385  0.3801438818226709  0.5636400370078514  1.0000
  C   C15       1.0  0.9067528372157467  0.9836085001182869  0.3953400681120933  1.0000
  C   C16       1.0  0.8625324964297116  0.9768356446113889  0.5222809467308751  1.0000
  C   C17       1.0  0.8405324413079152  0.8563635058171402  0.5854352346855668  1.0000
  C   C18       1.0  0.8625325570523343  0.7415346319590728  0.5222809504674748  1.0000
  C   C19       1.0  0.9067528494750347  0.7461045270661764  0.3953401107537482  1.0000
  C   C20       1.0  0.9286319923318911  0.8676626230953599  0.332532929982162  1.0000
  C   C21       1.0  0.7952001819692709  0.8505494416537209  0.7155682873500877  1.0000
  N   N3        1.0  0.7587678795157468  0.8458768659536186  0.8201525760457509  1.0000
  H   H9        1.0  0.9235024252099095  0.3134963187096731  0.34725733558554617  1.0000
  H   H10       1.0  0.8450924876600844  0.06502317615868701  0.5723447819074788  1.0000
  H   H11       1.0  0.8450925815273116  0.6488735672967828  0.5723447461365666  1.0000
  H   H12       1.0  0.9627331563171039  0.8720361664791386  0.23464069449466662  1.0000
  H   H13       1.0  0.9235024938147234  0.4205132357534335  0.34725744401943104  1.0000
  C   C22       1.0  0.9079836422181555  0.3613596268587483  0.9720447239240501  1.0000
  C   C23       1.0  0.969510632454072  0.4132735134218817  0.03961663249775827  1.0000
  C   C24       1.0  0.026776011537779303  0.47508448061665765  0.9588744843022191  1.0000
  C   C25       1.0  0.02271917494539232  0.48529715315157795  0.8074999265224405  1.0000
  C   C26       1.0  0.9627706059177542  0.4325221648489732  0.7385601198067318  1.0000
  C   C27       1.0  0.905522025003509  0.3683534003756938  0.8186354456961367  1.0000
  O   O1        1.0  0.08625121631875232  0.5254973479394494  0.033112708110084155  1.0000
  C   C28       1.0  0.1481194137773931  0.5908847282563443  0.9650289907141915  1.0000
  H   H14       1.0  0.7292794129416184  0.2901090937434691  0.08597165786727402  1.0000
  H   H15       1.0  0.06599836380770728  0.5328174723616044  0.7418731132556271  1.0000
  H   H16       1.0  0.962164390828026  0.4392421811449831  0.621488814666638  1.0000
  H   H17       1.0  0.7863500193274231  0.3151824626841202  0.5451331774441224  1.0000
  H   H18       1.0  0.12795208016124082  0.6796993581853219  0.9009617877936806  1.0000
  H   H19       1.0  0.17944576245381838  0.5249624507075925  0.8941062559678801  1.0000
  H   H20       1.0  0.18657811100388128  0.6200901972032944  0.04924634520421291  1.0000
  Zn  Zn1       1.0  0.8244298070425635  0.3687690291127023  0.3966825897497804  1.0000
  Zn  Zn2       1.0  0.9890686853361342  0.36094375673063595  0.39399705709891575  1.0000
  C   C29       1.0  0.9059856597428957  0.3618594385065999  0.6586117167151788  1.0000
  C   C30       1.0  0.907514630075879  0.36785490117544306  0.13206804228740343  1.0000
  C   C31       1.0  0.9067656798068356  0.6019293157749055  0.3895960634289638  1.0000
  C   C32       1.0  0.9067345536087223  0.12778346738378543  0.40108377334038714  1.0000
  O   O2        1.0  0.9698368216060651  0.36705946046419835  0.18475418411556088  1.0000
  O   O3        1.0  0.9686205685597106  0.3567146956916134  0.6038869027984871  1.0000
  O   O4        1.0  0.9692495980130853  0.5505742100981843  0.38665487317835867  1.0000
  O   O5        1.0  0.9692077362868529  0.17319995712239808  0.40198610657235734  1.0000
  O   O6        1.0  0.844290699908698  0.5565128313926724  0.38869354118519683  1.0000
  O   O7        1.0  0.8436616706753925  0.36265487618118497  0.6059254939474141  1.0000
  O   O8        1.0  0.8448779288108575  0.3729995813921314  0.18679104220767262  1.0000
  O   O9        1.0  0.8442488431743352  0.17914006965729262  0.4040230727366599  1.0000
