data_image0
_chemical_formula_structural       NC9NC5H8C9H8C7F3H5Zn2C4O8
_chemical_formula_sum              "N2 C34 H21 F3 Zn2 O8"
_cell_length_a       17.807436237873137
_cell_length_b       9.275152443626249
_cell_length_c       9.272291681409872
_cell_angle_alpha    85.85885421009831
_cell_angle_beta     89.81650948764641
_cell_angle_gamma    88.96355956710403

_space_group_name_H-M_alt    "P 1"
_space_group_IT_number       1

loop_
  _space_group_symop_operation_xyz
  'x, y, z'

loop_
  _atom_site_type_symbol
  _atom_site_label
  _atom_site_symmetry_multiplicity
  _atom_site_fract_x
  _atom_site_fract_y
  _atom_site_fract_z
  _atom_site_occupancy
  N   N1        1.0  0.709399800245448  0.5273931413949126  0.39293976492337784  1.0000
  C   C1        1.0  0.648562117836524  0.4882111742489974  0.3808416218080545  1.0000
  C   C2        1.0  0.5728867275291496  0.4394731219017382  0.3657928451607516  1.0000
  C   C3        1.0  0.5539410125115591  0.35917266586518926  0.24951987359598538  1.0000
  C   C4        1.0  0.4804631278451358  0.3117271734963033  0.23481719980022128  1.0000
  C   C5        1.0  0.4248799159584093  0.34416259077198275  0.3363529618338208  1.0000
  C   C6        1.0  0.3467928760272888  0.2938686426008696  0.32081847835322347  1.0000
  C   C7        1.0  0.2851990741781569  0.3849030696889999  0.34928911701016707  1.0000
  C   C8        1.0  0.21157776553569757  0.337232237516107  0.3346024284842275  1.0000
  C   C9        1.0  0.1489509956112655  0.4312588044308385  0.36346640990105084  1.0000
  N   N2        1.0  0.09861202398332822  0.5068496694621437  0.3866722675473311  1.0000
  C   C10       1.0  0.1989651126788814  0.19824025661738953  0.29141797821139814  1.0000
  C   C11       1.0  0.2597014292438519  0.10719036730259418  0.26293808143811725  1.0000
  C   C12       1.0  0.3332001700742526  0.15442114969869492  0.27740150345945935  1.0000
  C   C13       1.0  0.44452081973495444  0.42501410877209905  0.45286733444513616  1.0000
  C   C14       1.0  0.5180498195458646  0.47224669645096173  0.46739798391898413  1.0000
  H   H1        1.0  0.5959048093171948  0.33352338410867066  0.17000660130818823  1.0000
  H   H2        1.0  0.4668916641813889  0.25132796839358784  0.1429860700237522  1.0000
  H   H3        1.0  0.2943824384952219  0.4934095344792664  0.3809592601396413  1.0000
  H   H4        1.0  0.1422584205470002  0.16034349866942807  0.27979153183443106  1.0000
  H   H5        1.0  0.2498194366329837  0.9995832242376552  0.22993224372275822  1.0000
  H   H6        1.0  0.3793801362183153  0.08123209247360583  0.25651638546169164  1.0000
  H   H7        1.0  0.4032762101171189  0.45007706108072604  0.5338196326101634  1.0000
  H   H8        1.0  0.5321523358342137  0.5339914600916318  0.5580680949865664  1.0000
  C   C15       1.0  0.9017995976334405  0.09361845812200431  0.3913133978368597  1.0000
  C   C16       1.0  0.8742443357887636  0.17674100126158415  0.26928051197960357  1.0000
  C   C17       1.0  0.8536614446729879  0.11129472523751581  0.14484228304532507  1.0000
  C   C18       1.0  0.860308692956055  0.9615602651759247  0.13997177267658323  1.0000
  C   C19       1.0  0.8863914405402737  0.8768182438752491  0.26099328430864266  1.0000
  C   C20       1.0  0.9062193946709028  0.9406130520543208  0.38831103563323  1.0000
  C   C21       1.0  0.839473113552277  0.8943803523078578  0.011100442391931642  1.0000
  C   C22       1.0  0.8220281470419174  0.8380994569368492  0.9031908836780901  1.0000
  C   C23       1.0  0.8008621193246813  0.7698005254645381  0.7722615532684642  1.0000
  H   H9        1.0  0.010802480720207175  0.17203486929861156  0.6774756551288662  1.0000
  H   H10       1.0  0.8702864971937726  0.2934634237277986  0.2688907650217433  1.0000
  H   H11       1.0  0.8332290225949349  0.17779626837018192  0.051801703509066106  1.0000
  H   H12       1.0  0.8895382727945117  0.7603069403324283  0.2569208963370797  1.0000
  H   H13       1.0  0.9772118871573865  0.6432889963507163  0.5840937676380118  1.0000
  H   H14       1.0  0.8146424118928183  0.6524691482010213  0.7855079136513278  1.0000
  H   H15       1.0  0.7396613872448374  0.7854407633689015  0.7535107638006738  1.0000
  H   H16       1.0  0.8322254137782938  0.819677411813997  0.6784395541991177  1.0000
  C   C24       1.0  0.9024094086194749  0.5134972550716399  0.9664901023964755  1.0000
  C   C25       1.0  0.9524446597114596  0.4200680441989354  0.04621786498005287  1.0000
  C   C26       1.0  0.006628281759846863  0.33934620177330377  0.9768177104921548  1.0000
  C   C27       1.0  0.012959810825589505  0.3515886629700147  0.8257799031637347  1.0000
  C   C28       1.0  0.9614032061212835  0.44031906812030147  0.7449229756176803  1.0000
  C   C29       1.0  0.9056095661423125  0.5207342606356273  0.8131343289254067  1.0000
  C   C30       1.0  0.07016138429566121  0.2612039311637069  0.7505757190892605  1.0000
  F   F1        1.0  0.1329175685952579  0.2335340537977266  0.8365685750881168  1.0000
  F   F2        1.0  0.09301642377133801  0.33218893853482684  0.6218854983045534  1.0000
  F   F3        1.0  0.03853365877548409  0.13141858047622668  0.7215807545341208  1.0000
  H   H17       1.0  0.7981718892918757  0.810503039308696  0.047250750120672244  1.0000
  H   H18       1.0  0.9506663827763535  0.41154940531414774  0.16332298458031436  1.0000
  H   H19       1.0  0.044099498633338056  0.26811277025722724  0.041667260125857405  1.0000
  H   H20       1.0  0.9635644818120916  0.44405286034694424  0.6278870671610254  1.0000
  H   H21       1.0  0.7361346343372983  0.6678722737118252  0.7020429410925986  1.0000
  Zn  Zn1       1.0  0.8217180508086723  0.5214609622886555  0.3911394512378965  1.0000
  Zn  Zn2       1.0  0.9862937386742099  0.51277019412758  0.38848447401626446  1.0000
  C   C31       1.0  0.904973020760576  0.5136210976869815  0.6531208642917876  1.0000
  C   C32       1.0  0.9030405759138386  0.5206117846911917  0.1265031670086476  1.0000
  C   C33       1.0  0.9053583753990118  0.7804641179532934  0.3831341613064728  1.0000
  C   C34       1.0  0.902655156366213  0.2537670353614636  0.39648995389709824  1.0000
  O   O1        1.0  0.9657079844438148  0.5196950929021906  0.17919748551286996  1.0000
  O   O2        1.0  0.9672147440526055  0.5079406060223699  0.5984110683931362  1.0000
  O   O3        1.0  0.9675250865307459  0.7234197768505899  0.3803949037988254  1.0000
  O   O4        1.0  0.9653975854524264  0.3042159344322488  0.3972135428900209  1.0000
  O   O5        1.0  0.8426141478688305  0.7300152249512242  0.3824103832625655  1.0000
  O   O6        1.0  0.842303814138254  0.5145377861536591  0.6004264648521656  1.0000
  O   O7        1.0  0.8407970477661  0.5262922079601708  0.18121114898367666  1.0000
  O   O8        1.0  0.8404866491263342  0.31081304009918925  0.39922731447641246  1.0000
