data_image0
_chemical_formula_structural       Zn4O13C24HCl5HClHCl2H
_chemical_formula_sum              "Zn4 O13 C24 H4 Cl8"
_cell_length_a       12.759401
_cell_length_b       12.759399
_cell_length_c       12.759392999999998
_cell_angle_alpha    89.968645
_cell_angle_beta     90.019596
_cell_angle_gamma    89.976086

_space_group_name_H-M_alt    "P 1"
_space_group_IT_number       1

loop_
  _space_group_symop_operation_xyz
  'x, y, z'

loop_
  _atom_site_type_symbol
  _atom_site_label
  _atom_site_symmetry_multiplicity
  _atom_site_fract_x
  _atom_site_fract_y
  _atom_site_fract_z
  _atom_site_occupancy
  Zn  Zn1       1.0  0.6062010000000002  0.41820799999999997  0.593976  1.0000
  Zn  Zn2       1.0  0.6060650000000001  0.593923  0.418294  1.0000
  Zn  Zn3       1.0  0.4305000000000004  0.41825999999999997  0.418315  1.0000
  Zn  Zn4       1.0  0.43046400000000007  0.593846  0.593935  1.0000
  O   O1        1.0  0.5183080000000002  0.506059  0.50613  1.0000
  O   O2        1.0  0.753204  0.441527  0.57068  1.0000
  O   O3        1.0  0.5827340000000001  0.570675  0.271275  1.0000
  O   O4        1.0  0.45387900000000014  0.271232  0.441644  1.0000
  O   O5        1.0  0.753104  0.570625  0.441606  1.0000
  O   O6        1.0  0.5829660000000003  0.271194  0.570701  1.0000
  O   O7        1.0  0.4537470000000002  0.4416159999999999  0.271291  1.0000
  O   O8        1.0  0.283474  0.4415409999999999  0.441604  1.0000
  O   O9        1.0  0.4538180000000004  0.570493  0.740962  1.0000
  O   O10       1.0  0.2834479999999999  0.570544  0.570631  1.0000
  O   O11       1.0  0.5829310000000002  0.441452  0.740992  1.0000
  O   O12       1.0  0.5826990000000004  0.740934  0.441567  1.0000
  O   O13       1.0  0.45368600000000026  0.7408769999999998  0.570609  1.0000
  C   C1        1.0  0.2453399999999999  0.50604  0.506116  1.0000
  C   C2        1.0  0.12856400000000012  0.506058  0.506134  1.0000
  C   C3        1.0  0.963984  0.573347  0.57322  1.0000
  C   C4        1.0  0.0737080000000001  0.573336  0.573209  1.0000
  C   C5        1.0  0.0736889999999999  0.438795  0.439058  1.0000
  C   C6        1.0  0.9639670000000002  0.438812  0.43906500000000004  1.0000
  C   C7        1.0  0.518203  0.779027  0.506104  1.0000
  C   C8        1.0  0.5182540000000002  0.8958029999999998  0.506128  1.0000
  C   C9        1.0  0.5854310000000003  0.9505549999999998  0.573384  1.0000
  C   C10       1.0  0.5854729999999999  0.060278999999999965  0.573409  1.0000
  C   C11       1.0  0.45115700000000014  0.060489  0.438914  1.0000
  C   C12       1.0  0.4511100000000002  0.950767  0.438895  1.0000
  C   C13       1.0  0.7923410000000002  0.506079  0.506145  1.0000
  C   C14       1.0  0.909117  0.506087  0.506152  1.0000
  C   C15       1.0  0.518386  0.505958  0.7801639999999999  1.0000
  C   C16       1.0  0.5184200000000003  0.505915  0.8969400000000001  1.0000
  C   C17       1.0  0.5184020000000004  0.232026  0.506172  1.0000
  C   C18       1.0  0.5183420000000003  0.11524899999999993  0.506173  1.0000
  C   C19       1.0  0.5182900000000001  0.506084  0.233163  1.0000
  C   C20       1.0  0.5184600000000003  0.505831  0.116387  1.0000
  C   C21       1.0  0.5856540000000001  0.43871299999999985  0.95182  1.0000
  C   C22       1.0  0.5856720000000002  0.438668  0.06154400000000004  1.0000
  C   C23       1.0  0.4512179999999999  0.573036  0.06149899999999997  1.0000
  C   C24       1.0  0.45119599999999993  0.573075  0.951777  1.0000
  H   H1        1.0  0.9192930000000002  0.384039  0.384445  1.0000
  Cl  Cl1       1.0  0.14264999999999994  0.354219  0.354732  1.0000
  Cl  Cl2       1.0  0.36664300000000005  0.881931  0.354346  1.0000
  Cl  Cl3       1.0  0.14267900000000003  0.657898  0.657525  1.0000
  Cl  Cl4       1.0  0.6701590000000001  0.35428  0.882885  1.0000
  Cl  Cl5       1.0  0.3666600000000001  0.657559  0.882781  1.0000
  H   H2        1.0  0.6401740000000002  0.104854  0.628178  1.0000
  Cl  Cl6       1.0  0.895034  0.6579249999999999  0.657553  1.0000
  H   H3        1.0  0.39649300000000004  0.10525500000000007  0.384174  1.0000
  Cl  Cl7       1.0  0.6698360000000001  0.881461  0.657909  1.0000
  Cl  Cl8       1.0  0.6702080000000001  0.35419  0.13053099999999995  1.0000
  H   H4        1.0  0.3964890000000001  0.627718  0.10616099999999994  1.0000
