data_image0
_chemical_formula_structural       Zn4O13C24HF5HF2HF2
_chemical_formula_sum              "Zn4 O13 C24 H3 F9"
_cell_length_a       12.759401
_cell_length_b       12.7594
_cell_length_c       12.759392999999998
_cell_angle_alpha    90.03093000000001
_cell_angle_beta     90.01857499999998
_cell_angle_gamma    90.015071

_space_group_name_H-M_alt    "P 1"
_space_group_IT_number       1

loop_
  _space_group_symop_operation_xyz
  'x, y, z'

loop_
  _atom_site_type_symbol
  _atom_site_label
  _atom_site_symmetry_multiplicity
  _atom_site_fract_x
  _atom_site_fract_y
  _atom_site_fract_z
  _atom_site_occupancy
  Zn  Zn1       1.0  0.6062550000000002  0.5818079999999999  0.59399  1.0000
  Zn  Zn2       1.0  0.6061500000000002  0.40608900000000003  0.418312  1.0000
  Zn  Zn3       1.0  0.43055700000000036  0.581752  0.418329  1.0000
  Zn  Zn4       1.0  0.43054600000000015  0.40616900000000006  0.593953  1.0000
  O   O1        1.0  0.5183770000000003  0.49395500000000003  0.5061459999999999  1.0000
  O   O2        1.0  0.7532620000000003  0.5584879999999999  0.570694  1.0000
  O   O3        1.0  0.5828180000000001  0.429334  0.271293  1.0000
  O   O4        1.0  0.4539130000000003  0.728781  0.44165299999999985  1.0000
  O   O5        1.0  0.753185  0.42938799999999994  0.441624  1.0000
  O   O6        1.0  0.582997  0.7288220000000001  0.5707099999999999  1.0000
  O   O7        1.0  0.45381099999999996  0.5583929999999999  0.27130499999999996  1.0000
  O   O8        1.0  0.28353500000000037  0.5584709999999999  0.4416169999999999  1.0000
  O   O9        1.0  0.4538940000000003  0.42952500000000005  0.740979  1.0000
  O   O10       1.0  0.2835270000000001  0.429471  0.570648  1.0000
  O   O11       1.0  0.5829860000000002  0.5585660000000001  0.741006  1.0000
  O   O12       1.0  0.5828070000000001  0.25907899999999995  0.441589  1.0000
  O   O13       1.0  0.453792  0.259138  0.5706319999999999  1.0000
  C   C1        1.0  0.24540999999999996  0.4939730000000001  0.506131  1.0000
  C   C2        1.0  0.128633  0.49395500000000003  0.50615  1.0000
  C   C3        1.0  0.07381199999999999  0.561056  0.57346  1.0000
  C   C4        1.0  0.964088  0.561045  0.573467  1.0000
  C   C5        1.0  0.9640160000000002  0.4268240000000001  0.43884999999999985  1.0000
  C   C6        1.0  0.07373800000000008  0.426841  0.438839  1.0000
  C   C7        1.0  0.5183150000000001  0.220987  0.506127  1.0000
  C   C8        1.0  0.5183850000000001  0.10421100000000005  0.506154  1.0000
  C   C9        1.0  0.58557  0.049459999999999844  0.573412  1.0000
  C   C10       1.0  0.585629  0.9397360000000001  0.5734399999999998  1.0000
  C   C11       1.0  0.45131500000000024  0.9395230000000003  0.4389449999999998  1.0000
  C   C12       1.0  0.4512510000000001  0.04924499999999998  0.43892299999999984  1.0000
  C   C13       1.0  0.7924100000000005  0.49393600000000004  0.506161  1.0000
  C   C14       1.0  0.9091870000000001  0.49392800000000014  0.5061679999999998  1.0000
  C   C15       1.0  0.518451  0.49406100000000003  0.7801789999999998  1.0000
  C   C16       1.0  0.5184820000000001  0.49410600000000016  0.896956  1.0000
  C   C17       1.0  0.518468  0.7679880000000001  0.506188  1.0000
  C   C18       1.0  0.518507  0.884765  0.506205  1.0000
  C   C19       1.0  0.5183650000000002  0.493925  0.23317899999999997  1.0000
  C   C20       1.0  0.518537  0.4941750000000001  0.116402  1.0000
  C   C21       1.0  0.4513320000000003  0.561319  0.9518239999999998  1.0000
  C   C22       1.0  0.4513560000000003  0.561352  0.06154799999999992  1.0000
  C   C23       1.0  0.5856900000000003  0.42695500000000003  0.061527000000000096  1.0000
  C   C24       1.0  0.585659  0.42691800000000013  0.9518049999999999  1.0000
  H   H1        1.0  0.919307  0.3721809999999999  0.3840489999999999  1.0000
  F   F1        1.0  0.905748  0.6324650000000003  0.645106  1.0000
  F   F2        1.0  0.6571820000000003  0.35545400000000005  0.11990999999999996  1.0000
  F   F3        1.0  0.13208599999999993  0.3554280000000001  0.3671859999999999  1.0000
  F   F4        1.0  0.13223200000000013  0.6324879999999999  0.6450949999999996  1.0000
  F   F5        1.0  0.37986900000000023  0.8810150000000003  0.36739799999999984  1.0000
  H   H2        1.0  0.6402320000000001  0.09421100000000006  0.6281569999999997  1.0000
  F   F6        1.0  0.657132  0.8814710000000001  0.64503  1.0000
  F   F7        1.0  0.3797330000000003  0.10751799999999989  0.3673409999999999  1.0000
  H   H3        1.0  0.3966320000000001  0.616028  0.9071699999999999  1.0000
  F   F8        1.0  0.37987499999999996  0.6328780000000003  0.1199380000000001  1.0000
  F   F9        1.0  0.6571290000000001  0.35537300000000016  0.8934069999999996  1.0000
