data_image0
_chemical_formula_structural       NC9NC3NH7C6NO2H5C7ONH7Zn2C4O8
_chemical_formula_sum              "N5 C29 H19 O11 Zn2"
_cell_length_a       16.053384444249904
_cell_length_b       9.273392599741053
_cell_length_c       10.297855452804892
_cell_angle_alpha    85.66470054647645
_cell_angle_beta     89.79073978720562
_cell_angle_gamma    88.5803697124526

_space_group_name_H-M_alt    "P 1"
_space_group_IT_number       1

loop_
  _space_group_symop_operation_xyz
  'x, y, z'

loop_
  _atom_site_type_symbol
  _atom_site_label
  _atom_site_symmetry_multiplicity
  _atom_site_fract_x
  _atom_site_fract_y
  _atom_site_fract_z
  _atom_site_occupancy
  N   N1        1.0  0.7752212562319777  0.5599096205599807  0.5673436859611289  1.0000
  C   C1        1.0  0.7246148984329978  0.5368208402598145  0.49243833412781646  1.0000
  C   C2        1.0  0.661724994933235  0.5081327728989864  0.39938761491403896  1.0000
  C   C3        1.0  0.6754402238305764  0.49476577194451954  0.26860677620173457  1.0000
  C   C4        1.0  0.5989918218742786  0.4666538803133864  0.21628931644465801  1.0000
  C   C5        1.0  0.541895864153167  0.464434655218537  0.31797324694029117  1.0000
  C   C6        1.0  0.4514035569741724  0.4379798495494698  0.3076727560083039  1.0000
  C   C7        1.0  0.3952104079738235  0.48538683513770814  0.4016883072106803  1.0000
  C   C8        1.0  0.3098137495213167  0.46029695355528855  0.3918228725546423  1.0000
  C   C9        1.0  0.2528285850214476  0.509641096138827  0.4882145280000596  1.0000
  N   N2        1.0  0.2070292195171884  0.549306828990036  0.5656983251732446  1.0000
  C   C10       1.0  0.2798849546391336  0.38767569997064744  0.2879553544768607  1.0000
  C   C11       1.0  0.3350687262484367  0.3404014930777175  0.1941517678475031  1.0000
  C   C12       1.0  0.4202605764793879  0.36530744684611305  0.20362019298019754  1.0000
  N   N3        1.0  0.5809164474222992  0.48990920913932157  0.4295965409036193  1.0000
  H   H1        1.0  0.7341240492262681  0.5043756564608588  0.21700122947193015  1.0000
  H   H2        1.0  0.5868367929673318  0.4513926717019141  0.1150673963967004  1.0000
  H   H3        1.0  0.4171678735604307  0.5436238845594388  0.4816142727111215  1.0000
  H   H4        1.0  0.2139835525795599  0.3677230704138821  0.2794822029577322  1.0000
  H   H5        1.0  0.3118100148790013  0.28398804250462706  0.11399549801827669  1.0000
  H   H6        1.0  0.4616258073026074  0.3259660798332195  0.1302830552558172  1.0000
  H   H7        1.0  0.554724275807268  0.49250512291099663  0.522376024222929  1.0000
  C   C13       1.0  0.9936692267731771  0.13101741870857195  0.5656945037585303  1.0000
  C   C14       1.0  0.9830686188486119  0.21465678756379544  0.44708164982704185  1.0000
  C   C15       1.0  0.9651146472889811  0.15003337433318586  0.332802220096424  1.0000
  C   C16       1.0  0.9571668784226771  0.9998121799601873  0.3339483232457883  1.0000
  C   C17       1.0  0.9690672471614619  0.9149727774817735  0.4516504565907301  1.0000
  C   C18       1.0  0.9885892709258427  0.9781877391992315  0.5673586411044234  1.0000
  N   N4        1.0  0.9379167014825333  0.9338042181962235  0.21586512352458614  1.0000
  O   O1        1.0  0.9269936194969628  0.017202307339956972  0.10059058492906936  1.0000
  O   O2        1.0  0.9305794480748362  0.8000510715912476  0.21610044700873132  1.0000
  H   H8        1.0  0.9766746916649742  0.20782739449846077  0.8845555251030491  1.0000
  H   H9        1.0  0.9867113764106132  0.33141077222167326  0.4432301440949687  1.0000
  H   H10       1.0  0.9566084992839149  0.21818400410908256  0.243561549994626  1.0000
  H   H11       1.0  0.9650426940653081  0.798469194573167  0.4525903894245602  1.0000
  H   H12       1.0  0.9799855636400113  0.6802548685823838  0.7828469194688907  1.0000
  C   C19       1.0  0.991161072856625  0.5547451848129037  0.18508473251717186  1.0000
  C   C20       1.0  0.9057260236440156  0.5916128680084562  0.18208867401327522  1.0000
  C   C21       1.0  0.862217086194651  0.6090744086655908  0.06356953647642284  1.0000
  C   C22       1.0  0.905626659682412  0.5912908675084376  0.9468555100665892  1.0000
  C   C23       1.0  0.9910974133722402  0.5544599631264547  0.9479684235062518  1.0000
  C   C24       1.0  0.03325675898289959  0.5360966703504995  0.06754559108220781  1.0000
  C   C25       1.0  0.7720411577441589  0.6483550382780814  0.0629811601673147  1.0000
  O   O3        1.0  0.7408397264141984  0.7106621552396035  0.15702907654211787  1.0000
  N   N5        1.0  0.7189547337957307  0.615554459882949  0.9584931828583225  1.0000
  H   H13       1.0  0.1526957482478093  0.4855806642181221  0.39797993676770393  1.0000
  H   H14       1.0  0.872703497676375  0.6055729386903727  0.27239774228625957  1.0000
  H   H15       1.0  0.8735211455153542  0.6087095857829801  0.8546189240419895  1.0000
  H   H16       1.0  0.09910189378887169  0.5076787626200943  0.06910127600970363  1.0000
  H   H17       1.0  0.15293763442550712  0.4871129761314019  0.7426406509143484  1.0000
  H   H18       1.0  0.6565457609217816  0.6501229899803793  0.9577087386101351  1.0000
  H   H19       1.0  0.7391521952902724  0.5492612693938199  0.8866007998368812  1.0000
  Zn  Zn1       1.0  0.8998317270437265  0.5568460341658403  0.5668763570937003  1.0000
  Zn  Zn2       1.0  0.08241879482797843  0.5523586596460328  0.5661762472338301  1.0000
  C   C26       1.0  0.991142051819582  0.5487674943208105  0.8037558025204429  1.0000
  C   C27       1.0  0.9911104529729722  0.5604389704745203  0.32929692522797677  1.0000
  C   C28       1.0  0.9895456320438891  0.8180565828148969  0.5618679609817716  1.0000
  C   C29       1.0  0.9927068208306884  0.29114815044023956  0.5711848328530582  1.0000
  O   O4        1.0  0.06038434287647654  0.5606406287094259  0.37743015409135316  1.0000
  O   O5        1.0  0.06044752814355569  0.5451589346071803  0.7550908304177126  1.0000
  O   O6        1.0  0.05915746479883576  0.7626133016429855  0.5597646935065658  1.0000
  O   O7        1.0  0.06167434386284931  0.3431862735600184  0.572756193868379  1.0000
  O   O8        1.0  0.9205761157008417  0.7660184217847481  0.5602964106912355  1.0000
  O   O9        1.0  0.9218661686555246  0.54856578782203  0.7556224817480561  1.0000
  O   O10       1.0  0.9218029838755756  0.5640474322403954  0.3779602436234298  1.0000
  O   O11       1.0  0.9230929849122814  0.34659306673748325  0.5732863807666606  1.0000
