data_image0
_chemical_formula_structural       NC6NC3H6C6NCH9C7F3H4Zn2C4O8
_chemical_formula_sum              "N3 C27 H19 F3 Zn2 O8"
_cell_length_a       14.934028789175542
_cell_length_b       9.273386996610926
_cell_length_c       10.299327507215194
_cell_angle_alpha    85.45811780594276
_cell_angle_beta     89.95631350132989
_cell_angle_gamma    89.3610420342759

_space_group_name_H-M_alt    "P 1"
_space_group_IT_number       1

loop_
  _space_group_symop_operation_xyz
  'x, y, z'

loop_
  _atom_site_type_symbol
  _atom_site_label
  _atom_site_symmetry_multiplicity
  _atom_site_fract_x
  _atom_site_fract_y
  _atom_site_fract_z
  _atom_site_occupancy
  N   N1        1.0  0.8332245491309588  0.5782562602567698  0.5646359137942141  1.0000
  C   C1        1.0  0.7557457747977454  0.5771577754348265  0.5640259321565491  1.0000
  C   C2        1.0  0.6593583076214443  0.5757862096349691  0.5632644840069252  1.0000
  C   C3        1.0  0.6108893960491758  0.6826046854505141  0.6224701668621222  1.0000
  C   C4        1.0  0.5173849531811157  0.6815034138893618  0.621859654278202  1.0000
  C   C5        1.0  0.4714365123299001  0.5736381789072424  0.5620738538082004  1.0000
  C   C6        1.0  0.3747754406684096  0.5759525362613269  0.5633577848572453  1.0000
  N   N2        1.0  0.2972831755240935  0.577789270561192  0.5643770418457357  1.0000
  C   C7        1.0  0.5199096254692277  0.4653418929216324  0.5020485733258104  1.0000
  C   C8        1.0  0.4723688520676666  0.3480699607402251  0.4370500896703841  1.0000
  C   C9        1.0  0.6140377056053883  0.46756690750884444  0.5032818670019621  1.0000
  H   H1        1.0  0.6453771345102834  0.7667677358562901  0.6691192840709359  1.0000
  H   H2        1.0  0.4807970326205919  0.7650182867515264  0.6681493797845326  1.0000
  H   H3        1.0  0.429317214233992  0.39717150444212734  0.3571458680306119  1.0000
  H   H4        1.0  0.4300176763317351  0.2851886582312009  0.5093226897224972  1.0000
  H   H5        1.0  0.5203299765433566  0.2721112421480456  0.3949430542897492  1.0000
  H   H6        1.0  0.6521113394501524  0.3851630313681133  0.45760818988995994  1.0000
  C   C10       1.0  0.06801158866795443  0.15436589310703866  0.5651431283982675  1.0000
  C   C11       1.0  0.0837605517625674  0.23784369084790052  0.4477059779587784  1.0000
  C   C12       1.0  0.09107844964217299  0.17335148583629345  0.3302662720844045  1.0000
  C   C13       1.0  0.0827583584542364  0.02305965688882461  0.32726109865651853  1.0000
  C   C14       1.0  0.06858748797070818  0.9386174193230852  0.4442894488893594  1.0000
  C   C15       1.0  0.06250479095606251  0.0016684858678146421  0.5638810799944955  1.0000
  N   N3        1.0  0.08931983312744785  0.9535321610918736  0.20739724016643724  1.0000
  C   C16       1.0  0.10426513997812603  0.031433095808679715  0.08065225344118288  1.0000
  H   H7        1.0  0.08625789538206252  0.41645948039392344  0.7783547543051736  1.0000
  H   H8        1.0  0.08832808919987478  0.35448523247625374  0.4461100694340878  1.0000
  H   H9        1.0  0.10239055662335755  0.24195577844776284  0.2420419518214236  1.0000
  H   H10       1.0  0.06436141903785564  0.8222209175977115  0.442242992847363  1.0000
  H   H11       1.0  0.09540345995791694  0.8702248113446338  0.8801854483477133  1.0000
  H   H12       1.0  0.08298860212764247  0.8411709961209359  0.21009389884637497  1.0000
  H   H13       1.0  0.04875943329397936  0.11006598449092174  0.05811807619217468  1.0000
  H   H14       1.0  0.16907707794916296  0.08891958754483809  0.08082566832645655  1.0000
  H   H15       1.0  0.10653966080024196  0.9540060294589565  0.00376472652288595  1.0000
  C   C17       1.0  0.0653435678149081  0.5780757108505061  0.18313037469281146  1.0000
  C   C18       1.0  0.15198441214889535  0.6358347973751979  0.1777251941769371  1.0000
  C   C19       1.0  0.19502153072467188  0.6674213556285556  0.05769896282022136  1.0000
  C   C20       1.0  0.15176024295174073  0.6356820379667888  0.9424880900087973  1.0000
  C   C21       1.0  0.06517285880941667  0.5779587098597205  0.9458938211816994  1.0000
  C   C22       1.0  0.02233020808142538  0.5500252761846778  0.06668705577250411  1.0000
  C   C23       1.0  0.2892915102404181  0.7245355212023417  0.05329861490407706  1.0000
  F   F1        1.0  0.30438514921140686  0.8087676433095066  0.15605556316076852  1.0000
  F   F2        1.0  0.349186145719814  0.6094503574923997  0.06130590873723896  1.0000
  F   F3        1.0  0.3041392830153402  0.8087483169417434  0.9384123258840837  1.0000
  H   H16       1.0  0.9024652568583166  0.46666490309733044  0.4007399316669445  1.0000
  H   H17       1.0  0.18619206202169503  0.6560915110013761  0.26707234304147964  1.0000
  H   H18       1.0  0.18581415733365492  0.6558300887655593  0.8500589242100474  1.0000
  H   H19       1.0  0.955551235545154  0.5055106964649199  0.0700481455873121  1.0000
  Zn  Zn1       1.0  0.9671418814515833  0.5781176299880666  0.5645687088045408  1.0000
  Zn  Zn2       1.0  0.16336594769781987  0.5779160814651576  0.5644548825092754  1.0000
  C   C24       1.0  0.06524045758722474  0.5722334481236693  0.8017237479381544  1.0000
  C   C25       1.0  0.06526950246376328  0.5838020814263358  0.32729996689201357  1.0000
  C   C26       1.0  0.06354225738190511  0.841511072708477  0.5589442702350851  1.0000
  C   C27       1.0  0.06696764696117304  0.31452272358359057  0.5700795164566868  1.0000
  O   O1        1.0  0.1397106968712467  0.5856411231037372  0.3756414119287288  1.0000
  O   O2        1.0  0.1397287963019378  0.5702403474796254  0.7532955391396416  1.0000
  O   O3        1.0  0.13835647401974893  0.7876854356361072  0.5572493915372347  1.0000
  O   O4        1.0  0.1410829521501773  0.36819604535133504  0.5716874621766683  1.0000
  O   O5        1.0  0.9894248100375741  0.7878376661722393  0.5573361291691576  1.0000
  O   O6        1.0  0.990797121066021  0.5703943113440462  0.7533822049419705  1.0000
  O   O7        1.0  0.9907790223711422  0.5857950369335045  0.3757265163528076  1.0000
  O   O8        1.0  0.992151277691679  0.3683499488473733  0.5717726639872254  1.0000
