data_image0
_chemical_formula_structural       NC9NC5H8C12H10C8NH11Zn2C4O8
_chemical_formula_sum              "N3 C38 H29 Zn2 O8"
_cell_length_a       17.807436237873137
_cell_length_b       10.299137764757564
_cell_length_c       9.275652972338536
_cell_angle_alpha    85.91964994455579
_cell_angle_beta     89.8368236096327
_cell_angle_gamma    88.40860916225229

_space_group_name_H-M_alt    "P 1"
_space_group_IT_number       1

loop_
  _space_group_symop_operation_xyz
  'x, y, z'

loop_
  _atom_site_type_symbol
  _atom_site_label
  _atom_site_symmetry_multiplicity
  _atom_site_fract_x
  _atom_site_fract_y
  _atom_site_fract_z
  _atom_site_occupancy
  N   N1        1.0  0.7013438005936371  0.37858289298826636  0.3981502409968376  1.0000
  C   C1        1.0  0.6407013125404758  0.34331995822375827  0.3859299132841685  1.0000
  C   C2        1.0  0.565268722512489  0.29945675062469856  0.3707291524569982  1.0000
  C   C3        1.0  0.5467033750539918  0.2273623979277568  0.25422546529775913  1.0000
  C   C4        1.0  0.4734618400748322  0.18466256774907652  0.23937484943522014  1.0000
  C   C5        1.0  0.41773672081408797  0.2136793263934782  0.34099205623594875  1.0000
  C   C6        1.0  0.3399002310915136  0.1684158558298201  0.32530073782778635  1.0000
  C   C7        1.0  0.2778529972907107  0.2503442085165386  0.35405517924879004  1.0000
  C   C8        1.0  0.2044691793162189  0.20744141424967322  0.3392198275400513  1.0000
  C   C9        1.0  0.1413739573110987  0.29206364008587715  0.3683770565825071  1.0000
  N   N2        1.0  0.09065838282826011  0.36009406217649365  0.3918186648035358  1.0000
  C   C10       1.0  0.19254889065447559  0.08235210690377404  0.29560200399185455  1.0000
  C   C11       1.0  0.2537387152358477  0.00040984708843905433  0.26683825720251697  1.0000
  C   C12       1.0  0.3270021388216866  0.04291677250005677  0.28144898897340753  1.0000
  C   C13       1.0  0.4369945271036148  0.2862694873113259  0.4577388475290758  1.0000
  C   C14       1.0  0.5102882150109145  0.3287779103755961  0.47241679803013437  1.0000
  H   H1        1.0  0.588779556912565  0.2044150382921619  0.17464762037726622  1.0000
  H   H2        1.0  0.460175535063243  0.1304440450971165  0.14737112514907724  1.0000
  H   H3        1.0  0.2864954165130699  0.34800120642248844  0.38606408232272216  1.0000
  H   H4        1.0  0.1360310063972293  0.04824569032479499  0.28385736468313594  1.0000
  H   H5        1.0  0.24439284064886527  0.9035652944140186  0.2334968112852396  1.0000
  H   H6        1.0  0.37354708216242494  0.977044916604017  0.26033527023331304  1.0000
  H   H7        1.0  0.39564080169587384  0.30868607534090553  0.5387535411758111  1.0000
  H   H8        1.0  0.524098530472708  0.38421041156211483  0.5632640389479977  1.0000
  C   C15       1.0  0.8959329976872723  0.9879427671117158  0.39514271395016465  1.0000
  C   C16       1.0  0.8952998768386005  0.9969178691868567  0.24338269397987708  1.0000
  C   C17       1.0  0.8950524997473603  0.8843324441525248  0.16627768656783504  1.0000
  C   C18       1.0  0.8954467558942857  0.7616533324547061  0.24298394631730558  1.0000
  C   C19       1.0  0.8960764013748806  0.7507239551942377  0.39483860775713464  1.0000
  C   C20       1.0  0.896316905308409  0.8643807164269045  0.4699830901283968  1.0000
  C   C21       1.0  0.8943818307917621  0.8948721712231894  0.005730593596121822  1.0000
  C   C22       1.0  0.9393816492232409  0.809956529649129  0.9274590581501273  1.0000
  C   C23       1.0  0.9386569903930058  0.8201323206949181  0.7763388071559754  1.0000
  C   C24       1.0  0.8931142122972923  0.91483202638339  0.7017786127149175  1.0000
  C   C25       1.0  0.8482011088990445  0.9996180790842194  0.7781873636339771  1.0000
  C   C26       1.0  0.848736886203894  0.9899461608034505  0.9293116604262717  1.0000
  H   H9        1.0  0.896138200284266  0.3119681070630347  0.453520276640377  1.0000
  H   H10       1.0  0.8960371967172184  0.0916589006018269  0.18476944171726406  1.0000
  H   H11       1.0  0.8942236212691717  0.6745902707103058  0.18412902343291337  1.0000
  H   H12       1.0  0.8968031894143028  0.8567425824089213  0.5870391093776488  1.0000
  H   H13       1.0  0.8967871560734433  0.5228264475692653  0.6814640842157647  1.0000
  H   H14       1.0  0.9758111743693949  0.7368983341007604  0.9830489560470319  1.0000
  H   H15       1.0  0.9735957553053288  0.7547126393804487  0.7170001711170211  1.0000
  H   H16       1.0  0.8926264421918911  0.9225138596026117  0.5848000034804333  1.0000
  H   H17       1.0  0.8127734926659695  0.07273672656462526  0.7202852635409966  1.0000
  H   H18       1.0  0.8127774206276186  0.05560806614513593  0.9863723555943462  1.0000
  C   C27       1.0  0.8943318682959521  0.3668814650093051  0.9717481229408653  1.0000
  C   C28       1.0  0.8456221284607732  0.4541519596700692  0.03865381653354638  1.0000
  C   C29       1.0  0.8028452970558445  0.5487195218475076  0.9566128500082197  1.0000
  C   C30       1.0  0.8077632422047993  0.5548135447992811  0.8057449884655483  1.0000
  C   C31       1.0  0.8548189736378897  0.4676794140916447  0.7374580941828115  1.0000
  C   C32       1.0  0.897677560129663  0.371785266741126  0.818233172021718  1.0000
  C   C33       1.0  0.7501370575195869  0.6400777105157912  0.029978628084173176  1.0000
  C   C34       1.0  0.6728849789150924  0.5802879842767095  0.0520474629793668  1.0000
  N   N3        1.0  0.6219510542088923  0.6704781409615568  0.1210489793261722  1.0000
  H   H19       1.0  0.949357942981263  0.17130174320159797  0.26753680593741036  1.0000
  H   H20       1.0  0.8420481427073808  0.45070820621720564  0.15554090148934718  1.0000
  H   H21       1.0  0.7744661208165314  0.6263519645831259  0.7406756299349229  1.0000
  H   H22       1.0  0.8561762963244035  0.4731929809207158  0.6204139391933645  1.0000
  H   H23       1.0  0.0006752942498415847  0.24793752540568614  0.5461250214405595  1.0000
  H   H24       1.0  0.7736672046580914  0.6617814642299802  0.13630122444221615  1.0000
  H   H25       1.0  0.7441406189061586  0.7341308717868652  0.9637295535225275  1.0000
  H   H26       1.0  0.6493945652806592  0.5596258842095597  0.945306653198467  1.0000
  H   H27       1.0  0.6781703895475699  0.487015815651086  0.12019098110995907  1.0000
  H   H28       1.0  0.5688837616351169  0.6293835569553534  0.12633210948794127  1.0000
  H   H29       1.0  0.6395431744847204  0.6761433681455356  0.22788023076403244  1.0000
  Zn  Zn1       1.0  0.8136916104695098  0.3732439985566578  0.39633142172245606  1.0000
  Zn  Zn2       1.0  0.9783105995965923  0.3654224383357716  0.3936493371835159  1.0000
  C   C35       1.0  0.8970424843931318  0.36568437591095004  0.6582314697758536  1.0000
  C   C36       1.0  0.8949615241744281  0.3729836151239754  0.1317494006505051  1.0000
  C   C37       1.0  0.8960227332420293  0.6065089863609059  0.3891527429230608  1.0000
  C   C38       1.0  0.8959812191629114  0.13215744737641755  0.40082820588155377  1.0000
  O   O1        1.0  0.95764488982859  0.3720576449672044  0.18442945623396523  1.0000
  O   O2        1.0  0.9593011206382552  0.36067298064410064  0.6035153595835456  1.0000
  O   O3        1.0  0.9584768224574342  0.5551419479205031  0.38623239705598134  1.0000
  O   O4        1.0  0.9584691314107242  0.177588689024601  0.4017123116068093  1.0000
  O   O5        1.0  0.8335330224789657  0.5610777505383129  0.3882684482068448  1.0000
  O   O6        1.0  0.834357320645995  0.36661034322999586  0.605551333263836  1.0000
  O   O7        1.0  0.8327010830288635  0.37799495225303886  0.18646369709183985  1.0000
  O   O8        1.0  0.8335253250332733  0.1835259876471207  0.4037466605270872  1.0000
