data_image0
_chemical_formula_structural       NC6NC2H4C12H10C12H9Zn2C4O8
_chemical_formula_sum              "N2 C36 H23 Zn2 O8"
_cell_length_a       14.927258858638513
_cell_length_b       14.388199552941785
_cell_length_c       14.389300134226545
_cell_angle_alpha    82.75983295492937
_cell_angle_beta     90.22201251492375
_cell_angle_gamma    92.40759436960245

_space_group_name_H-M_alt    "P 1"
_space_group_IT_number       1

loop_
  _space_group_symop_operation_xyz
  'x, y, z'

loop_
  _atom_site_type_symbol
  _atom_site_label
  _atom_site_symmetry_multiplicity
  _atom_site_fract_x
  _atom_site_fract_y
  _atom_site_fract_z
  _atom_site_occupancy
  N   N1        1.0  0.8827365156281356  0.06294640459717792  0.9634133287727205  1.0000
  C   C1        1.0  0.8052100237292853  0.06294638589558922  0.9634133357510544  1.0000
  C   C2        1.0  0.7087775191276289  0.06294646159292072  0.9634133029718621  1.0000
  C   C3        1.0  0.6609409203982058  0.05113921642092529  0.8814537616445528  1.0000
  C   C4        1.0  0.5672296095505684  0.051139236652445894  0.8814536750913866  1.0000
  C   C5        1.0  0.5209614505206557  0.06294634642856267  0.9634133157838174  1.0000
  C   C6        1.0  0.4245288789275331  0.0629464221279712  0.9634132830007757  1.0000
  N   N2        1.0  0.3470023870286829  0.06294640342638246  0.9634132899791092  1.0000
  C   C7        1.0  0.5687979822586124  0.07475359160263584  0.045372857107276565  1.0000
  C   C8        1.0  0.66250929310625  0.07475357137111494  0.0453729436604432  1.0000
  H   H1        1.0  0.6960269464629845  0.041952517506746126  0.8176845345071324  1.0000
  H   H2        1.0  0.5309232961073084  0.04195264520051923  0.8176845304814164  1.0000
  H   H3        1.0  0.5337120230529725  0.08394028087609141  0.10914215429857993  1.0000
  H   H4        1.0  0.6988156092340443  0.08394022264024992  0.1091421591316124  1.0000
  C   C9        1.0  0.10379995010252023  0.7894860372021502  0.9651978195390374  1.0000
  C   C10       1.0  0.014213660482615537  0.8101424998089771  0.9802537866957595  1.0000
  C   C11       1.0  0.9476305925601326  0.7385430048664361  0.9915798146394175  1.0000
  C   C12       1.0  0.9694342562029515  0.6456647273274415  0.9880359076094958  1.0000
  C   C13       1.0  0.05852622713327429  0.6232208166937816  0.9729824048212827  1.0000
  C   C14       1.0  0.12534483353500406  0.6957622536123323  0.961661916428656  1.0000
  C   C15       1.0  0.08175369569420535  0.5244011280389755  0.9690853272482387  1.0000
  C   C16       1.0  0.04270758030503165  0.45152546094669926  0.03216217837931057  1.0000
  C   C17       1.0  0.06458858746527918  0.3585444639932893  0.028520953672475084  1.0000
  C   C18       1.0  0.12594728756662144  0.33639927998468994  0.9616369349773243  1.0000
  C   C19       1.0  0.16494736676629518  0.4091658482056421  0.8985379689998532  1.0000
  C   C20       1.0  0.14311833506350657  0.5021567854839251  0.9022308121192507  1.0000
  H   H5        1.0  0.3122869510556814  0.8954401918102962  0.9301823972205878  1.0000
  H   H6        1.0  0.9955354056518089  0.881614162527549  0.9832783548637305  1.0000
  H   H7        1.0  0.8787755917197705  0.7551414296825228  0.0028986939953348214  1.0000
  H   H8        1.0  0.9164217601911412  0.5915255289355362  0.9958233518097593  1.0000
  H   H9        1.0  0.19434880815048355  0.6789111550652771  0.951371415193548  1.0000
  H   H10       1.0  0.9960653531430587  0.4665412088120159  0.08521544222762541  1.0000
  H   H11       1.0  0.033572602730060686  0.3040401862350001  0.07828733094284623  1.0000
  H   H12       1.0  0.2266451000625075  0.14976632873888152  0.8875734737568515  1.0000
  H   H13       1.0  0.21224631084563772  0.3943476582004841  0.8460211275260229  1.0000
  H   H14       1.0  0.17340473854775684  0.5565941312096792  0.8518796479179989  1.0000
  C   C21       1.0  0.11432112681738803  0.07460728170836689  0.6892162913001618  1.0000
  C   C22       1.0  0.16532573948961704  0.12977161265557705  0.6193139758991912  1.0000
  C   C23       1.0  0.16636374634816353  0.10675386772576201  0.5278191720801997  1.0000
  C   C24       1.0  0.11648316910917544  0.028056460560234246  0.5042238441470352  1.0000
  C   C25       1.0  0.06555039129528685  0.9729057165452989  0.5742185159888399  1.0000
  C   C26       1.0  0.06445280149443058  0.9959652723726656  0.6657006841647257  1.0000
  C   C27       1.0  0.11761097553540867  0.003554694408072439  0.4070017456967945  1.0000
  C   C28       1.0  0.1143093714323214  0.07402772399695423  0.3299032698542348  1.0000
  C   C29       1.0  0.11542606772260117  0.05127798603326261  0.23761848209963254  1.0000
  C   C30       1.0  0.11991193541966633  0.956855542106246  0.22312470328519152  1.0000
  C   C31       1.0  0.12316157668737904  0.8866155432227997  0.299267265694096  1.0000
  C   C32       1.0  0.1219973636275744  0.9095818343344231  0.39063853656144665  1.0000
  H   H15       1.0  0.06091761431351777  0.059480752621907496  0.9215185537931609  1.0000
  H   H16       1.0  0.20468919034460364  0.19067511338895038  0.6353109800190986  1.0000
  H   H17       1.0  0.20720694682452426  0.14988722257438725  0.47576161725014665  1.0000
  H   H18       1.0  0.025542460356420046  0.9125357048092364  0.5579497898943602  1.0000
  H   H19       1.0  0.024304231877441372  0.9522222304684408  0.7179153405881021  1.0000
  H   H20       1.0  0.1096335441180279  0.14649599937509142  0.34187401669872186  1.0000
  H   H21       1.0  0.12092343928964705  0.9371472775688915  0.15296976208855395  1.0000
  H   H22       1.0  0.12684766784591006  0.8140628584638452  0.28740556110464766  1.0000
  H   H23       1.0  0.12573483001515995  0.8539549813345563  0.44850545271794395  1.0000
  Zn  Zn1       1.0  0.016713535223897628  0.06294367946131939  0.9634187292221772  1.0000
  Zn  Zn2       1.0  0.2130250848658205  0.06294117506602766  0.9634155988083797  1.0000
  C   C33       1.0  0.11506500021325833  0.051977954858921656  0.13398286365895828  1.0000
  C   C34       1.0  0.11467581135770694  0.07390807071282725  0.7928515483346475  1.0000
  C   C35       1.0  0.12174884396737867  0.2331792974729383  0.9585891123501258  1.0000
  C   C36       1.0  0.10799185540999973  0.8927056071685736  0.9682453567110045  1.0000
  O   O1        1.0  0.1892938922163479  0.07366839609639753  0.8276313257906442  1.0000
  O   O2        1.0  0.18944281420300935  0.05221503762281387  0.09920044607307486  1.0000
  O   O3        1.0  0.19483910023448692  0.19853737209712619  0.9575687446630232  1.0000
  O   O4        1.0  0.1838975393257321  0.9273460712628085  0.969262957146813  1.0000
  O   O5        1.0  0.04584101377252026  0.19853878326661586  0.9575713708798944  1.0000
  O   O6        1.0  0.04044477294316409  0.05221756972461832  0.09920301521857144  1.0000
  O   O7        1.0  0.040295847440017046  0.07367094350482817  0.8276327725132826  1.0000
  O   O8        1.0  0.03489949441707352  0.9273486090325929  0.9692644739194844  1.0000
