data_image0
_chemical_formula_structural       NC6NC2H4C6NCH9C7ONH5Zn2C4O8
_chemical_formula_sum              "N4 C26 H18 O9 Zn2"
_cell_length_a       14.927258858638513
_cell_length_b       9.273386996610927
_cell_length_c       9.27304215883966
_cell_angle_alpha    86.06883900085258
_cell_angle_beta     90.09323234568471
_cell_angle_gamma    89.39858807063658

_space_group_name_H-M_alt    "P 1"
_space_group_IT_number       1

loop_
  _space_group_symop_operation_xyz
  'x, y, z'

loop_
  _atom_site_type_symbol
  _atom_site_label
  _atom_site_symmetry_multiplicity
  _atom_site_fract_x
  _atom_site_fract_y
  _atom_site_fract_z
  _atom_site_occupancy
  N   N1        1.0  0.8317726940091074  0.562099279378961  0.4075482173170044  1.0000
  C   C1        1.0  0.754246203037438  0.5620992509698404  0.40754822795101886  1.0000
  C   C2        1.0  0.6578136946951729  0.5620993655871964  0.40754817790913167  1.0000
  C   C3        1.0  0.6107965604406785  0.5370651506799946  0.2809207396523181  1.0000
  C   C4        1.0  0.5170852488041462  0.5370651749200857  0.2809206061724965  1.0000
  C   C5        1.0  0.469997631879528  0.5620991881650537  0.4075481968277696  1.0000
  C   C6        1.0  0.37356505654570177  0.5620993027853127  0.40754814677995416  1.0000
  N   N2        1.0  0.2960385655740323  0.5620992743761921  0.40754815741396855  1.0000
  C   C7        1.0  0.5170146991424613  0.5871334030751589  0.5341756350786545  1.0000
  C   C8        1.0  0.6107260107789938  0.5871333788350677  0.5341757685584763  1.0000
  H   H1        1.0  0.6465201761154331  0.5175871186812953  0.18239732515106466  1.0000
  H   H2        1.0  0.48141651931076346  0.5175873162429232  0.18239731989146968  1.0000
  H   H3        1.0  0.4812911506246827  0.6066114258907487  0.6326991576654101  1.0000
  H   H4        1.0  0.6463947397387502  0.6066113360373919  0.6326991646913334  1.0000
  C   C9        1.0  0.0666653892330833  0.1384527391438899  0.4082564693062966  1.0000
  C   C10       1.0  0.08227211921847077  0.2205555215655699  0.2779344259618155  1.0000
  C   C11       1.0  0.08944400985862444  0.15467973101598398  0.14760432733958817  1.0000
  C   C12       1.0  0.08111637747963801  0.004343880173856232  0.14426403420745323  1.0000
  C   C13       1.0  0.0670879262886177  0.9212734144246796  0.27413336785127695  1.0000
  C   C14       1.0  0.06115452433036376  0.9857348058340033  0.4068524385377427  1.0000
  N   N3        1.0  0.08752842520042714  0.933403320114655  0.011243141856607462  1.0000
  C   C15       1.0  0.10231930809864492  0.009818180129705695  0.8705907608752046  1.0000
  H   H5        1.0  0.0851908748809405  0.40309016325989383  0.6448901055367484  1.0000
  H   H6        1.0  0.08683967093945102  0.3371827872082527  0.2761661136305342  1.0000
  H   H7        1.0  0.10064903238438098  0.22225052137595672  0.049699947030688696  1.0000
  H   H8        1.0  0.06285736590610491  0.8048483930928085  0.2718595940331334  1.0000
  H   H9        1.0  0.09446996918651143  0.8580708771068998  0.7579075088021552  1.0000
  H   H10       1.0  0.08119779027481133  0.8210676823371045  0.01423197529962028  1.0000
  H   H11       1.0  0.04676013220917663  0.08812794338886576  0.8455479618410799  1.0000
  H   H12       1.0  0.16716045431726875  0.06737237482949054  0.8708233386415305  1.0000
  H   H13       1.0  0.10449711276299038  0.9314827342645254  0.7852623632673409  1.0000
  C   C16       1.0  0.06351059009556725  0.5576351585101407  0.984296923110139  1.0000
  C   C17       1.0  0.9811701161968367  0.5668218177575497  0.05696251498592164  1.0000
  C   C18       1.0  0.9003566080252831  0.5899628051985744  0.9806680134283482  1.0000
  C   C19       1.0  0.9023915630777373  0.6021746123703762  0.8291490762141787  1.0000
  C   C20       1.0  0.9832792607767362  0.590869843867073  0.7554775638243822  1.0000
  C   C21       1.0  0.06430936933930491  0.566552366261313  0.8308119847007864  1.0000
  C   C22       1.0  0.8146869050380755  0.5999220683414888  0.0605115382743826  1.0000
  O   O1        1.0  0.8090651542612993  0.5440942879645616  0.18797467489958763  1.0000
  N   N4        1.0  0.7380099633539021  0.6731116187124678  0.9968537984116792  1.0000
  H   H14       1.0  0.28050051577873614  0.6127402108429489  0.08416564141757688  1.0000
  H   H15       1.0  0.8413792370648141  0.61643857358441  0.7665023119670153  1.0000
  H   H16       1.0  0.21061130574741865  0.5969747673899167  0.5478397727512663  1.0000
  H   H17       1.0  0.7419190128800521  0.7354092120104012  0.8990847341352093  1.0000
  H   H18       1.0  0.6774617214147124  0.6729492424163208  0.05309653475616405  1.0000
  Zn  Zn1       1.0  0.9657498368292273  0.5620954999672965  0.4075565347868251  1.0000
  Zn  Zn2       1.0  0.16206152165093515  0.562091361519161  0.40755168292959754  1.0000
  C   C23       1.0  0.06419374166983063  0.5591196328462205  0.6708120124096664  1.0000
  C   C24       1.0  0.06361974882198829  0.5650690503584119  0.14429634370438382  1.0000
  C   C25       1.0  0.06218617948422269  0.8255199701965832  0.40137420749523534  1.0000
  C   C26       1.0  0.06562725536611505  0.29866698054483876  0.41373422833636364  1.0000
  O   O2        1.0  0.13815568572665193  0.5675560680202845  0.19799178004375673  1.0000
  O   O3        1.0  0.13865383788883323  0.5566283814950357  0.6171124805180916  1.0000
  O   O4        1.0  0.13703170316333013  0.7717500388061584  0.3995395442715501  1.0000
  O   O5        1.0  0.1397777532951785  0.3524344198922713  0.41556460820479557  1.0000
  O   O6        1.0  0.9880335381934232  0.7717524415970891  0.399543609505699  1.0000
  O   O7        1.0  0.9896556615688462  0.5566325167520803  0.6171164660287628  1.0000
  O   O8        1.0  0.9891575081581037  0.5675601347498971  0.197994032736728  1.0000
  O   O9        1.0  0.9907795758920457  0.3524384774416776  0.41556696897734136  1.0000
