data_image0
_chemical_formula_structural       NC6NC2H4C12H10C12H9Zn2C4O8
_chemical_formula_sum              "N2 C36 H23 Zn2 O8"
_cell_length_a       14.927258858638513
_cell_length_b       14.38812564980172
_cell_length_c       14.388129018870243
_cell_angle_alpha    85.39543532843052
_cell_angle_beta     90.8946685499874
_cell_angle_gamma    91.20506056824709

_space_group_name_H-M_alt    "P 1"
_space_group_IT_number       1

loop_
  _space_group_symop_operation_xyz
  'x, y, z'

loop_
  _atom_site_type_symbol
  _atom_site_label
  _atom_site_symmetry_multiplicity
  _atom_site_fract_x
  _atom_site_fract_y
  _atom_site_fract_z
  _atom_site_occupancy
  N   N1        1.0  0.8500557601649054  0.05497400067649627  0.010101239556130404  1.0000
  C   C1        1.0  0.7725292687130864  0.05497398208780013  0.01010124571304938  1.0000
  C   C2        1.0  0.6760967622504875  0.054974057317160874  0.01010121625865623  1.0000
  C   C3        1.0  0.6275609067567999  0.04302811061522127  0.9276232080424383  1.0000
  C   C4        1.0  0.5338495945277282  0.0430281305325353  0.9276231223780055  1.0000
  C   C5        1.0  0.4882806960535765  0.05497394277466716  0.01010122401238833  1.0000
  C   C6        1.0  0.39184812259942675  0.05497401800608537  0.01010119455423652  1.0000
  N   N2        1.0  0.3143216311476078  0.05497399941738901  0.010101200711155833  1.0000
  C   C7        1.0  0.5368164845557136  0.06691988947866423  0.0925792322248482  1.0000
  C   C8        1.0  0.630527796784785  0.06691986956135021  0.09257931788928031  1.0000
  H   H1        1.0  0.6621028706211817  0.03373349387063598  0.8634505845891067  1.0000
  H   H2        1.0  0.4969992177089302  0.03373362089963908  0.8634505861719126  1.0000
  H   H3        1.0  0.502274588536155  0.0762144968022957  0.15675192530851723  1.0000
  H   H4        1.0  0.6673781759172347  0.07621443887691481  0.15675192758373058  1.0000
  C   C9        1.0  0.0765164881374101  0.7829206383744097  0.9998749089576924  1.0000
  C   C10       1.0  0.03087588445816826  0.8149302397832712  0.9176807880897945  1.0000
  C   C11       1.0  0.9970410377581937  0.7517887713988213  0.8565713104126611  1.0000
  C   C12       1.0  0.008224408092392778  0.6561645358746889  0.8765654660540605  1.0000
  C   C13       1.0  0.05355341276993421  0.6224146745068879  0.9583572207227526  1.0000
  C   C14       1.0  0.06537793740830168  0.5206464063460954  0.9797315748532753  1.0000
  C   C15       1.0  0.08731891958164195  0.46352727041461983  0.908952109587333  1.0000
  C   C16       1.0  0.0984842468307015  0.3677692991296425  0.9290542621272561  1.0000
  C   C17       1.0  0.0878694401668958  0.3270198713177164  0.020335317866640217  1.0000
  C   C18       1.0  0.06586895176053066  0.3840405640700848  0.09115747330479584  1.0000
  C   C19       1.0  0.05477556887241741  0.47980605018064376  0.07106717980811383  1.0000
  C   C20       1.0  0.08754126542991236  0.6864767900011307  0.019654464056650944  1.0000
  H   H5        1.0  0.18277614827744249  0.8624688067244866  0.1910303509560709  1.0000
  H   H6        1.0  0.021286255928940394  0.8887513947082095  0.90056527399866  1.0000
  H   H7        1.0  0.9617748783967612  0.7770648113082227  0.7935539438373866  1.0000
  H   H8        1.0  0.980375336754663  0.6085242952653874  0.8286708530416991  1.0000
  H   H9        1.0  0.09703410516883082  0.4931123754873276  0.838144874312673  1.0000
  H   H10       1.0  0.11566070757060577  0.32575481633999503  0.8730200628340519  1.0000
  H   H11       1.0  0.12970416383709482  0.10019956968569885  0.9842074014249158  1.0000
  H   H12       1.0  0.05697372889120669  0.35465991017122384  0.16216503320703163  1.0000
  H   H13       1.0  0.03670212061209101  0.5217430678642556  0.12685532141552125  1.0000
  H   H14       1.0  0.12366286214095812  0.6611307475494345  0.08215620264947615  1.0000
  C   C21       1.0  0.0782950003052807  0.06590842193324335  0.736416789029549  1.0000
  C   C22       1.0  0.04694418653449376  0.15379527388368786  0.7552605216924374  1.0000
  C   C23       1.0  0.02373224433116849  0.21912292202497796  0.6823311352763888  1.0000
  C   C24       1.0  0.03143847747914986  0.1977321574459088  0.5899100440730077  1.0000
  C   C25       1.0  0.06254879313802286  0.11028843683257786  0.5692610530618358  1.0000
  C   C26       1.0  0.07065791368896474  0.08744004283702722  0.47091633339545036  1.0000
  C   C27       1.0  0.10412355205506585  0.15418939292427655  0.4028200083346978  1.0000
  C   C28       1.0  0.11179396472930382  0.13269454654499313  0.3102820464812248  1.0000
  C   C29       1.0  0.08609091639261407  0.04403212409108792  0.2837934823684116  1.0000
  C   C30       1.0  0.05255944005789059  0.9772492910494357  0.3517976456692886  1.0000
  C   C31       1.0  0.044957992497102  0.9987219260651987  0.4443453842488396  1.0000
  C   C32       1.0  0.08588051273512393  0.04475283254027485  0.6431414630018406  1.0000
  H   H15       1.0  0.1513200406178853  0.8614967807517548  0.8465849296063731  1.0000
  H   H16       1.0  0.040331247919163316  0.17210875741232762  0.8263395938177434  1.0000
  H   H17       1.0  0.9994254371452899  0.28654481242336827  0.6975114322562013  1.0000
  H   H18       1.0  0.011932045409573929  0.24912686042801882  0.5345907168724  1.0000
  H   H19       1.0  0.1255238778362351  0.2227493833217582  0.4213515998514483  1.0000
  H   H20       1.0  0.1380966493689355  0.18556647509993374  0.25957608088762507  1.0000
  H   H21       1.0  0.03193512331559358  0.9083717542321103  0.33350672628760614  1.0000
  H   H22       1.0  0.017810822020648546  0.9462240213627351  0.49493000315149316  1.0000
  H   H23       1.0  0.11111789458487809  0.9777157558300585  0.6278153400569217  1.0000
  Zn  Zn1       1.0  0.9840328947175099  0.054971302648620046  0.010106520304921313  1.0000
  Zn  Zn2       1.0  0.1803444580277399  0.05496880348833999  0.010103279898883486  1.0000
  C   C33       1.0  0.08453833630248767  0.04447651002437558  0.18018875969146808  1.0000
  C   C34       1.0  0.07984118585211247  0.06546476135445722  0.8400211759094073  1.0000
  C   C35       1.0  0.0856659980714854  0.22432198515896257  0.012753932679353095  1.0000
  C   C36       1.0  0.07871343457876326  0.8856181711779918  0.007456010755902741  1.0000
  O   O1        1.0  0.15485923070331242  0.06531087468180033  0.8747903728814523  1.0000
  O   O2        1.0  0.15851620725943016  0.044627811720109545  0.14541680875527685  1.0000
  O   O3        1.0  0.15942581791631438  0.18985526862986624  0.010212037554130136  1.0000
  O   O4        1.0  0.15394955220160467  0.9200834271929975  0.00999507445226077  1.0000
  O   O5        1.0  0.01042773355209415  0.18985667894601943  0.010214725747785584  1.0000
  O   O6        1.0  0.009518145408009998  0.044630337080198604  0.1454194891107934  1.0000
  O   O7        1.0  0.005861152278772371  0.06531341254110455  0.8747919314881318  1.0000
  O   O8        1.0  0.004951474630337178  0.9200859556334051  0.009996702685520881  1.0000
