data_image0
_chemical_formula_structural       NC6NC3H6C9H8C6NCOH5Zn2C4O8
_chemical_formula_sum              "N3 C29 H19 O9 Zn2"
_cell_length_a       14.934028789175542
_cell_length_b       9.275152443626249
_cell_length_c       9.27373355559583
_cell_angle_alpha    85.97646638804791
_cell_angle_beta     89.98656969987877
_cell_angle_gamma    90.53595971611534

_space_group_name_H-M_alt    "P 1"
_space_group_IT_number       1

loop_
  _space_group_symop_operation_xyz
  'x, y, z'

loop_
  _atom_site_type_symbol
  _atom_site_label
  _atom_site_symmetry_multiplicity
  _atom_site_fract_x
  _atom_site_fract_y
  _atom_site_fract_z
  _atom_site_occupancy
  N   N1        1.0  0.8526986532239983  0.5607992070286731  0.4043517439501917  1.0000
  C   C1        1.0  0.7752056256623407  0.5596934511930667  0.40367684779925017  1.0000
  C   C2        1.0  0.6788003620109078  0.558312808916736  0.4028343665694283  1.0000
  C   C3        1.0  0.6317174101187485  0.6658370031078911  0.4683403859529643  1.0000
  C   C4        1.0  0.5381986783049352  0.6647284543569403  0.4676649056641993  1.0000
  C   C5        1.0  0.4908506961995504  0.5561505861377893  0.4015170360128637  1.0000
  C   C6        1.0  0.39421965361327527  0.558480247835591  0.40293759960219977  1.0000
  N   N2        1.0  0.31675122045402937  0.5603291316324572  0.4040653241836003  1.0000
  C   C7        1.0  0.5379186749935425  0.4471388122825699  0.3351042003898348  1.0000
  C   C8        1.0  0.4888563098103393  0.3290921130250015  0.26318894669844095  1.0000
  C   C9        1.0  0.6320756245052742  0.44937852745912826  0.3364687344122977  1.0000
  H   H1        1.0  0.6672971564761667  0.7505561005410275  0.5199536421705051  1.0000
  H   H2        1.0  0.5026943555415883  0.74879509035893  0.5188805253069102  1.0000
  H   H3        1.0  0.44639522257398223  0.3772250874533735  0.17443210523877517  1.0000
  H   H4        1.0  0.44573579501266125  0.26708841348754286  0.3435020718408168  1.0000
  H   H5        1.0  0.5358318745264427  0.25263148719945594  0.216601097908951  1.0000
  H   H6        1.0  0.6690800757448665  0.36643023137588915  0.28593472043358137  1.0000
  C   C10       1.0  0.08208804672785483  0.1369503381804027  0.4056815078203835  1.0000
  C   C11       1.0  0.049763173040631145  0.21840759574043614  0.2832643773854484  1.0000
  C   C12       1.0  0.025761267706213346  0.15165105815474852  0.15854978194077463  1.0000
  C   C13       1.0  0.033707265024198074  0.002249929695525841  0.15378294409785645  1.0000
  C   C14       1.0  0.06428094922793658  0.9190951867921008  0.27516640348420873  1.0000
  C   C15       1.0  0.08737037068983072  0.984167036963306  0.40274800257888566  1.0000
  C   C16       1.0  0.009423244236111739  0.933737878067121  0.024632784281597882  1.0000
  C   C17       1.0  0.989091049567431  0.8763416060344142  0.9164897735933116  1.0000
  C   C18       1.0  0.964421949842757  0.80668938017785  0.7852771959894851  1.0000
  H   H7        1.0  0.2108074088131912  0.22156242435629503  0.6934266666459743  1.0000
  H   H8        1.0  0.04504625241317828  0.3349249915824528  0.2828139555666953  1.0000
  H   H9        1.0  0.0018031665962841017  0.21691269244872327  0.06522509914969143  1.0000
  H   H10       1.0  0.06805024332949694  0.8027381620280132  0.27114365986424804  1.0000
  H   H11       1.0  0.17116338170500237  0.6908969166592437  0.599558651707683  1.0000
  H   H12       1.0  0.98079385020832  0.6900955589602774  0.7987310074578766  1.0000
  H   H13       1.0  0.8915383506385318  0.819133892538204  0.7655922529128207  1.0000
  H   H14       1.0  0.002218973401072462  0.857997789272333  0.6919670200599914  1.0000
  C   C19       1.0  0.08464963030660089  0.5560137694522111  0.9810035368237943  1.0000
  C   C20       1.0  0.0022991081091432415  0.5478174640434315  0.05503447108716264  1.0000
  C   C21       1.0  0.9208357972719424  0.5513107027994297  0.9801234775499719  1.0000
  C   C22       1.0  0.9217283766460244  0.5676893288089735  0.8287185412438798  1.0000
  C   C23       1.0  0.0027190684964257775  0.5737344264946411  0.7534918988319488  1.0000
  C   C24       1.0  0.08480877648808693  0.565103551916571  0.8274260324980688  1.0000
  N   N3        1.0  0.8382399654800351  0.546334842387185  0.06020644915821394  1.0000
  C   C25       1.0  0.7571532218070273  0.47998859598851057  0.0137038320288172  1.0000
  O   O1        1.0  0.7562063890231951  0.40364839420900345  0.9066176195520081  1.0000
  H   H15       1.0  0.29627997551501706  0.6559663080286549  0.07683990454540959  1.0000
  H   H16       1.0  0.8599475091149889  0.5773565365526929  0.7681088474807308  1.0000
  H   H17       1.0  0.22801344692447204  0.626325444196955  0.5420191480306848  1.0000
  H   H18       1.0  0.8381584308162078  0.5846911662874821  0.16349283828647732  1.0000
  H   H19       1.0  0.6960268962684186  0.49214856495605336  0.07412056376711273  1.0000
  Zn  Zn1       1.0  0.9866141910148417  0.5606597771420807  0.40427741882630364  1.0000
  Zn  Zn2       1.0  0.1828356412690466  0.5604568715169518  0.40415147287125675  1.0000
  C   C26       1.0  0.0847408677143231  0.5576386293386091  0.667453937305962  1.0000
  C   C27       1.0  0.08471111867665448  0.5634798387563587  0.14097508816567994  1.0000
  C   C28       1.0  0.0863662044110447  0.8239633492808246  0.3975595581921334  1.0000
  C   C29       1.0  0.08308570423174588  0.2971533865682501  0.4108695501586701  1.0000
  O   O2        1.0  0.15919673325170836  0.5659022248445358  0.19461522811119103  1.0000
  O   O3        1.0  0.15918278676377984  0.5550611498723961  0.6137177961998215  1.0000
  O   O4        1.0  0.16049426315927762  0.7701217464924752  0.3957761709687161  1.0000
  O   O5        1.0  0.15788518994314363  0.3508416374525658  0.41255674529130393  1.0000
  O   O6        1.0  0.01156457538000288  0.7702750112771972  0.39587214644165014  1.0000
  O   O7        1.0  0.010253109771949145  0.555216146973742  0.6138136888289876  1.0000
  O   O8        1.0  0.010267055680213124  0.5660571530690306  0.19470938820284656  1.0000
  O   O9        1.0  0.008955512323972847  0.3509965565196822  0.41265101346934574  1.0000
