data_image0
_chemical_formula_structural       NC5NC4H6C6NCOH7C9H10Zn2C4O8
_chemical_formula_sum              "N3 C29 H23 O9 Zn2"
_cell_length_a       13.854160002989762
_cell_length_b       9.273730183620392
_cell_length_c       10.297187173949778
_cell_angle_alpha    85.71383111101245
_cell_angle_beta     89.97408711938004
_cell_angle_gamma    90.59425878659923

_space_group_name_H-M_alt    "P 1"
_space_group_IT_number       1

loop_
  _space_group_symop_operation_xyz
  'x, y, z'

loop_
  _atom_site_type_symbol
  _atom_site_label
  _atom_site_symmetry_multiplicity
  _atom_site_fract_x
  _atom_site_fract_y
  _atom_site_fract_z
  _atom_site_occupancy
  N   N1        1.0  0.920345326521025  0.5781072823075245  0.5708120596399753  1.0000
  C   C1        1.0  0.8482054893717392  0.603311180700898  0.5176642238784315  1.0000
  C   C2        1.0  0.7584625191562693  0.6346655138305558  0.4515462805277517  1.0000
  C   C3        1.0  0.6706649819840669  0.6051919586895568  0.5161072079723781  1.0000
  C   C4        1.0  0.5833201068914866  0.6346655281566946  0.45154625968027595  1.0000
  C   C5        1.0  0.4930973469570576  0.603311033397699  0.5176643060977248  1.0000
  N   N2        1.0  0.42057175548245895  0.5781072188127756  0.5708120594152484  1.0000
  C   C6        1.0  0.5838096068747883  0.694219023756617  0.3224429003118159  1.0000
  C   C7        1.0  0.6715893677262393  0.7258426165995389  0.257793730220921  1.0000
  C   C8        1.0  0.6720513643864049  0.785635855697944  0.11833831597051316  1.0000
  C   C9        1.0  0.7588866959285272  0.6942190224204522  0.32244281896002613  1.0000
  H   H1        1.0  0.6703106505612373  0.558987419862683  0.6160305806698387  1.0000
  H   H2        1.0  0.5161046799936163  0.7159980284459022  0.2723479831086697  1.0000
  H   H3        1.0  0.7373859576000185  0.8537912585683706  0.09706184626258074  1.0000
  H   H4        1.0  0.6076774799347127  0.8537912604530096  0.09706190491415279  1.0000
  H   H5        1.0  0.6714446420920297  0.6951059981897492  0.05365257824742554  1.0000
  H   H6        1.0  0.8269276398822277  0.715998140915288  0.2723479063916856  1.0000
  C   C10       1.0  0.1675149345723723  0.15460649747630195  0.5698456245471821  1.0000
  C   C11       1.0  0.18170934683599468  0.23807758353211939  0.4514345726929743  1.0000
  C   C12       1.0  0.2033245842309428  0.1732544273269898  0.33649234360619484  1.0000
  C   C13       1.0  0.21380528984134872  0.022799658567259184  0.34085507163854833  1.0000
  C   C14       1.0  0.19852927824181282  0.9381584116090136  0.4569297908526131  1.0000
  C   C15       1.0  0.17341133472099332  0.0015969409647991226  0.571789774645616  1.0000
  N   N3        1.0  0.21967964627015757  0.2630153434639415  0.21834192065413194  1.0000
  C   C16       1.0  0.19561186440631517  0.22204311371227758  0.09073210428594503  1.0000
  O   O1        1.0  0.14599893095725536  0.11013948997567448  0.0749577083934303  1.0000
  H   H7        1.0  0.18253863367172182  0.23127960926617797  0.889059443811168  1.0000
  H   H8        1.0  0.17741598098163372  0.35490379846159703  0.4485696680927776  1.0000
  H   H9        1.0  0.23477963911528246  0.9702939117267464  0.2550107787128668  1.0000
  H   H10       1.0  0.20474063452861713  0.821866805705013  0.45621740895818075  1.0000
  H   H11       1.0  0.17939056536478287  0.7028083695513486  0.7865809964148808  1.0000
  H   H12       1.0  0.24473945511513906  0.36878974883142523  0.22547680841156106  1.0000
  H   H13       1.0  0.21805816316945223  0.29064558704115995  0.006287827717970543  1.0000
  C   C17       1.0  0.17059036460992288  0.5780495674214311  0.18936440655777176  1.0000
  C   C18       1.0  0.07304863205093248  0.6176612655552134  0.18597341200942474  1.0000
  C   C19       1.0  0.023075125817324946  0.6379552641786213  0.06761970122849936  1.0000
  C   C20       1.0  0.07267050851139922  0.6178142667483988  0.9507510380895418  1.0000
  C   C21       1.0  0.1703358889653496  0.5781538558392083  0.9522709556077191  1.0000
  C   C22       1.0  0.21865801608754798  0.5585290824355071  0.07196720571339177  1.0000
  C   C23       1.0  0.9175767095458638  0.6807978517535569  0.07338426757938543  1.0000
  C   C24       1.0  0.8495978127039497  0.6227916264852174  0.972979276122798  1.0000
  C   C25       1.0  0.8794076659125931  0.7818946955826613  0.9622449693066031  1.0000
  H   H14       1.0  0.20817901190856936  0.5627989974146796  0.5182085059791082  1.0000
  H   H15       1.0  0.0353922483858966  0.6329539156617203  0.276086661105452  1.0000
  H   H16       1.0  0.03605901679283806  0.6326788645923636  0.8581780546160173  1.0000
  H   H17       1.0  0.2939133171852927  0.5279671078277133  0.07385608035027236  1.0000
  H   H18       1.0  0.3547945024954664  0.5032280532369918  0.7479264608843654  1.0000
  H   H19       1.0  0.8836679493312459  0.6945694032598413  0.16949315786198693  1.0000
  H   H20       1.0  0.8818329326147559  0.5576990886687782  0.8983048880421897  1.0000
  H   H21       1.0  0.7744433762841086  0.6032780010085799  0.008053060398128588  1.0000
  H   H22       1.0  0.92975111376886  0.8134483920398424  0.8810510047740974  1.0000
  H   H23       1.0  0.8216749182388393  0.8553702431616347  0.9910426077839881  1.0000
  Zn  Zn1       1.0  0.0646998446027862  0.5781034039197329  0.5708195600958192  1.0000
  Zn  Zn2       1.0  0.2762171528609152  0.5780992972675743  0.5708151999982682  1.0000
  C   C26       1.0  0.1703418318982166  0.5723888779533814  0.8080520919706393  1.0000
  C   C27       1.0  0.1705774879529637  0.5838156428530044  0.3335827997471439  1.0000
  C   C28       1.0  0.1722935274488553  0.8414969749845044  0.5662459397731221  1.0000
  C   C29       1.0  0.1686257081410123  0.3147058131553431  0.5753890172230542  1.0000
  O   O2        1.0  0.2508428387816916  0.5857429403228547  0.38198214087713556  1.0000
  O   O3        1.0  0.2506132164108971  0.5704573756208673  0.7596490652015575  1.0000
  O   O4        1.0  0.2521881527258778  0.787765567515484  0.5643888899476324  1.0000
  O   O5        1.0  0.24926783039448996  0.36843475873289083  0.5772422187600219  1.0000
  O   O6        1.0  0.09164909488874828  0.7877679424573875  0.5643925413287245  1.0000
  O   O7        1.0  0.09007417065461708  0.5704614832322796  0.759652651298916  1.0000
  O   O8        1.0  0.09030379326070667  0.5857469974652056  0.3819841651130753  1.0000
  O   O9        1.0  0.08872878476526291  0.36843880557355924  0.5772443403616598  1.0000
