data_image0
_chemical_formula_structural       NC9NC4H8C8H6C6SCNH5Zn2C4O8
_chemical_formula_sum              "N3 C32 H19 S1 Zn2 O8"
_cell_length_a       16.32274767691083
_cell_length_b       9.27514070457351
_cell_length_c       10.302218930750287
_cell_angle_alpha    85.68853581932115
_cell_angle_beta     89.48597253194706
_cell_angle_gamma    90.11802364943966

_space_group_name_H-M_alt    "P 1"
_space_group_IT_number       1

loop_
  _space_group_symop_operation_xyz
  'x, y, z'

loop_
  _atom_site_type_symbol
  _atom_site_label
  _atom_site_symmetry_multiplicity
  _atom_site_fract_x
  _atom_site_fract_y
  _atom_site_fract_z
  _atom_site_occupancy
  N   N1        1.0  0.7804073126696871  0.5678970345530121  0.5604874578006143  1.0000
  C   C1        1.0  0.7277600933465634  0.5152372285212712  0.5060986338725042  1.0000
  C   C2        1.0  0.6623193562045725  0.4498333394533478  0.43854727966736395  1.0000
  C   C3        1.0  0.6733426233619081  0.360372491502464  0.3461447570090044  1.0000
  C   C4        1.0  0.5937186190962367  0.3167151226292366  0.30105539046095653  1.0000
  C   C5        1.0  0.5351637493952226  0.38060667426221073  0.3670501328049325  1.0000
  C   C6        1.0  0.44512632073682135  0.36372071086162566  0.34961184311062143  1.0000
  C   C7        1.0  0.38997116492888945  0.4381904418077964  0.4265255858495753  1.0000
  C   C8        1.0  0.3051772340552658  0.42375888603742007  0.41162171893080424  1.0000
  C   C9        1.0  0.24962370261572403  0.5005179536000208  0.49089916419479485  1.0000
  N   N2        1.0  0.2049775299378803  0.5622196129840423  0.5546248037848578  1.0000
  C   C10       1.0  0.27448470794678587  0.33473715877965565  0.3196803431710624  1.0000
  C   C11       1.0  0.3283185292617134  0.26036606837714227  0.24286881950565853  1.0000
  C   C12       1.0  0.41295136334277743  0.2744089047649821  0.2573710885692879  1.0000
  C   C13       1.0  0.5734691670900691  0.4737676111245206  0.46327179329006046  1.0000
  H   H1        1.0  0.732044271660398  0.3255853866888094  0.3102115160127814  1.0000
  H   H2        1.0  0.584990653623845  0.24359888312724554  0.2255347391726548  1.0000
  H   H3        1.0  0.41249484330201164  0.5076869074150556  0.498301435991249  1.0000
  H   H4        1.0  0.20902260077453452  0.3228485464762718  0.3074028727344107  1.0000
  H   H5        1.0  0.30440253145863805  0.19149946296660136  0.17174374524895986  1.0000
  H   H6        1.0  0.4523805785324481  0.21491681962863485  0.19592720823352883  1.0000
  H   H7        1.0  0.5564870518474744  0.4351767998880914  0.5646681500263115  1.0000
  H   H8        1.0  0.557364057016245  0.589305950880803  0.44135322664291077  1.0000
  C   C14       1.0  0.9902075184162116  0.14165090481696385  0.5566824576893155  1.0000
  C   C15       1.0  0.001882252651330242  0.224951779498418  0.43808595410388546  1.0000
  C   C16       1.0  0.020702304351853495  0.15940002683815524  0.32404418551874525  1.0000
  C   C17       1.0  0.0282979473150744  0.009368224969387618  0.3264075470319092  1.0000
  C   C18       1.0  0.015573565674717347  0.9245008190027111  0.442890670503588  1.0000
  C   C19       1.0  0.995185090993137  0.9884544992170208  0.5584409388850653  1.0000
  C   C20       1.0  0.048234980016517826  0.9420511024715946  0.20872125100063088  1.0000
  C   C21       1.0  0.06492794610283092  0.8856745353787425  0.11019256336520655  1.0000
  H   H9        1.0  0.0036705188929260224  0.2179354794797137  0.8755174593901289  1.0000
  H   H10       1.0  0.9983587387989353  0.3418242779072024  0.4341578200826919  1.0000
  H   H11       1.0  0.030132456937598473  0.22602630397857082  0.23415757617003255  1.0000
  H   H12       1.0  0.01970332831151487  0.807838383617111  0.44267325797789003  1.0000
  H   H13       1.0  0.0011053382342167686  0.689821645128227  0.773302569742732  1.0000
  H   H14       1.0  0.07958078750391029  0.8361860554420737  0.023705067998937235  1.0000
  C   C22       1.0  0.9926203280046282  0.5651212560840103  0.1762877092056312  1.0000
  C   C23       1.0  0.06938433827404467  0.4969080612079101  0.17886144969725093  1.0000
  C   C24       1.0  0.10754293815119607  0.46251241386410974  0.06316445703898821  1.0000
  C   C25       1.0  0.06958304335725483  0.4967268174081567  0.9437040737389842  1.0000
  C   C26       1.0  0.9927722869662143  0.5649841330167968  0.9388356502608692  1.0000
  C   C27       1.0  0.9546984908102021  0.5987540196958774  0.05568959746894708  1.0000
  S   S1        1.0  0.2056766941741648  0.3759965144884434  0.06788758180245491  1.0000
  C   C28       1.0  0.1617985173278127  0.2013764807565268  0.08037825840656287  1.0000
  N   N3        1.0  0.13300792556101304  0.0869053018666619  0.08856730135719149  1.0000
  H   H15       1.0  0.9634175967072541  0.5911487919646299  0.5026383031849564  1.0000
  H   H16       1.0  0.09980255952638739  0.46996627687177894  0.2704560126311488  1.0000
  H   H17       1.0  0.10013746214039831  0.46966073389301105  0.8550292712151375  1.0000
  H   H18       1.0  0.8954930323279153  0.6513429444957328  0.05285787848996337  1.0000
  H   H19       1.0  0.8480320555576347  0.69378048115003  0.7224315466941955  1.0000
  Zn  Zn1       1.0  0.9029290911063154  0.5662547821850952  0.558803112577763  1.0000
  Zn  Zn2       1.0  0.08245569024572985  0.5638500317468584  0.5563197609697204  1.0000
  C   C29       1.0  0.9927079828567997  0.5592661124572694  0.7946858618382405  1.0000
  C   C30       1.0  0.9926787696392217  0.5708404944371389  0.32043711580363143  1.0000
  C   C31       1.0  0.9942389922393748  0.8283915797671909  0.5529346966581803  1.0000
  C   C32       1.0  0.9911476888279638  0.3017132956400897  0.5621883474552443  1.0000
  O   O1        1.0  0.060827754973477456  0.5718410425374971  0.3678725414236428  1.0000
  O   O2        1.0  0.06081552583842287  0.556439326765988  0.7453652537968805  1.0000
  O   O3        1.0  0.06205091712915146  0.7737615572342258  0.5501494933020306  1.0000
  O   O4        1.0  0.05959230246370862  0.35451882322162875  0.5630882054368844  1.0000
  O   O5        1.0  0.9257924176247277  0.7755859915325185  0.5520346689512192  1.0000
  O   O6        1.0  0.9245570364990724  0.5582654933736035  0.7472503638151362  1.0000
  O   O7        1.0  0.9245692650821663  0.5736671591805147  0.36975609032483536  1.0000
  O   O8        1.0  0.9233338125278283  0.3563449295344718  0.5649718516603051  1.0000
