data_image0
_chemical_formula_structural       NC9NC4H8C7F3H5C6NCOCH7Zn2C4O8
_chemical_formula_sum              "N3 C32 H20 F3 O9 Zn2"
_cell_length_a       16.32274767691083
_cell_length_b       9.272718291674593
_cell_length_c       10.30027207537675
_cell_angle_alpha    85.97182266394306
_cell_angle_beta     89.46610543676563
_cell_angle_gamma    89.10298441660798

_space_group_name_H-M_alt    "P 1"
_space_group_IT_number       1

loop_
  _space_group_symop_operation_xyz
  'x, y, z'

loop_
  _atom_site_type_symbol
  _atom_site_label
  _atom_site_symmetry_multiplicity
  _atom_site_fract_x
  _atom_site_fract_y
  _atom_site_fract_z
  _atom_site_occupancy
  N   N1        1.0  0.7648965945763335  0.5681847950389614  0.5676708284086449  1.0000
  C   C1        1.0  0.7127926287637613  0.5155362820655028  0.5130196767791657  1.0000
  C   C2        1.0  0.648026616713794  0.4501464190662226  0.44514250952425805  1.0000
  C   C3        1.0  0.659972788321513  0.3607047571564972  0.35229433187305625  1.0000
  C   C4        1.0  0.5807991655567101  0.3170567504479931  0.3069874840508524  1.0000
  C   C5        1.0  0.5215851712976537  0.38093459924001116  0.37330050675639304  1.0000
  C   C6        1.0  0.43172194257548696  0.3640522566575266  0.35577809914383457  1.0000
  C   C7        1.0  0.37579853611958636  0.4385060175654446  0.4330628166898911  1.0000
  C   C8        1.0  0.2911534849404525  0.42407755637459  0.41808705850127825  1.0000
  C   C9        1.0  0.23480808558043867  0.5008201631071332  0.4977468828634779  1.0000
  N   N2        1.0  0.18952538148152887  0.5625085907702012  0.561779892248733  1.0000
  C   C10       1.0  0.2613793315366907  0.33507491943514445  0.3257022168124144  1.0000
  C   C11       1.0  0.3159803858219551  0.2607197778477981  0.24852020979283804  1.0000
  C   C12       1.0  0.4004683503730958  0.27475960304172375  0.2630924336758089  1.0000
  C   C13       1.0  0.5589295139038717  0.4740755570631585  0.4699862539294155  1.0000
  H   H1        1.0  0.7190333111269596  0.3259251133499834  0.31618779620420945  1.0000
  H   H2        1.0  0.5728254887811634  0.24395619171120322  0.23110259945461162  1.0000
  H   H3        1.0  0.3976052697521826  0.5079875799392056  0.5051848667715995  1.0000
  H   H4        1.0  0.1960398703410826  0.32318885637761713  0.31336552290929287  1.0000
  H   H5        1.0  0.29277483489175266  0.1918679405473429  0.17705207332728357  1.0000
  H   H6        1.0  0.44051130246747316  0.2152802758504624  0.2013521905851714  1.0000
  H   H7        1.0  0.5423148429906576  0.43546420646078393  0.5712193311762512  1.0000
  H   H8        1.0  0.5416631461267252  0.5896179337773336  0.44861428586635177  1.0000
  C   C14       1.0  0.9789993163831009  0.14194104388007056  0.5618319467462805  1.0000
  C   C15       1.0  0.9290563429856029  0.22395133349511356  0.47278132327580996  1.0000
  C   C16       1.0  0.8733157190229192  0.15719138059107407  0.39405746032076355  1.0000
  C   C17       1.0  0.8696895799205786  0.005948638211421333  0.40169981164537405  1.0000
  C   C18       1.0  0.9196938473932216  0.9229794046735591  0.4879395619143284  1.0000
  C   C19       1.0  0.9754305435474006  0.9887410878495821  0.5676298664877789  1.0000
  C   C20       1.0  0.8218825408950196  0.24682168537420757  0.2967660315066416  1.0000
  F   F1        1.0  0.8008281746614168  0.37850656153657947  0.3442531554128676  1.0000
  F   F2        1.0  0.7503609089639485  0.17638640744201298  0.27062725219635886  1.0000
  F   F3        1.0  0.8660842628124947  0.27105105832076193  0.18240153187431862  1.0000
  H   H9        1.0  0.07628091143988147  0.21923995075096547  0.8407356560837207  1.0000
  H   H10       1.0  0.9323269333415612  0.340878467439653  0.4666919223566155  1.0000
  H   H11       1.0  0.8287363915196393  0.9514243838989098  0.33982144946275983  1.0000
  H   H12       1.0  0.9163497199424827  0.8062544330159325  0.4897331419685287  1.0000
  H   H13       1.0  0.15132026158262346  0.8704238122938605  0.7214868054198927  1.0000
  C   C21       1.0  0.9772210414617791  0.5654874021709215  0.18337906370669718  1.0000
  C   C22       1.0  0.8932216774910672  0.6007162569693072  0.18133687011408783  1.0000
  C   C23       1.0  0.851133316561797  0.6204126884419046  0.06290312231027784  1.0000
  C   C24       1.0  0.8932313446154693  0.600387419764453  0.9462005455597722  1.0000
  C   C25       1.0  0.9772088578351318  0.5651946867131665  0.9460827385325551  1.0000
  C   C26       1.0  0.018827722020305693  0.5484669152817845  0.06518581578877192  1.0000
  N   N3        1.0  0.7648540423352985  0.6542620414916696  0.059340392832656574  1.0000
  C   C27       1.0  0.7238020242020039  0.7445608956534022  0.1479711339662455  1.0000
  O   O1        1.0  0.7641467160685448  0.821133680606249  0.22019770397022875  1.0000
  C   C28       1.0  0.6324217618577661  0.7563866378101809  0.14819842297248398  1.0000
  H   H14       1.0  0.8602005241159834  0.6100111080705922  0.27199821964670234  1.0000
  H   H15       1.0  0.8601334173392254  0.6136382575172479  0.8553774180566047  1.0000
  H   H16       1.0  0.08361869564455837  0.5213349392752828  0.06594949656152505  1.0000
  H   H17       1.0  0.7307723743320059  0.618762709934225  0.9826123373082426  1.0000
  H   H18       1.0  0.6056687890090273  0.6489991182438168  0.13546234851734537  1.0000
  H   H19       1.0  0.6098096189746629  0.7951997521577263  0.24181865372836042  1.0000
  H   H20       1.0  0.6124109361138537  0.8337080305105118  0.06713667997340367  1.0000
  Zn  Zn1       1.0  0.8874353123864566  0.5665428924441953  0.5659783046411775  1.0000
  Zn  Zn2       1.0  0.06698671953692181  0.5641386576395553  0.5634829737103626  1.0000
  C   C29       1.0  0.9772335186341401  0.5595061298794701  0.8018760848226998  1.0000
  C   C30       1.0  0.9771904663159768  0.5711772131387605  0.32758530619661386  1.0000
  C   C31       1.0  0.9761009945311205  0.8286799017168759  0.5613590209995629  1.0000
  C   C32       1.0  0.9783229364501065  0.3020017098071757  0.5681024282461149  1.0000
  O   O2        1.0  0.04531905480098697  0.5721680808463677  0.37503523036465647  1.0000
  O   O3        1.0  0.04538029822962273  0.5566894160157028  0.7525318809395536  1.0000
  O   O4        1.0  0.04446485212816741  0.7740506527227378  0.5583126732346997  1.0000
  O   O5        1.0  0.04623443959179993  0.35480685531134176  0.5692543416213136  1.0000
  O   O6        1.0  0.9081875310594891  0.7758746955944289  0.5602069375749408  1.0000
  O   O7        1.0  0.9091029698577447  0.5585151912035926  0.754426087898144  1.0000
  O   O8        1.0  0.909041726720346  0.5739938063883088  0.37692787564777136  1.0000
  O   O9        1.0  0.9099571115497114  0.3566325705032938  0.5711470841973396  1.0000
