data_image0
_chemical_formula_structural       NC8NH4C6BrH5C7ONH5Zn2C4O8
_chemical_formula_sum              "N3 C25 H14 Br1 O9 Zn2"
_cell_length_a       13.859017124695912
_cell_length_b       9.276564384272257
_cell_length_c       9.273042158839658
_cell_angle_alpha    86.1127255114725
_cell_angle_beta     90.09322216123502
_cell_angle_gamma    90.58596084768166

_space_group_name_H-M_alt    "P 1"
_space_group_IT_number       1

loop_
  _space_group_symop_operation_xyz
  'x, y, z'

loop_
  _atom_site_type_symbol
  _atom_site_label
  _atom_site_symmetry_multiplicity
  _atom_site_fract_x
  _atom_site_fract_y
  _atom_site_fract_z
  _atom_site_occupancy
  N   N1        1.0  0.9175459396630713  0.5614751775376567  0.4088004637906182  1.0000
  C   C1        1.0  0.8449697922042956  0.5380256911752903  0.35265750409653074  1.0000
  C   C2        1.0  0.7546893919543366  0.5088579511168041  0.2828228774255843  1.0000
  C   C3        1.0  0.6673429657171227  0.5372935290629237  0.3509028515871693  1.0000
  C   C4        1.0  0.5794590798115821  0.5088591707873074  0.2828222971006127  1.0000
  C   C5        1.0  0.5791039534904209  0.4519815149792519  0.1466408699519528  1.0000
  C   C6        1.0  0.6662688529212947  0.4236552318436644  0.07882295396939787  1.0000
  C   C7        1.0  0.7539692976533974  0.45197917803109905  0.14664205026675758  1.0000
  C   C8        1.0  0.48972995924928653  0.5380266124445401  0.3526570053055449  1.0000
  N   N2        1.0  0.41759706720854267  0.5614754978591632  0.40880024751240285  1.0000
  H   H1        1.0  0.6677590507793195  0.5813190351118396  0.45631053812028854  1.0000
  H   H2        1.0  0.5115969976506761  0.42960161617172626  0.0930544759250429  1.0000
  H   H3        1.0  0.665853681670199  0.3797196357524173  0.9736287351701041  1.0000
  H   H4        1.0  0.8210531863419912  0.4295971891083681  0.09305665722552092  1.0000
  C   C9        1.0  0.1646694702570608  0.13799826650546132  0.40916894546267923  1.0000
  C   C10       1.0  0.1521512180190152  0.22011040486028596  0.27743337935301216  1.0000
  C   C11       1.0  0.14861419101283624  0.15374734850596283  0.1469282856759344  1.0000
  C   C12       1.0  0.15757109776549383  0.0043270579084086986  0.14568073557268235  1.0000
  C   C13       1.0  0.1683872038009746  0.9205006133766276  0.2754242380830685  1.0000
  C   C14       1.0  0.17048271035154205  0.9849414418824669  0.4084442115164726  1.0000
  Br  Br1       1.0  0.15344113509499957  0.9140836590593531  0.966604944830361  1.0000
  H   H5        1.0  0.13664745882547402  0.40301807855982075  0.6434986777103302  1.0000
  H   H6        1.0  0.14738668024760382  0.3367408113997834  0.274965826155265  1.0000
  H   H7        1.0  0.13982678734243836  0.2189104034510605  0.046529646898882504  1.0000
  H   H8        1.0  0.17284801394055435  0.8042279126008628  0.27231670452354906  1.0000
  H   H9        1.0  0.22397150171282476  0.6893726024539142  0.6329306920593392  1.0000
  C   C15       1.0  0.16708410310111987  0.5570130286809727  0.9855455111831892  1.0000
  C   C16       1.0  0.0785242792163643  0.5661959473785254  0.05821849720491113  1.0000
  C   C17       1.0  0.9918026163081856  0.5893276143774426  0.9819425781988268  1.0000
  C   C18       1.0  0.994163759313081  0.6015345389982133  0.8304334320206301  1.0000
  C   C19       1.0  0.08112945738226539  0.5902343570263675  0.7567528276274462  1.0000
  C   C20       1.0  0.16806810223978186  0.5659266705817452  0.83206772253962  1.0000
  C   C21       1.0  0.8996676623829085  0.5992828252825322  0.06179411781806942  1.0000
  O   O1        1.0  0.8928384545883805  0.5434773690525355  0.18921249226225867  1.0000
  N   N3        1.0  0.8180954085453135  0.6724430413032845  0.9981950892742762  1.0000
  H   H10       1.0  0.40156355165565794  0.6120962160868495  0.08545834015286347  1.0000
  H   H11       1.0  0.9286464441720682  0.6157927461335293  0.7677981257588797  1.0000
  H   H12       1.0  0.3260687261360536  0.596337021858522  0.5491198541763884  1.0000
  H   H13       1.0  0.8231696152545536  0.7347157214330289  0.9004759754185523  1.0000
  H   H14       1.0  0.7528779056066861  0.6722806812066527  0.054437716051474856  1.0000
  Zn  Zn1       1.0  0.06184987963604627  0.5614715074948853  0.40880873258120887  1.0000
  Zn  Zn2       1.0  0.27329305259807457  0.5614675287411965  0.4088038105181897  1.0000
  C   C22       1.0  0.16784049593778883  0.5584969098421495  0.6720617905382278  1.0000
  C   C23       1.0  0.16730475790260946  0.5644439473852159  0.14555089241877073  1.0000
  C   C24       1.0  0.1693722380540044  0.8247906970821293  0.4028375926937129  1.0000
  C   C25       1.0  0.16577293183287778  0.29814842837489053  0.41477516859172137  1.0000
  O   O2        1.0  0.24762035068119626  0.5669300303532933  0.19924829751453088  1.0000
  O   O3        1.0  0.2480053710260235  0.5560067148261885  0.6183602357295357  1.0000
  O   O4        1.0  0.24924119220354024  0.7710423315685366  0.4009597899063997  1.0000
  O   O5        1.0  0.24638445729763594  0.35189442279032823  0.41664863525955065  1.0000
  O   O6        1.0  0.08875840278130888  0.7710446134486013  0.40096390783394487  1.0000
  O   O7        1.0  0.08752259340213353  0.5560107284794467  0.6183642753227423  1.0000
  O   O8        1.0  0.08713757076226947  0.5669339755065277  0.19925060423509056  1.0000
  O   O9        1.0  0.08590167742957755  0.35189835876702746  0.4166510500523237  1.0000
