data_image0
_chemical_formula_structural       NC10NC3NH7C7OC3OC4H12C7OC6H10Zn2C4O8
_chemical_formula_sum              "N3 C44 H29 O11 Zn2"
_cell_length_a       19.210446455230148
_cell_length_b       10.299371110280156
_cell_length_c       10.299382801718284
_cell_angle_alpha    85.58971110706742
_cell_angle_beta     89.97114799571779
_cell_angle_gamma    89.9600477448761

_space_group_name_H-M_alt    "P 1"
_space_group_IT_number       1

loop_
  _space_group_symop_operation_xyz
  'x, y, z'

loop_
  _atom_site_type_symbol
  _atom_site_label
  _atom_site_symmetry_multiplicity
  _atom_site_fract_x
  _atom_site_fract_y
  _atom_site_fract_z
  _atom_site_occupancy
  N   N1        1.0  0.6559003950406923  0.4199314785471456  0.5678374583009776  1.0000
  C   C1        1.0  0.5956718959331123  0.42213901106559065  0.5680694077529103  1.0000
  C   C2        1.0  0.5208675186835984  0.4248759471098615  0.5683567649366374  1.0000
  C   C3        1.0  0.4852587373980982  0.5411078422003694  0.5835107290740844  1.0000
  C   C4        1.0  0.4125932720900258  0.5412593690986638  0.5834581868631568  1.0000
  C   C5        1.0  0.37570077764132936  0.425584921464998  0.5684435053856338  1.0000
  C   C6        1.0  0.2983786217288213  0.4242284337707635  0.5682924210757119  1.0000
  C   C7        1.0  0.2606385464323599  0.5277874001813903  0.5049684153611844  1.0000
  C   C8        1.0  0.1878601559820524  0.5263851647272606  0.5048588320795158  1.0000
  C   C9        1.0  0.15182044770278472  0.4216814615990023  0.5680223513510462  1.0000
  C   C10       1.0  0.0768909008680012  0.42037936970692064  0.5678850500511277  1.0000
  N   N2        1.0  0.0166530270115829  0.4193324436231746  0.5677746946657412  1.0000
  C   C11       1.0  0.18883687426007142  0.31824818229856144  0.6313213943157219  1.0000
  C   C12       1.0  0.26161709524579474  0.31937616080097614  0.6314811237122597  1.0000
  C   C13       1.0  0.4139194427477533  0.3111733125038958  0.553578366176584  1.0000
  N   N3        1.0  0.48468945460382296  0.3136182908208953  0.55374481646812  1.0000
  H   H1        1.0  0.5133610930360989  0.6305425708961209  0.5955916033782451  1.0000
  H   H2        1.0  0.3853256087961334  0.6312761880912281  0.5969339920899308  1.0000
  H   H3        1.0  0.2873768239105509  0.6090315122578811  0.454007432325239  1.0000
  H   H4        1.0  0.1597245001309066  0.6068018001282458  0.4552279382926501  1.0000
  H   H5        1.0  0.1614591788237885  0.23686814307560677  0.6808524538597572  1.0000
  H   H6        1.0  0.2891076554248039  0.23907894791808879  0.6825497831424179  1.0000
  H   H7        1.0  0.3876528878647458  0.22029357356083132  0.5400560006788826  1.0000
  C   C14       1.0  0.8362331268872438  0.03826062977371536  0.5676912832733074  1.0000
  C   C15       1.0  0.8282376390034636  0.04753790913895782  0.4317092096271383  1.0000
  C   C16       1.0  0.8234186134364692  0.9350315278457713  0.36329193831400103  1.0000
  C   C17       1.0  0.8282721338307089  0.8122700246134651  0.4320202858456657  1.0000
  C   C18       1.0  0.8363269481738833  0.800993336439531  0.5679321162991748  1.0000
  C   C19       1.0  0.8400785804728607  0.9145860223442778  0.6350188863716569  1.0000
  C   C20       1.0  0.8157019037861184  0.944698423974913  0.21954799445414946  1.0000
  O   O1        1.0  0.8442480819798835  0.8596012812721379  0.15552085876808985  1.0000
  C   C21       1.0  0.7755932476348611  0.05082193740316843  0.14844499396927824  1.0000
  C   C22       1.0  0.7950734717343454  0.09592783326818342  0.021300584630913777  1.0000
  C   C23       1.0  0.7574349170816382  0.19499171827725023  0.9519271722814382  1.0000
  O   O2        1.0  0.779682180290181  0.23674055585731232  0.8258269794882122  1.0000
  C   C24       1.0  0.7465162498950544  0.33626677124140597  0.7443987451360338  1.0000
  C   C25       1.0  0.6990316316749825  0.24895751435936608  0.010424716063659023  1.0000
  C   C26       1.0  0.6788370304652611  0.2035627064888368  0.13605220906050297  1.0000
  C   C27       1.0  0.7165992524792403  0.10477978799547305  0.20467343137521057  1.0000
  H   H8        1.0  0.852383733453476  0.22809108243523732  0.8240783398882292  1.0000
  H   H9        1.0  0.8265237222223885  0.14246611871458348  0.37868043170962906  1.0000
  H   H10       1.0  0.8250812939358725  0.7254059560360604  0.379299029474816  1.0000
  H   H11       1.0  0.8462429638139313  0.906630117749622  0.739851101357168  1.0000
  H   H12       1.0  0.8400002745228368  0.46921305940126407  0.6200177136863263  1.0000
  H   H13       1.0  0.8400887512747411  0.05494929595758234  0.9759204589211006  1.0000
  H   H14       1.0  0.7749291680400747  0.3492947071349233  0.6505240502464185  1.0000
  H   H15       1.0  0.7475331863389693  0.42972981890715317  0.7914170596584928  1.0000
  H   H16       1.0  0.6919679672092299  0.3081206357423434  0.7246442549832546  1.0000
  H   H17       1.0  0.668805038361377  0.3254982323974509  0.9595421208306123  1.0000
  H   H18       1.0  0.6335588906262015  0.2447028760487315  0.18021066307075295  1.0000
  H   H19       1.0  0.6992169022264424  0.06967687631107598  0.3010539682327818  1.0000
  C   C28       1.0  0.8363494637401006  0.4195536380434213  0.18644186752833283  1.0000
  C   C29       1.0  0.9094792921805055  0.4202956814762169  0.1851257643440538  1.0000
  C   C30       1.0  0.9463637208182699  0.41918186190411716  0.06740337383982409  1.0000
  C   C31       1.0  0.9093096687452985  0.4203240000172725  0.9498802340151484  1.0000
  C   C32       1.0  0.836210576911857  0.41970032499620924  0.9491814720890313  1.0000
  C   C33       1.0  0.8001544582747266  0.41897403823727974  0.06802793147801811  1.0000
  C   C34       1.0  0.023579484137435266  0.42134932345665915  0.06576217536437134  1.0000
  O   O3        1.0  0.05425742798351663  0.4820075940518786  0.9712491539854979  1.0000
  C   C35       1.0  0.06599282595617728  0.3546953376776649  0.17123993682715621  1.0000
  C   C36       1.0  0.13142680085492664  0.4050467584701873  0.20234590622994197  1.0000
  C   C37       1.0  0.17214288184360282  0.3420449261390046  0.3005733604780792  1.0000
  C   C38       1.0  0.14827733955730008  0.22778034940645608  0.36790535679805747  1.0000
  C   C39       1.0  0.0837662360951561  0.17598042535792907  0.33677575101522117  1.0000
  C   C40       1.0  0.042851810605293306  0.23860387258412905  0.2386502723911723  1.0000
  H   H20       1.0  0.698342777835691  0.4201649958455762  0.3960907299259773  1.0000
  H   H21       1.0  0.9378379039960617  0.423199084741664  0.27572060752812977  1.0000
  H   H22       1.0  0.937675084553113  0.4204482520898456  0.8589238714773151  1.0000
  H   H23       1.0  0.7437768706244028  0.41840277737269305  0.0682383128235593  1.0000
  H   H24       1.0  0.8081292658504265  0.4205657201656669  0.6213715767248371  1.0000
  H   H25       1.0  0.15076341528330062  0.49368818276908844  0.15143506524850947  1.0000
  H   H26       1.0  0.2222546205282885  0.38184568494841037  0.32444992997919986  1.0000
  H   H27       1.0  0.17989308776507662  0.1791003223752066  0.4438278967130571  1.0000
  H   H28       1.0  0.06556261988172496  0.08688120859288515  0.38831501294509096  1.0000
  H   H29       1.0  0.9935755140900017  0.1955195395707281  0.2145862999464774  1.0000
  Zn  Zn1       1.0  0.7600058093108429  0.4197551473745713  0.5678268440629954  1.0000
  Zn  Zn2       1.0  0.9125475935635189  0.4194981942262714  0.5677959413650708  1.0000
  C   C41       1.0  0.8362346612537825  0.4144988827441818  0.8050057551213622  1.0000
  C   C42       1.0  0.8363204075504616  0.4247560947052531  0.33061715795336166  1.0000
  C   C43       1.0  0.83630656728316  0.6568196208484083  0.562711395704792  1.0000
  C   C44       1.0  0.8362484492647154  0.18243379638952373  0.5729115861266396  1.0000
  O   O4        1.0  0.8941994674766123  0.42639890852789986  0.3789919732758958  1.0000
  O   O5        1.0  0.8941312859463435  0.4126600676268435  0.7566071112098909  1.0000
  O   O6        1.0  0.8941885703597221  0.6083371297842053  0.5609527022926583  1.0000
  O   O7        1.0  0.8941421310299256  0.2307218557297743  0.5746462848317067  1.0000
  O   O8        1.0  0.7784112197894132  0.6085314859601669  0.5609765006000744  1.0000
  O   O9        1.0  0.7783539355773801  0.4128559841034063  0.7566308407643145  1.0000
  O   O10       1.0  0.7784221174326383  0.4265947794478646  0.37901414141161593  1.0000
  O   O11       1.0  0.7783647809642368  0.23091771737960062  0.5746685503325635  1.0000
