data_image0
_chemical_formula_structural       NC6NC2H4C7NH5C6NCH7Zn2C4O8
_chemical_formula_sum              "N4 C26 H16 Zn2 O8"
_cell_length_a       14.927258858638513
_cell_length_b       9.275154477615127
_cell_length_c       9.273390368590327
_cell_angle_alpha    86.39388611738053
_cell_angle_beta     89.9908392513429
_cell_angle_gamma    89.43371000992973

_space_group_name_H-M_alt    "P 1"
_space_group_IT_number       1

loop_
  _space_group_symop_operation_xyz
  'x, y, z'

loop_
  _atom_site_type_symbol
  _atom_site_label
  _atom_site_symmetry_multiplicity
  _atom_site_fract_x
  _atom_site_fract_y
  _atom_site_fract_z
  _atom_site_occupancy
  N   N1        1.0  0.834139078278037  0.5610654008918678  0.41638107253948164  1.0000
  C   C1        1.0  0.7566125872836883  0.5610653724998123  0.4163810830136787  1.0000
  C   C2        1.0  0.6601800790408526  0.5610654870476417  0.4163810336168978  1.0000
  C   C3        1.0  0.6132940200138711  0.5360334168448212  0.2896188605669905  1.0000
  C   C4        1.0  0.5195827085348744  0.5360334410585573  0.28961872722910975  1.0000
  C   C5        1.0  0.472364016136323  0.5610653097275726  0.41638105153956695  1.0000
  C   C6        1.0  0.3759314409019339  0.5610654242783029  0.41638100213687457  1.0000
  N   N2        1.0  0.2984049499075857  0.5610653958862473  0.41638101261107163  1.0000
  C   C7        1.0  0.519250008171751  0.5860973799332945  0.5431432245835623  1.0000
  C   C8        1.0  0.6129613196507476  0.5860973557195581  0.5431433579214433  1.0000
  H   H1        1.0  0.649119619747617  0.5165570535356625  0.1909906147984184  1.0000
  H   H2        1.0  0.48401596302436406  0.5165572509851288  0.19099061064713863  1.0000
  H   H3        1.0  0.4834244754714124  0.6055737340747804  0.6417715783812856  1.0000
  H   H4        1.0  0.6485280645433035  0.6055736442728759  0.6417715849029262  1.0000
  C   C9        1.0  0.06886892549032833  0.13765837533396333  0.41471315352176785  1.0000
  C   C10       1.0  0.04430001458770108  0.21948748486010516  0.28763006873586217  1.0000
  C   C11       1.0  0.0124433334994507  0.15217059527103974  0.1672787650724572  1.0000
  C   C12       1.0  0.004630936542181719  0.0021065243596170005  0.17259314864171738  1.0000
  C   C13       1.0  0.030030608274776556  0.9190389681290386  0.29677947560738893  1.0000
  C   C14       1.0  0.06368376186913839  0.9844614615328513  0.4180614177796438  1.0000
  C   C15       1.0  0.9866828405080275  0.23756524642873011  0.038663997791369864  1.0000
  N   N3        1.0  0.9659785501016144  0.3062069898799753  0.9352906692737096  1.0000
  H   H5        1.0  0.08618118694095567  0.21808774564798908  0.7685105146140092  1.0000
  H   H6        1.0  0.04795924647118091  0.3364014551349424  0.2833534238386406  1.0000
  H   H7        1.0  0.9796697369733709  0.948997368288871  0.08009561315050306  1.0000
  H   H8        1.0  0.02532650935906667  0.8025700248261929  0.29665262992623154  1.0000
  H   H9        1.0  0.07914232056675985  0.6882093924486238  0.6551157130666736  1.0000
  C   C16       1.0  0.06634539425493391  0.5565636772735949  0.9931237139070107  1.0000
  C   C17       1.0  0.14864132308032918  0.5536988297767668  0.06671486803441273  1.0000
  C   C18       1.0  0.22942005970250146  0.5642373353941897  0.9913417442646689  1.0000
  C   C19       1.0  0.22995451221025442  0.5780312975264126  0.8397682961789554  1.0000
  C   C20       1.0  0.14821950309836762  0.5784645656346978  0.7653579257032628  1.0000
  C   C21       1.0  0.0662073094943732  0.5655561624984489  0.8396508042189441  1.0000
  N   N4        1.0  0.31223719386862003  0.5902299408167058  0.7590282533259649  1.0000
  C   C22       1.0  0.40068599396116  0.5903998715321345  0.8260171184400207  1.0000
  H   H10       1.0  0.925372082198048  0.487304387282794  0.27868986917175853  1.0000
  H   H11       1.0  0.2911510593308395  0.5629105914565375  0.052457499619980696  1.0000
  H   H12       1.0  0.8581203891528675  0.4535405475689785  0.743716827123349  1.0000
  H   H13       1.0  0.3092720144022769  0.5997856223983935  0.6461902027092967  1.0000
  H   H14       1.0  0.4059335988465633  0.6828920333620538  0.8958513616304944  1.0000
  H   H15       1.0  0.41224444030248947  0.48733495166146046  0.8911635437570903  1.0000
  H   H16       1.0  0.4531183103236961  0.6012999547935505  0.7411696472720699  1.0000
  Zn  Zn1       1.0  0.9681162104137306  0.5610616244048781  0.41638936843856  1.0000
  Zn  Zn2       1.0  0.16442789904153532  0.5610574878358425  0.4163844935872001  1.0000
  C   C23       1.0  0.06626656509123624  0.5581123969221787  0.6796163536644863  1.0000
  C   C24       1.0  0.06627967691883857  0.564008536020192  0.1531576569703104  1.0000
  C   C25       1.0  0.06466019023676653  0.824336619455316  0.41168480758076975  1.0000
  C   C26       1.0  0.06788599538054575  0.29778258201060015  0.42108927305100097  1.0000
  O   O1        1.0  0.14075692284458163  0.566499238544735  0.206864635338337  1.0000
  O   O2        1.0  0.14078535521875424  0.5556174627129551  0.625905256182034  1.0000
  O   O3        1.0  0.13948718267818283  0.7705969052150421  0.40954864301201854  1.0000
  O   O4        1.0  0.14205502835174588  0.3515198052103201  0.42322114047920145  1.0000
  O   O5        1.0  0.9904890141119665  0.7705993070333016  0.4095527215406474  1.0000
  O   O6        1.0  0.9917871760537468  0.5556215960105697  0.6259092647077775  1.0000
  O   O7        1.0  0.9917587443295308  0.566503303189372  0.20686691073970542  1.0000
  O   O8        1.0  0.993056849878549  0.3515238606901854  0.4232235239038096  1.0000
