data_image0
_chemical_formula_structural       NC8NC6H8C6NH6C6NCH8Zn2C4O8
_chemical_formula_sum              "N4 C31 H22 Zn2 O8"
_cell_length_a       17.457602349358154
_cell_length_b       9.274771166103582
_cell_length_c       9.273390368590327
_cell_angle_alpha    86.06293122453995
_cell_angle_beta     92.8511133753594
_cell_angle_gamma    92.29117059398062

_space_group_name_H-M_alt    "P 1"
_space_group_IT_number       1

loop_
  _space_group_symop_operation_xyz
  'x, y, z'

loop_
  _atom_site_type_symbol
  _atom_site_label
  _atom_site_symmetry_multiplicity
  _atom_site_fract_x
  _atom_site_fract_y
  _atom_site_fract_z
  _atom_site_occupancy
  N   N1        1.0  0.7314384187486204  0.5979071760464701  0.47356240384016157  1.0000
  C   C1        1.0  0.6700770578957733  0.5467589245425297  0.46184940882867886  1.0000
  C   C2        1.0  0.5937409770007281  0.483136960878038  0.4472890240640575  1.0000
  C   C3        1.0  0.5354583931137519  0.5286400462713778  0.5303496336343702  1.0000
  C   C4        1.0  0.46057346439389  0.46737872498721517  0.5164679982520584  1.0000
  C   C5        1.0  0.3987137198542159  0.5154260943756357  0.6044325238527044  1.0000
  C   C6        1.0  0.3242826940926857  0.5352870474919371  0.5425196829688985  1.0000
  C   C7        1.0  0.265998968104386  0.5805870639047166  0.6257003707492907  1.0000
  C   C8        1.0  0.19013359118519602  0.6010949994363364  0.5613279483524282  1.0000
  N   N2        1.0  0.1291507052321572  0.6175762935182758  0.5095726978444295  1.0000
  C   C9        1.0  0.2816555932164767  0.6063022541960623  0.7713578830505865  1.0000
  C   C10       1.0  0.35530430737055463  0.5868780368616662  0.8337002966460593  1.0000
  C   C11       1.0  0.4135775281398  0.5417834584399199  0.7510273132471739  1.0000
  C   C12       1.0  0.4452556199895343  0.35984480730972357  0.41793652790504066  1.0000
  C   C13       1.0  0.5035281963260855  0.31465605283492404  0.33531942185264363  1.0000
  C   C14       1.0  0.5776290384249853  0.3760487082794519  0.3498112157306191  1.0000
  H   H1        1.0  0.5482651338232754  0.6129668670679844  0.6041837032660202  1.0000
  H   H2        1.0  0.3118480294079607  0.5174520473496202  0.4293168040929074  1.0000
  H   H3        1.0  0.23698378506524684  0.6413068564785604  0.8366070946278076  1.0000
  H   H4        1.0  0.3672348944241497  0.6064392023063693  0.9464866252292106  1.0000
  H   H5        1.0  0.4699692495731176  0.5256711430035484  0.8022177501056451  1.0000
  H   H6        1.0  0.38849118107158354  0.3093512534092655  0.4061825757796593  1.0000
  H   H7        1.0  0.49124219593813273  0.2315554955253467  0.2601538178992202  1.0000
  H   H8        1.0  0.6222955034434381  0.3400838950668832  0.2851305330608773  1.0000
  C   C15       1.0  0.9279421502497213  0.18403717744750356  0.4921401406343313  1.0000
  C   C16       1.0  0.9102861299712335  0.2651029358205918  0.3616548746179402  1.0000
  C   C17       1.0  0.8997952309537257  0.19815622142110184  0.23100063453594769  1.0000
  C   C18       1.0  0.9070006080199545  0.0487582819493204  0.22989584460292825  1.0000
  C   C19       1.0  0.9232375844959654  0.9662840987538356  0.3584820998980547  1.0000
  C   C20       1.0  0.9326542566670316  0.031435690780850165  0.4910081352705585  1.0000
  N   N3        1.0  0.8826107437629851  0.28232974276774403  0.09914152410123146  1.0000
  H   H9        1.0  0.01430077739794489  0.27132074145158125  0.8153845875731397  1.0000
  H   H10       1.0  0.9064167220603858  0.3814983961318359  0.3607508934738911  1.0000
  H   H11       1.0  0.8992921356717973  0.9958292193072174  0.12940347547684716  1.0000
  H   H12       1.0  0.9266197069274327  0.8502434789258665  0.3546606109475625  1.0000
  H   H13       1.0  0.877323322254983  0.3941416540113549  0.09861596998673886  1.0000
  H   H14       1.0  0.874974458106927  0.23344664871145349  0.0010259271448131951  1.0000
  C   C21       1.0  0.9303087474249244  0.6032387833255852  0.06833758151269098  1.0000
  C   C22       1.0  0.0007763915150136223  0.6038577315810603  0.14832573585860143  1.0000
  C   C23       1.0  0.07008922698706965  0.6178286568680124  0.07916738426070813  1.0000
  C   C24       1.0  0.07069617745810054  0.6316585389760354  0.9275689608380131  1.0000
  C   C25       1.0  0.000682758497122734  0.6286294347746221  0.8468168074517153  1.0000
  C   C26       1.0  0.9302876663764288  0.6122340741332486  0.91481065497261  1.0000
  N   N4        1.0  0.1413153100146274  0.6473549161043366  0.8531523472177844  1.0000
  C   C27       1.0  0.21708660276012004  0.6512722365301155  0.9270008389855708  1.0000
  H   H15       1.0  0.8087955982211916  0.527940345863165  0.34330282137488294  1.0000
  H   H16       1.0  0.002330998432038765  0.596971816215995  0.2655274281948463  1.0000
  H   H17       1.0  0.12295659995836018  0.6191159343940822  0.1450776338623112  1.0000
  H   H18       1.0  0.00129353154131651  0.635767260107488  0.7297313990510781  1.0000
  H   H19       1.0  0.7508196063934034  0.4912948183899628  0.8032760687909155  1.0000
  H   H20       1.0  0.13887849312385608  0.6567941725406347  0.7400382866342896  1.0000
  H   H21       1.0  0.22258179311849594  0.7440757466828509  0.9967966793433298  1.0000
  H   H22       1.0  0.22587398479502804  0.54859779754091  0.9935401289224357  1.0000
  Zn  Zn1       1.0  0.8462095718784197  0.6035794775866108  0.48396252366264614  1.0000
  Zn  Zn2       1.0  0.014379471776604372  0.61189228753434  0.49918439361809713  1.0000
  C   C28       1.0  0.9302579602966838  0.6047856540092476  0.7548166485644399  1.0000
  C   C29       1.0  0.9303329298882027  0.610688023913784  0.22833057396665282  1.0000
  C   C30       1.0  0.9317597519593387  0.8711980740782065  0.4854784101875699  1.0000
  C   C31       1.0  0.9288310711995279  0.3442738683126043  0.4976688863049745  1.0000
  O   O1        1.0  0.9941606113276804  0.616336430460498  0.2878023125159552  1.0000
  O   O2        1.0  0.9940673356509864  0.6054453849768527  0.7068975436675482  1.0000
  O   O3        1.0  0.9952791910552304  0.8205767568265683  0.4894049306885795  1.0000
  O   O4        1.0  0.9929486985985294  0.4012050649473389  0.505294812222242  1.0000
  O   O5        1.0  0.8676402876683702  0.8142666973383476  0.47785209985644067  1.0000
  O   O6        1.0  0.8664284419020218  0.5991370581855886  0.6953446336718974  1.0000
  O   O7        1.0  0.8665217173933597  0.6100280349777112  0.2762476697769649  1.0000
  O   O8        1.0  0.8653098046009914  0.39489666029273174  0.49374027755387373  1.0000
