data_image0
_chemical_formula_structural       NC10NC5H10C7OC3FC3H9C7OC6OCH11Zn2C4O8
_chemical_formula_sum              "N2 C46 H30 O11 F1 Zn2"
_cell_length_a       19.4436361288709
_cell_length_b       10.299378350833072
_cell_length_c       10.299362532796529
_cell_angle_alpha    85.57000454149363
_cell_angle_beta     89.71996928525026
_cell_angle_gamma    89.43853249218071

_space_group_name_H-M_alt    "P 1"
_space_group_IT_number       1

loop_
  _space_group_symop_operation_xyz
  'x, y, z'

loop_
  _atom_site_type_symbol
  _atom_site_label
  _atom_site_symmetry_multiplicity
  _atom_site_fract_x
  _atom_site_fract_y
  _atom_site_fract_z
  _atom_site_occupancy
  N   N1        1.0  0.6477085891866238  0.4089232722921084  0.5619224120048121  1.0000
  C   C1        1.0  0.5888773865027561  0.4188273244156755  0.5763050722252577  1.0000
  C   C2        1.0  0.5155540156056386  0.4311790118390931  0.5942957496744234  1.0000
  C   C3        1.0  0.47334531973484467  0.3991690616535764  0.49962647542619776  1.0000
  C   C4        1.0  0.39744365218564087  0.40960837596802446  0.5049532128763297  1.0000
  C   C5        1.0  0.3577210085460157  0.3848731584560823  0.6120282868065519  1.0000
  C   C6        1.0  0.281598620383762  0.38878827377730546  0.5990684717843664  1.0000
  C   C7        1.0  0.24106498742870544  0.4464633771627664  0.6928314621982943  1.0000
  C   C8        1.0  0.1694001762423626  0.45009992246311376  0.6822871499013453  1.0000
  C   C9        1.0  0.1372742255282415  0.3956653757537253  0.5782664224596363  1.0000
  C   C10       1.0  0.06348015029016352  0.399363146785577  0.5675668211359862  1.0000
  N   N2        1.0  0.004154718971611101  0.40233596067838967  0.5589650510363158  1.0000
  C   C11       1.0  0.1770829120588602  0.3372832063632663  0.48488675436805945  1.0000
  C   C12       1.0  0.2487640924227316  0.33359240350160957  0.4951792971896176  1.0000
  C   C13       1.0  0.38587221352561907  0.344427556164449  0.7431274305109081  1.0000
  C   C14       1.0  0.44455313751018294  0.3875568304378605  0.7903642866666674  1.0000
  C   C15       1.0  0.4887640222237505  0.4854089306469412  0.7159848650806082  1.0000
  H   H1        1.0  0.49542110400189227  0.37003961403923813  0.4093237265050539  1.0000
  H   H2        1.0  0.37273100809906645  0.43209205621589364  0.4117924448057544  1.0000
  H   H3        1.0  0.26495943063949134  0.4897658953060814  0.7736739772465443  1.0000
  H   H4        1.0  0.1390781636584733  0.4954252362169147  0.755201980011571  1.0000
  H   H5        1.0  0.15271668864689603  0.29417639437064197  0.4043786961612206  1.0000
  H   H6        1.0  0.278420209815279  0.28602371326757164  0.42296107940461747  1.0000
  H   H7        1.0  0.3549075077144348  0.2802164352485313  0.8073821375164641  1.0000
  H   H8        1.0  0.4597160777377803  0.35350079841434523  0.8883025761439485  1.0000
  H   H9        1.0  0.45866687282760904  0.5761230382550444  0.6907216489768804  1.0000
  H   H10       1.0  0.5320663146518809  0.5110037190591987  0.7790663428000674  1.0000
  C   C16       1.0  0.8258624587654593  0.024245949496310093  0.5605083448844539  1.0000
  C   C17       1.0  0.7540997189073537  0.025574968649748186  0.5450790391134602  1.0000
  C   C18       1.0  0.7178174576905476  0.908959533998971  0.5387749893467565  1.0000
  C   C19       1.0  0.7542678961784256  0.7903278598125546  0.5450845190141542  1.0000
  C   C20       1.0  0.826007412918417  0.7870032084795752  0.5603903492061258  1.0000
  C   C21       1.0  0.8613684307128606  0.9044904274811437  0.5683558055353919  1.0000
  C   C22       1.0  0.642125752261979  0.910323279860394  0.5211088124761445  1.0000
  O   O1        1.0  0.6155503538680157  0.8261038488383365  0.4546686651879823  1.0000
  C   C23       1.0  0.5965822532287475  0.007129831808843748  0.5788252725516139  1.0000
  C   C24       1.0  0.5353061894704318  0.04824111252266339  0.5155531620793368  1.0000
  C   C25       1.0  0.4916233833796483  0.1383216004233361  0.5699761836596109  1.0000
  F   F1        1.0  0.4329298299673546  0.17807754983377747  0.507744001334626  1.0000
  C   C26       1.0  0.5083802684378933  0.18734451870309712  0.6884415799672816  1.0000
  C   C27       1.0  0.5686691009177766  0.14599950139231765  0.7529364374310115  1.0000
  C   C28       1.0  0.6124941794985324  0.05598811441289265  0.698916945394964  1.0000
  H   H11       1.0  0.9614069910697197  0.2292098196544761  0.5876281959444101  1.0000
  H   H12       1.0  0.7264246877079036  0.11759518936939053  0.5364955633161372  1.0000
  H   H13       1.0  0.726423349119691  0.7003720252432366  0.5392632596430078  1.0000
  H   H14       1.0  0.91669217005851  0.9026618489260368  0.5802499115818391  1.0000
  H   H15       1.0  0.8536310360999716  0.4583526758600652  0.5651735550125276  1.0000
  H   H16       1.0  0.5215898042198567  0.0114649081900029  0.42350909702947503  1.0000
  H   H17       1.0  0.4745461237592187  0.2569704568854223  0.7306010384277872  1.0000
  H   H18       1.0  0.5813222109736692  0.18328258325283397  0.845202893220397  1.0000
  H   H19       1.0  0.6583384390209498  0.02359503772692406  0.751688463084814  1.0000
  C   C29       1.0  0.8258812431038858  0.4055050193838827  0.17908292860377584  1.0000
  C   C30       1.0  0.7605821556525614  0.3480288569661869  0.18292133544872602  1.0000
  C   C31       1.0  0.7273508868025441  0.32036835288053744  0.06768806214928524  1.0000
  C   C32       1.0  0.7607758743680118  0.3481888411953322  0.9476654033246792  1.0000
  C   C33       1.0  0.8259886519940383  0.4057440982166041  0.9418157756381182  1.0000
  C   C34       1.0  0.8581086184438049  0.43432677364342576  0.058066977181577606  1.0000
  C   C35       1.0  0.6587461963314414  0.2583360443694045  0.07406975670629201  1.0000
  O   O2        1.0  0.644679121603557  0.17938630575303804  0.17009515824048324  1.0000
  C   C36       1.0  0.6061026151046123  0.2858611878462066  0.9715876470877339  1.0000
  C   C37       1.0  0.6008369860695539  0.409335896312403  0.9037590438704659  1.0000
  C   C38       1.0  0.5504989704576522  0.43444672316412114  0.8084773916363693  1.0000
  C   C39       1.0  0.5042148044722194  0.33763394595467594  0.7798275415798547  1.0000
  C   C40       1.0  0.5087571582670908  0.21436616607945558  0.8485803319549765  1.0000
  C   C41       1.0  0.5590889861663156  0.18912824947091011  0.9439344600138946  1.0000
  O   O3        1.0  0.45470858806331726  0.3677095770638977  0.683249263923154  1.0000
  C   C42       1.0  0.4045440286556604  0.2788718704792295  0.6443065890942585  1.0000
  H   H20       1.0  0.9492178938567923  0.5134689035633095  0.3791470745679476  1.0000
  H   H21       1.0  0.7351122860581655  0.3257577229872973  0.2756702133878779  1.0000
  H   H22       1.0  0.7361843718745605  0.3235622486329189  0.8588191983626493  1.0000
  H   H23       1.0  0.9084156992714232  0.4787222787395784  0.054287198123140534  1.0000
  H   H24       1.0  0.851120945508418  0.4273385289716905  0.6121346866706947  1.0000
  H   H25       1.0  0.6351337680747019  0.4869558655221766  0.9252867187118573  1.0000
  H   H26       1.0  0.47367046071383256  0.13744661023784646  0.8291558814985484  1.0000
  H   H27       1.0  0.5616796103764579  0.09343536721527546  0.9953780554530685  1.0000
  H   H28       1.0  0.3722471363958002  0.3281657174903363  0.5664836911873503  1.0000
  H   H29       1.0  0.3709527458794817  0.24727838224134116  0.7281398902875641  1.0000
  H   H30       1.0  0.43016668062580377  0.1930750516855551  0.6054512439271189  1.0000
  Zn  Zn1       1.0  0.7505712442472989  0.4070188473057493  0.5610764941388826  1.0000
  Zn  Zn2       1.0  0.9012920549139385  0.40422978092117506  0.5598216516531886  1.0000
  C   C43       1.0  0.8259658223408916  0.4005250687344326  0.7976437352871296  1.0000
  C   C44       1.0  0.825899123016303  0.4107251677586441  0.3232545240142053  1.0000
  C   C45       1.0  0.825975755230159  0.6428242717131569  0.5552375396549423  1.0000
  C   C46       1.0  0.8258891384097491  0.16842440539064388  0.5656607895541534  1.0000
  O   O4        1.0  0.8831028847612734  0.4114129951225536  0.3711636231506268  1.0000
  O   O5        1.0  0.883155668210885  0.39771942464179855  0.7487818660471335  1.0000
  O   O6        1.0  0.8831629182815367  0.5933791100302936  0.5530371542207577  1.0000
  O   O7        1.0  0.8830955832478732  0.21575331994583458  0.5669082380297283  1.0000
  O   O8        1.0  0.7687676644797476  0.5954953092342732  0.5539899081837281  1.0000
  O   O9        1.0  0.7687604146927661  0.3998371841882369  0.7497345505237278  1.0000
  O   O10       1.0  0.7687076310604415  0.4135307089209902  0.3721147462433889  1.0000
  O   O11       1.0  0.7687003295561735  0.21787102448567813  0.5678594584911498  1.0000
