data_image0
_chemical_formula_structural       NC8NH4C6ClH5C6BrH3Zn2C4O8
_chemical_formula_sum              "N2 C24 H12 Cl1 Br1 Zn2 O8"
_cell_length_a       11.048855714531884
_cell_length_b       9.276545438789551
_cell_length_c       9.275428193871798
_cell_angle_alpha    86.19890630967393
_cell_angle_beta     89.94092889072596
_cell_angle_gamma    89.40961225544244

_space_group_name_H-M_alt    "P 1"
_space_group_IT_number       1

loop_
  _space_group_symop_operation_xyz
  'x, y, z'

loop_
  _atom_site_type_symbol
  _atom_site_label
  _atom_site_symmetry_multiplicity
  _atom_site_fract_x
  _atom_site_fract_y
  _atom_site_fract_z
  _atom_site_occupancy
  N   N1        1.0  0.12754909217609178  0.561217098821789  0.4114534608599023  1.0000
  C   C1        1.0  0.07362040015974423  0.5023738728245919  0.32645638226464135  1.0000
  C   C2        1.0  0.006334025474904025  0.4289542998707048  0.2204040191459642  1.0000
  C   C3        1.0  0.8786172716394904  0.4289541103925134  0.22040412072728066  1.0000
  C   C4        1.0  0.8165655176297962  0.35637558895492916  0.11556692001798874  1.0000
  C   C5        1.0  0.880704108412387  0.2843711632308931  0.011558901204414166  1.0000
  C   C6        1.0  0.007110321762952237  0.2843710533571399  0.011558923797120535  1.0000
  C   C7        1.0  0.06982305562135395  0.3563756870876888  0.11556689236774043  1.0000
  C   C8        1.0  0.8098769784458529  0.5023739476114648  0.326456369180006  1.0000
  N   N2        1.0  0.7547829779184724  0.5612171417942793  0.41145348966796824  1.0000
  H   H1        1.0  0.7185122763597375  0.35546673050907973  0.11425346454970085  1.0000
  H   H2        1.0  0.8323592401594748  0.2285228558197383  0.9308884759844234  1.0000
  H   H3        1.0  0.05656128044050002  0.22852296522562754  0.930888475440169  1.0000
  H   H4        1.0  0.1678942882830976  0.35546668438318374  0.11425373956014483  1.0000
  C   C9        1.0  0.44482482543095214  0.13777944182521076  0.41121593154035224  1.0000
  C   C10       1.0  0.445398652708041  0.22002084305653824  0.27821328502270837  1.0000
  C   C11       1.0  0.43495880349868443  0.15356207449509052  0.14810546430489757  1.0000
  C   C12       1.0  0.423696974527428  0.0039804007678840864  0.14899861320489727  1.0000
  C   C13       1.0  0.4249925478906367  0.9201747024422333  0.2795599945500149  1.0000
  C   C14       1.0  0.43751897340902896  0.9846438382903856  0.4117034812527478  1.0000
  Cl  Cl1       1.0  0.4341641676174974  0.25843938846768055  0.9835961716755386  1.0000
  H   H5        1.0  0.5065274277626344  0.40314031276510803  0.6377670883944337  1.0000
  H   H6        1.0  0.4510722621717665  0.33671116226558  0.27536032729509285  1.0000
  H   H7        1.0  0.41509077850723053  0.95219163326379  0.048339434137948174  1.0000
  H   H8        1.0  0.41907782939825644  0.803886144839789  0.2769102561480854  1.0000
  H   H9        1.0  0.39674413309501533  0.6883786049383446  0.6447143943142707  1.0000
  C   C15       1.0  0.44157615878794765  0.5567253538559559  0.9883034255646574  1.0000
  C   C16       1.0  0.553042941114982  0.5594098260772606  0.061350296868695864  1.0000
  C   C17       1.0  0.6615042736949789  0.5752531100935014  0.9848226829869073  1.0000
  C   C18       1.0  0.6602065783247126  0.5888321018503357  0.8342732572584657  1.0000
  C   C19       1.0  0.5508728281506294  0.5840673613315397  0.7597180417249467  1.0000
  C   C20       1.0  0.4407676431017157  0.565697898156093  0.8346159800907462  1.0000
  Br  Br1       1.0  0.8115194347968702  0.5807656608755768  0.08638979027996108  1.0000
  H   H10       1.0  0.1497941009696875  0.6281754895692839  0.08690990722435799  1.0000
  H   H11       1.0  0.7441271386398367  0.6017179006596929  0.7747008083207055  1.0000
  H   H12       1.0  0.2439672607918786  0.6077040716013544  0.5509040550313022  1.0000
  Zn  Zn1       1.0  0.3085552823952993  0.5612133310536053  0.4114617853535702  1.0000
  Zn  Zn2       1.0  0.5737769055900446  0.5612092077751575  0.41145695138806904  1.0000
  C   C21       1.0  0.4409672986594124  0.5582574977434822  0.6746414733439872  1.0000
  C   C22       1.0  0.44136776970697145  0.5641668619154268  0.14827740582547963  1.0000
  C   C23       1.0  0.43889916764525716  0.8245075289856221  0.40586908763385154  1.0000
  C   C24       1.0  0.44343582509167434  0.2979150990696309  0.4170498673651637  1.0000
  O   O1        1.0  0.5419481104860285  0.5666564445071651  0.20196429689510403  1.0000
  O   O2        1.0  0.541684042855235  0.5557636934853469  0.6209504979710603  1.0000
  O   O3        1.0  0.5400126426615739  0.7707639768110032  0.40391489578878415  1.0000
  O   O4        1.0  0.5436194201917506  0.35165617035246716  0.4189997910407621  1.0000
  O   O5        1.0  0.33871267728646326  0.7707663684791919  0.40391894569494835  1.0000
  O   O6        1.0  0.34038406260244686  0.5557678167600877  0.6209544720417471  1.0000
  O   O7        1.0  0.34064813240240355  0.566660499166084  0.2019665384503604  1.0000
  O   O8        1.0  0.34231944208893506  0.3516602158433241  0.41900214062670815  1.0000
