data_image0
_chemical_formula_structural       NC9NC4H8C6NCOCH9C6SCNH5Zn2C4O8
_chemical_formula_sum              "N4 C32 H22 O9 S1 Zn2"
_cell_length_a       16.32274767691083
_cell_length_b       10.300268703208216
_cell_length_c       10.302218930750287
_cell_angle_alpha    85.55128926110262
_cell_angle_beta     89.48597253194706
_cell_angle_gamma    89.50441699892957

_space_group_name_H-M_alt    "P 1"
_space_group_IT_number       1

loop_
  _space_group_symop_operation_xyz
  'x, y, z'

loop_
  _atom_site_type_symbol
  _atom_site_label
  _atom_site_symmetry_multiplicity
  _atom_site_fract_x
  _atom_site_fract_y
  _atom_site_fract_z
  _atom_site_occupancy
  N   N1        1.0  0.7708828323130672  0.41215173294986723  0.5572282330127905  1.0000
  C   C1        1.0  0.7185555047156627  0.36472282996343686  0.5029488742736299  1.0000
  C   C2        1.0  0.6535120755874924  0.30581576320234727  0.43553347668539266  1.0000
  C   C3        1.0  0.6650787892022274  0.2252414087129144  0.34331691841548206  1.0000
  C   C4        1.0  0.585719989693687  0.18592069583974014  0.2983183034765431  1.0000
  C   C5        1.0  0.5267769989521506  0.24346565151668154  0.36418023293534474  1.0000
  C   C6        1.0  0.43684214719973696  0.22825703643982287  0.3467770444940297  1.0000
  C   C7        1.0  0.3812346112457056  0.29532939979685024  0.42353598523534425  1.0000
  C   C8        1.0  0.2965283475252312  0.28233138650823575  0.40866211753416004  1.0000
  C   C9        1.0  0.24050852894113786  0.35146567778460436  0.48778000190213716  1.0000
  N   N2        1.0  0.1954875381280322  0.40703827171445267  0.551377380788032  1.0000
  C   C10       1.0  0.26637660035433036  0.202152533148084  0.316905793352257  1.0000
  C   C11       1.0  0.3206622026051414  0.13516901198642728  0.24024886663805334  1.0000
  C   C12       1.0  0.4052097308807987  0.1478169188984224  0.2547219445243045  1.0000
  C   C13       1.0  0.5645164933155566  0.3273725507161238  0.46020823756936324  1.0000
  H   H1        1.0  0.7239917581991812  0.19390984212128795  0.30745599019988545  1.0000
  H   H2        1.0  0.5774361823334283  0.12006737636525733  0.22294964065108336  1.0000
  H   H3        1.0  0.4033361204923203  0.3579225115754949  0.4951673714241039  1.0000
  H   H4        1.0  0.20098671275508403  0.1914448628759875  0.3046530360562376  1.0000
  H   H5        1.0  0.29716454772638107  0.07314319394500557  0.1692669470289243  1.0000
  H   H6        1.0  0.445000341738532  0.09423441362501683  0.19340173179826836  1.0000
  H   H7        1.0  0.5477688050891928  0.2926151146329554  0.5616848139410828  1.0000
  H   H8        1.0  0.5477095242400296  0.4314340184741121  0.4380494986324656  1.0000
  C   C14       1.0  0.9832723489647645  0.028246286670650544  0.5543092808505172  1.0000
  C   C15       1.0  0.9970577956320005  0.037488040796067164  0.41915539290300247  1.0000
  C   C16       1.0  0.005121982014423047  0.9248310788683456  0.35131320677557376  1.0000
  C   C17       1.0  0.9968724560575596  0.8023307487740271  0.41919033710419856  1.0000
  C   C18       1.0  0.9831058628209309  0.7909336126866666  0.5543074447576599  1.0000
  C   C19       1.0  0.9766869368616373  0.9044896288900086  0.6212282117434604  1.0000
  N   N3        1.0  0.017960117090765056  0.9327181702792657  0.212630741378526  1.0000
  C   C20       1.0  0.06604445163108652  0.031257970144143776  0.14220404125056674  1.0000
  O   O1        1.0  0.11231831780450818  0.10368648813979318  0.20152173888077085  1.0000
  C   C21       1.0  0.0660491948255244  0.042167262939792435  0.9967604320225076  1.0000
  H   H9        1.0  0.9768397101438855  0.35219566479255465  0.6054063667026677  1.0000
  H   H10       1.0  0.9999005510693522  0.13231153411160523  0.3662972723501656  1.0000
  H   H11       1.0  0.0019477373230105716  0.7159159329615905  0.36597387586621855  1.0000
  H   H12       1.0  0.9660769639724895  0.896552155662016  0.7254737034536016  1.0000
  H   H13       1.0  0.9766779027114612  0.45924569276519295  0.6052164688218096  1.0000
  H   H14       1.0  0.9953823643929516  0.8575744252130845  0.1607742448855891  1.0000
  H   H15       1.0  0.0033358351785242033  0.025893373423732994  0.9608148228199237  1.0000
  H   H16       1.0  0.08635384601463825  0.14058875429321382  0.9586221236170926  1.0000
  H   H17       1.0  0.10833076723536639  0.9679382987778077  0.9604373360464842  1.0000
  C   C22       1.0  0.9831127096274109  0.40965168333633933  0.17303425449440812  1.0000
  C   C23       1.0  0.06029109355807072  0.34821437002335487  0.17574979137360813  1.0000
  C   C24       1.0  0.09865863615292558  0.31723537591081974  0.06012429776403616  1.0000
  C   C25       1.0  0.060490899640244906  0.3480511298741184  0.94059279217113  1.0000
  C   C26       1.0  0.9832655015684155  0.40952818123593016  0.9355824805906212  1.0000
  C   C27       1.0  0.9449865639935267  0.4399435739208069  0.05236622953355741  1.0000
  S   S1        1.0  0.19731794899881017  0.23931343681748254  0.06502726518143498  1.0000
  C   C28       1.0  0.1545005338252592  0.08203908919899239  0.07788092859516604  1.0000
  N   N4        1.0  0.12640531839421887  0.9789387770740821  0.0863079255029151  1.0000
  H   H18       1.0  0.9537518692522318  0.4330938029961358  0.4993307444170012  1.0000
  H   H19       1.0  0.09087297765945634  0.3239488177577532  0.2674003588342069  1.0000
  H   H20       1.0  0.09120973635077045  0.32367362554968765  0.851974252557639  1.0000
  H   H21       1.0  0.8854616443666665  0.4873086365833928  0.049425192708123955  1.0000
  H   H22       1.0  0.8377428729355503  0.5255306879093424  0.7189106449974396  1.0000
  Zn  Zn1       1.0  0.8934145869152694  0.4106726118875861  0.5555473015789236  1.0000
  Zn  Zn2       1.0  0.07295579415573017  0.4085067346495854  0.5530689487827061  1.0000
  C   C29       1.0  0.9832359326318454  0.4043781538653626  0.7914445783530759  1.0000
  C   C30       1.0  0.9831364086914475  0.41480280753234  0.31717177237586824  1.0000
  C   C31       1.0  0.9831320896163551  0.6467703433186669  0.5491339756750422  1.0000
  C   C32       1.0  0.9832401907964943  0.1724090585872482  0.5594824451247382  1.0000
  O   O2        1.0  0.051279316011319825  0.415703967304113  0.3646051181327903  1.0000
  O   O3        1.0  0.051360647445671814  0.4018321637750384  0.7421298464182409  1.0000
  O   O4        1.0  0.05127587467617411  0.5975669330877078  0.5464623330436564  1.0000
  O   O5        1.0  0.05136402749402946  0.21996920803600448  0.5602725350025839  1.0000
  O   O6        1.0  0.9150062923083656  0.5992101392416893  0.5483437161979563  1.0000
  O   O7        1.0  0.9150910647197029  0.4034769301613301  0.7440111603406163  1.0000
  O   O8        1.0  0.9150097330369094  0.41734868868898417  0.36648487104196437  1.0000
  O   O9        1.0  0.9150944445378028  0.22161392011683745  0.5621523852554604  1.0000
