data_image0
_chemical_formula_structural       NC9NC5H8C10IC2H9C10OC3H12Zn2C4O8
_chemical_formula_sum              "N2 C43 H29 I1 O9 Zn2"
_cell_length_a       17.807436237873137
_cell_length_b       10.299770258652044
_cell_length_c       10.299151058433395
_cell_angle_alpha    85.5755714012209
_cell_angle_beta     89.3683831222604
_cell_angle_gamma    88.4084010054176

_space_group_name_H-M_alt    "P 1"
_space_group_IT_number       1

loop_
  _space_group_symop_operation_xyz
  'x, y, z'

loop_
  _atom_site_type_symbol
  _atom_site_label
  _atom_site_symmetry_multiplicity
  _atom_site_fract_x
  _atom_site_fract_y
  _atom_site_fract_z
  _atom_site_occupancy
  N   N1        1.0  0.708021219301222  0.38737772013679767  0.5571202684815697  1.0000
  C   C1        1.0  0.6474298579641621  0.3521860255292885  0.5460953365596569  1.0000
  C   C2        1.0  0.5720608640195958  0.30841143294555295  0.5323815183242926  1.0000
  C   C3        1.0  0.5539818682696774  0.23697234173566087  0.42737444498337934  1.0000
  C   C4        1.0  0.48080246383742437  0.19435907149754167  0.41397657848284375  1.0000
  C   C5        1.0  0.4246532745739487  0.22280736250846878  0.5055533250465785  1.0000
  C   C6        1.0  0.34688243323993057  0.17763536535169716  0.49139694150677893  1.0000
  C   C7        1.0  0.2847149024677914  0.25939618454768465  0.5173382190275322  1.0000
  C   C8        1.0  0.2113931521795493  0.21657988360387215  0.5039540298249034  1.0000
  C   C9        1.0  0.1481759418384938  0.3010320891536784  0.5302592752358968  1.0000
  N   N2        1.0  0.09736229211128705  0.3689258199400867  0.5514079659194466  1.0000
  C   C10       1.0  0.1996553461656222  0.09174478253165354  0.46460320737027366  1.0000
  C   C11       1.0  0.2609655065971664  0.00997010928190001  0.43865353964578113  1.0000
  C   C12       1.0  0.334167801226901  0.052391827979194165  0.4518351770108029  1.0000
  C   C13       1.0  0.44342371290283317  0.29474086335444527  0.6107796439719635  1.0000
  C   C14       1.0  0.5166559914078019  0.3371637052713887  0.624021851692812  1.0000
  H   H1        1.0  0.5963901461399242  0.21447017727062637  0.3556593388619689  1.0000
  H   H2        1.0  0.4679002229553704  0.14065776729698068  0.33105283535562985  1.0000
  H   H3        1.0  0.2932233832124189  0.3568661027353821  0.5462180102634346  1.0000
  H   H4        1.0  0.14318659934176606  0.05770685258626341  0.45400734988748614  1.0000
  H   H5        1.0  0.2517591266371216  0.9133199828222583  0.4085733223084857  1.0000
  H   H6        1.0  0.3808010989874051  0.9866435054242195  0.4327849314861067  1.0000
  H   H7        1.0  0.40173189902338696  0.3167043033994413  0.6837892715213987  1.0000
  H   H8        1.0  0.5300870627330376  0.39208531778301553  0.7059039656019701  1.0000
  C   C15       1.0  0.9026245464553924  0.9967897141447282  0.55426202771797  1.0000
  C   C16       1.0  0.9082332555184613  0.0060525340844654885  0.4177809647870851  1.0000
  C   C17       1.0  0.9111472236202885  0.8936033846616719  0.3486330065681397  1.0000
  C   C18       1.0  0.908376377505211  0.7707579605978412  0.41779648152059434  1.0000
  C   C19       1.0  0.9027661261506665  0.7595035008050648  0.5542773990669563  1.0000
  C   C20       1.0  0.8999220396473724  0.8730746650642818  0.6217459509522316  1.0000
  C   C21       1.0  0.9170812138527308  0.9044559895631527  0.20424924284188117  1.0000
  C   C22       1.0  0.9651695855904285  0.8193256897950547  0.1395956101879714  1.0000
  C   C23       1.0  0.9706790771734326  0.8297557648340992  0.003691504994190352  1.0000
  C   C24       1.0  0.9283190811427527  0.9250086580419763  0.930793420888202  1.0000
  I   I1        1.0  0.9367432262616551  0.9404156391755971  0.7257973072640467  1.0000
  C   C25       1.0  0.8803689771545006  0.010037757597510364  0.9939262150693361  1.0000
  C   C26       1.0  0.8747089489595471  4.0159741100163984e-05  0.1298139987918907  1.0000
  H   H9        1.0  0.9004532478673591  0.3207154930071858  0.6062639982658218  1.0000
  H   H10       1.0  0.9113851556746178  0.10090009999465635  0.36504249797063637  1.0000
  H   H11       1.0  0.9095684300970902  0.6838546063541141  0.3648461590439335  1.0000
  H   H12       1.0  0.8955944950014403  0.8651606246040747  0.7270347673336797  1.0000
  H   H13       1.0  0.9006617111423305  0.4277595359033677  0.6062864545766957  1.0000
  H   H14       1.0  0.9992114723853609  0.7458588858752548  0.194176046517986  1.0000
  H   H15       1.0  0.008029429894131244  0.7639666867060729  0.955145473500528  1.0000
  H   H16       1.0  0.847321448928306  0.08369626449419389  0.9377679917508787  1.0000
  H   H17       1.0  0.8365020081982711  0.0658898249229809  0.17658217987680902  1.0000
  C   C27       1.0  0.9027883069880652  0.378051707795364  0.17289128821699484  1.0000
  C   C28       1.0  0.826035751148577  0.3500626803551721  0.17573284885653903  1.0000
  C   C29       1.0  0.7870239312586621  0.3359715164079445  0.060024863940576476  1.0000
  C   C30       1.0  0.825801044596376  0.35024241267411615  0.9404399244370545  1.0000
  C   C31       1.0  0.9026023989873203  0.3782415043754437  0.9356480941978917  1.0000
  C   C32       1.0  0.9406230256767704  0.39197662205873623  0.05234795243896917  1.0000
  C   C33       1.0  0.7058256366971225  0.3063652726580028  0.06407532130485594  1.0000
  C   C34       1.0  0.6772945466465319  0.2151827307391465  0.1593774698742054  1.0000
  C   C35       1.0  0.6008895097201004  0.18740378227736176  0.16301788911574455  1.0000
  C   C36       1.0  0.5515420188806905  0.2498278764333528  0.07208670767694914  1.0000
  O   O1        1.0  0.4753778180226108  0.21852459216069087  0.0799557024456714  1.0000
  C   C37       1.0  0.4190942353336166  0.2743616996252862  0.9940308760141753  1.0000
  C   C38       1.0  0.5797720947732649  0.341222801073926  0.9765143652315332  1.0000
  C   C39       1.0  0.6561927605460678  0.369057644432133  0.9726683561631025  1.0000
  H   H18       1.0  0.9323202957774033  0.38874625918339323  0.499279307221299  1.0000
  H   H19       1.0  0.7961716430354414  0.34091491433431353  0.26802563247895583  1.0000
  H   H20       1.0  0.796248994559288  0.33772933642351544  0.8510770831046597  1.0000
  H   H21       1.0  0.9998247228529932  0.413561476324361  0.04944083524717202  1.0000
  H   H22       1.0  0.04767070433828846  0.4302759424979228  0.7193719514890712  1.0000
  H   H23       1.0  0.7142333914359217  0.16406142218263134  0.23009378500002706  1.0000
  H   H24       1.0  0.5799039961025345  0.11662642291862535  0.23682473165335824  1.0000
  H   H25       1.0  0.3641550361906813  0.2320798820757537  0.022493052119841643  1.0000
  H   H26       1.0  0.4324802616461276  0.25204926231941416  0.8924259828379832  1.0000
  H   H27       1.0  0.414907666309355  0.38141802580268025  0.0007318554165165489  1.0000
  H   H28       1.0  0.543146418973598  0.39151542406027495  0.9049780214175359  1.0000
  H   H29       1.0  0.6763187286435303  0.44096703580972785  0.899144624435792  1.0000
  Zn  Zn1       1.0  0.8203766390170146  0.3820494369699158  0.5554793322643539  1.0000
  Zn  Zn2       1.0  0.9850068496305142  0.37424351978484405  0.5530595788015138  1.0000
  C   C40       1.0  0.9026348824713265  0.37303214783158795  0.7914706619012124  1.0000
  C   C41       1.0  0.902750404206096  0.38326236230395333  0.3170683502436198  1.0000
  C   C42       1.0  0.9027367666597234  0.6153332757485361  0.5490992301104285  1.0000
  C   C43       1.0  0.9026484635343903  0.14095967679398136  0.5594398520690553  1.0000
  O   O2        1.0  0.9652139895847311  0.3820431350289322  0.36453720539098167  1.0000
  O   O3        1.0  0.9651218175738271  0.36832588478225375  0.7421648959897795  1.0000
  O   O4        1.0  0.9652032478047761  0.5639871501605445  0.5464482624068856  1.0000
  O   O5        1.0  0.9651325032021046  0.1863818815800893  0.5602537424226671  1.0000
  O   O6        1.0  0.840250929265215  0.5699110778398586  0.5482851694621123  1.0000
  O   O7        1.0  0.8401694993373656  0.37425137271978  0.7440017338292662  1.0000
  O   O8        1.0  0.8402616717704562  0.38796857732036577  0.3663724817892495  1.0000
  O   O9        1.0  0.840180185359298  0.19230731460726386  0.5620891161910555  1.0000
