data_image0
_chemical_formula_structural       NC5N2C2NH4C7NH5C6SCH7Zn2C4O8
_chemical_formula_sum              "N5 C25 H16 S1 Zn2 O8"
_cell_length_a       13.87973921873968
_cell_length_b       9.275154477615127
_cell_length_c       9.275274088470228
_cell_angle_alpha    86.32665131531041
_cell_angle_beta     89.72578350354677
_cell_angle_gamma    89.4337086285363

_space_group_name_H-M_alt    "P 1"
_space_group_IT_number       1

loop_
  _space_group_symop_operation_xyz
  'x, y, z'

loop_
  _atom_site_type_symbol
  _atom_site_label
  _atom_site_symmetry_multiplicity
  _atom_site_fract_x
  _atom_site_fract_y
  _atom_site_fract_z
  _atom_site_occupancy
  N   N1        1.0  0.9019757919229651  0.5628558054751924  0.41657103216547053  1.0000
  C   C1        1.0  0.8288889712628202  0.5868489879037453  0.36004228120306236  1.0000
  C   C2        1.0  0.7381178171570644  0.6166508607641468  0.2898274628254096  1.0000
  C   C3        1.0  0.6516425541617863  0.5866556219610546  0.36288797439443266  1.0000
  C   C4        1.0  0.5652384163016969  0.616650796527991  0.2898275024634669  1.0000
  C   C5        1.0  0.47441185081996506  0.5868488422538192  0.36004217742549494  1.0000
  N   N2        1.0  0.40128036097450914  0.5628557807528138  0.41657102107690885  1.0000
  N   N3        1.0  0.5669410995744913  0.6739626604738007  0.1513341705669602  1.0000
  C   C6        1.0  0.6517653840928891  0.7039220827824495  0.08231576339335955  1.0000
  C   C7        1.0  0.6518663802233513  0.762966753829911  0.9288400469204112  1.0000
  N   N4        1.0  0.7365439985096578  0.6739626139219885  0.15133418113059505  1.0000
  H   H1        1.0  0.6515920095820186  0.5407957144568578  0.47340767363350217  1.0000
  H   H2        1.0  0.716492275913465  0.8306118106264174  0.9067179945009091  1.0000
  H   H3        1.0  0.6526977608706618  0.6723574784415027  0.8562787931683458  1.0000
  H   H4        1.0  0.5864874717406032  0.830609740064793  0.906717220473602  1.0000
  C   C8        1.0  0.154426109819638  0.13945065523704603  0.4149033338090895  1.0000
  C   C9        1.0  0.1283948324160724  0.22142344615877074  0.28783548494632805  1.0000
  C   C10       1.0  0.09450501024357848  0.15424262732852667  0.1674986093801778  1.0000
  C   C11       1.0  0.08608661525393302  0.004172548315205529  0.17281235503251935  1.0000
  C   C12       1.0  0.11302028447351598  0.9209645857303469  0.29698379348824844  1.0000
  C   C13       1.0  0.14883929122346462  0.9862499561143717  0.4182511961318256  1.0000
  C   C14       1.0  0.0671969438412332  0.23978269165700936  0.03889926157598823  1.0000
  N   N5        1.0  0.0452488421378141  0.30854131005029917  0.9355383263681389  1.0000
  H   H5        1.0  0.17195396759362036  0.21948002101739217  0.7686582738266934  1.0000
  H   H6        1.0  0.132343418258988  0.338342251451363  0.283559353168755  1.0000
  H   H7        1.0  0.05952679372563052  0.9511679711897085  0.08032590839817  1.0000
  H   H8        1.0  0.10796155302939356  0.8044957860484517  0.2968569626025339  1.0000
  H   H9        1.0  0.1647335374533483  0.6897298724434221  0.6552770684319862  1.0000
  C   C15       1.0  0.15301215007250835  0.5588326068667513  0.9933644452810846  1.0000
  C   C16       1.0  0.2347237709367087  0.6095839655964603  0.06291343497395552  1.0000
  C   C17       1.0  0.31100846525028425  0.6718223885836394  0.9830954296695293  1.0000
  C   C18       1.0  0.3068601537564357  0.6834477333272142  0.8325812644618406  1.0000
  C   C19       1.0  0.22721452723425495  0.6316049724065135  0.7615250478941777  1.0000
  C   C20       1.0  0.1502532499733371  0.5668680076006443  0.839790037150999  1.0000
  S   S1        1.0  0.41405236456815864  0.7371945419980281  0.07404223156360401  1.0000
  C   C21       1.0  0.36334044430038515  0.9176653310214411  0.08648788741519664  1.0000
  H   H10       1.0  0.9200984043091586  0.49950669323238506  0.10183461015093354  1.0000
  H   H11       1.0  0.3657425667781662  0.7317572123438847  0.770274383358931  1.0000
  H   H12       1.0  0.22688214450510524  0.6390751204135634  0.6444951176595008  1.0000
  H   H13       1.0  0.994629218708032  0.5210430892987774  0.562694066559907  1.0000
  H   H14       1.0  0.3492356802075023  0.9680524077451228  0.9767250013028764  1.0000
  H   H15       1.0  0.2952629530838313  0.9122491997741853  0.14983204158333274  1.0000
  H   H16       1.0  0.4155299001950438  0.9849394869624397  0.14175317631382622  1.0000
  Zn  Zn1       1.0  0.04606430439194331  0.5628520136547366  0.4165793388659662  1.0000
  Zn  Zn2       1.0  0.2571918735499543  0.5628478738728766  0.4165744818835895  1.0000
  C   C22       1.0  0.1508104832522441  0.5596051770325328  0.6797747701103807  1.0000
  C   C23       1.0  0.15244798773253443  0.5660965310286177  0.15337919923057908  1.0000
  C   C24       1.0  0.1499090748434846  0.8261323233973654  0.4118753506158541  1.0000
  C   C25       1.0  0.1533493352766615  0.29956765310819433  0.4212786887136821  1.0000
  O   O1        1.0  0.232380503392827  0.5685265090625349  0.2070797443408896  1.0000
  O   O2        1.0  0.2311189159519753  0.5571709653494403  0.6260701194980562  1.0000
  O   O3        1.0  0.23038993229721333  0.7723950209821722  0.4097394487753099  1.0000
  O   O4        1.0  0.2331094152882165  0.3533024627196155  0.4234103070474329  1.0000
  O   O5        1.0  0.07014669060621756  0.7723974248109078  0.40974351369620554  1.0000
  O   O6        1.0  0.07087566307814885  0.5571751007366763  0.6260741144244595  1.0000
  O   O7        1.0  0.0721372565623215  0.5685305777562664  0.20708200635073037  1.0000
  O   O8        1.0  0.0728661681696201  0.3533065221264442  0.4234126770675606  1.0000
