data_image0
_chemical_formula_structural       NC9NC3NH7C6NCOCH7C6NO2H3Zn2C4O8
_chemical_formula_sum              "N5 C30 H17 O11 Zn2"
_cell_length_a       16.053384444249904
_cell_length_b       10.300268703208214
_cell_length_c       9.273395971720358
_cell_angle_alpha    84.96326544088495
_cell_angle_beta     89.67931749283619
_cell_angle_gamma    89.1549403880511

_space_group_name_H-M_alt    "P 1"
_space_group_IT_number       1

loop_
  _space_group_symop_operation_xyz
  'x, y, z'

loop_
  _atom_site_type_symbol
  _atom_site_label
  _atom_site_symmetry_multiplicity
  _atom_site_fract_x
  _atom_site_fract_y
  _atom_site_fract_z
  _atom_site_occupancy
  N   N1        1.0  0.7859215943485724  0.41884614304608303  0.4043182493502553  1.0000
  C   C1        1.0  0.7352678607058002  0.39881551562375944  0.3211181836017405  1.0000
  C   C2        1.0  0.672319069072367  0.3739270352969768  0.21776341981085448  1.0000
  C   C3        1.0  0.6861078310816506  0.3632129620109892  0.07244149324778351  1.0000
  C   C4        1.0  0.6095568369567165  0.338432015596666  0.01435683291878198  1.0000
  C   C5        1.0  0.5523305696466572  0.3354075677197788  0.1273742556028592  1.0000
  C   C6        1.0  0.46169675166951923  0.31169433781744577  0.11598406173169296  1.0000
  C   C7        1.0  0.4056699246471595  0.35342568518135775  0.22037019648225112  1.0000
  C   C8        1.0  0.3201391679138996  0.3309369020402444  0.2094605424554319  1.0000
  C   C9        1.0  0.2633288143734973  0.3743882817947932  0.3164832658181753  1.0000
  N   N2        1.0  0.2176699739662039  0.40931707940549  0.40251277521383355  1.0000
  C   C10       1.0  0.289909215920197  0.26660465072551043  0.09417999404072601  1.0000
  C   C11       1.0  0.3449271907050317  0.22499070402132856  0.9900291484061491  1.0000
  C   C12       1.0  0.4302525311762755  0.24731790504776877  0.0004979643576983345  1.0000
  N   N3        1.0  0.591369955831556  0.35721544064494354  0.25137780074970273  1.0000
  H   H1        1.0  0.7449069849716314  0.37238567305136216  0.015065532689101381  1.0000
  H   H2        1.0  0.597430217636762  0.3257141979652862  0.9018911370955562  1.0000
  H   H3        1.0  0.4278727869943364  0.40504955085115435  0.30907332658042685  1.0000
  H   H4        1.0  0.2239018977016816  0.2487268710345321  0.08480649854995594  1.0000
  H   H5        1.0  0.3214339233415504  0.1750109458515268  0.901066066035921  1.0000
  H   H6        1.0  0.471474328634911  0.21263927349935433  0.9190763853269415  1.0000
  H   H7        1.0  0.5650856811515778  0.3586159422618178  0.3544881945861975  1.0000
  C   C13       1.0  0.001884388413450288  0.03273194874443153  0.4034236615971867  1.0000
  C   C14       1.0  0.016096768710291306  0.043216685482282635  0.2532989379161006  1.0000
  C   C15       1.0  0.024394490777554623  0.931171591383864  0.17795462109064264  1.0000
  C   C16       1.0  0.015908264142081123  0.8080609881223324  0.2533357407316277  1.0000
  C   C17       1.0  0.0017151072372336754  0.7954210484988827  0.4034197771756818  1.0000
  C   C18       1.0  0.9950916243875061  0.9083573194476889  0.47775778180454387  1.0000
  N   N4        1.0  0.037648738869146214  0.9403478960066376  0.02389599370309404  1.0000
  C   C19       1.0  0.08664285445830311  0.039104271806408526  0.9461209536220023  1.0000
  O   O1        1.0  0.13360861530020962  0.11043572451482686  0.012588390504570725  1.0000
  C   C20       1.0  0.08685782325037383  0.051507500539147905  0.7844025691213661  1.0000
  H   H8        1.0  0.019063667370661008  0.1385531688862511  0.19455757421791112  1.0000
  H   H9        1.0  0.021145722446217482  0.7221393108926332  0.19422065114151457  1.0000
  H   H10       1.0  0.9841527378802991  0.899460880680811  0.5935506760901341  1.0000
  H   H11       1.0  0.014766508008999587  0.8659748020245099  0.9659869481387005  1.0000
  H   H12       1.0  0.023142545105826026  0.03626388350145014  0.7437405346373167  1.0000
  H   H13       1.0  0.10755878473366674  0.15010672079928256  0.7422214227437942  1.0000
  H   H14       1.0  0.12990239028815753  0.9772059677230261  0.744483021194589  1.0000
  C   C21       1.0  0.0022729561059155992  0.41805545682382467  0.9794830108563768  1.0000
  C   C22       1.0  0.9280143368637528  0.4493349594006698  0.05038006755072201  1.0000
  C   C23       1.0  0.8535252533195743  0.4683404177528841  0.9742620391331966  1.0000
  C   C24       1.0  0.8511815809653555  0.45646172861292733  0.8249772737525577  1.0000
  C   C25       1.0  0.925395187146656  0.42740837293335976  0.7526427139657765  1.0000
  C   C26       1.0  0.0013265316073516338  0.4100975138702896  0.82736046569803  1.0000
  N   N5        1.0  0.7739474677436408  0.4750950017990481  0.7471626426553606  1.0000
  O   O2        1.0  0.7015427423699963  0.504601512064283  0.8182398510037823  1.0000
  O   O3        1.0  0.7712966989869997  0.4644514873012122  0.6141782499608041  1.0000
  H   H15       1.0  0.1845999528493225  0.2685492549835185  0.09514338241690878  1.0000
  H   H16       1.0  0.797453616978154  0.4911112485415086  0.032879373226004205  1.0000
  H   H17       1.0  0.1256399283357692  0.31320373052920675  0.5553919043281993  1.0000
  Zn  Zn1       1.0  0.9105148396298041  0.4160927195916244  0.4038055577486843  1.0000
  Zn  Zn2       1.0  0.0930766944030681  0.4120598122543495  0.4030372659185679  1.0000
  C   C27       1.0  0.0015047324346246765  0.40642836365818136  0.6670934869386027  1.0000
  C   C28       1.0  0.0020887946462175857  0.42172576135495365  0.13974947002533905  1.0000
  C   C29       1.0  0.0017492497029534227  0.6513106441719917  0.39766769831456816  1.0000
  C   C30       1.0  0.0018442153426441155  0.17684192127163145  0.4091753358867542  1.0000
  O   O4        1.0  0.07130826209271746  0.42142141631400154  0.19324479505782607  1.0000
  O   O5        1.0  0.07084548924854772  0.40367084957304394  0.6130146306129863  1.0000
  O   O6        1.0  0.071042004414827  0.601416394589456  0.3954514039905359  1.0000
  O   O7        1.0  0.07111168474920415  0.22367588297944524  0.4108079136984084  1.0000
  O   O8        1.0  0.932479786984275  0.6044766502442476  0.3960349102234304  1.0000
  O   O9        1.0  0.9322832715538473  0.40673266617506504  0.6135980598630872  1.0000
  O   O10       1.0  0.9327460464008491  0.4244832039518325  0.19382648861794793  1.0000
  O   O11       1.0  0.9325494689351765  0.2267376603131388  0.4113897154949857  1.0000
