data_image0
_chemical_formula_structural       NC6NC3H6C6NH7C6OCH6Zn2C4O8
_chemical_formula_sum              "N3 C26 H19 O9 Zn2"
_cell_length_a       14.934028789175542
_cell_length_b       9.274771166103582
_cell_length_c       9.273891588657152
_cell_angle_alpha    85.97469330815719
_cell_angle_beta     89.65557739525336
_cell_angle_gamma    90.55950156128424

_space_group_name_H-M_alt    "P 1"
_space_group_IT_number       1

loop_
  _space_group_symop_operation_xyz
  'x, y, z'

loop_
  _atom_site_type_symbol
  _atom_site_label
  _atom_site_symmetry_multiplicity
  _atom_site_fract_x
  _atom_site_fract_y
  _atom_site_fract_z
  _atom_site_occupancy
  N   N1        1.0  0.8588278931119789  0.5634153705813918  0.4066878398724201  1.0000
  C   C1        1.0  0.7813370192180893  0.5623108449077783  0.40601107284997195  1.0000
  C   C2        1.0  0.6849344439389171  0.5609317382798631  0.40516625568041575  1.0000
  C   C3        1.0  0.6376425044738205  0.6683365179559302  0.47085418496033227  1.0000
  C   C4        1.0  0.5441259277356865  0.6672292005602312  0.4701768292085907  1.0000
  C   C5        1.0  0.49698898090592275  0.5587719169282981  0.4038452670590056  1.0000
  C   C6        1.0  0.4003534056912024  0.5610989891504106  0.40526977213362225  1.0000
  N   N2        1.0  0.3228813741395121  0.5629458173108941  0.4064006248254757  1.0000
  C   C7        1.0  0.5442688405649697  0.4498812106098828  0.3372480047799935  1.0000
  C   C8        1.0  0.49543591016907407  0.3319656097613708  0.26513303932798143  1.0000
  C   C9        1.0  0.6384214367051111  0.45211843830852083  0.3386163279684926  1.0000
  H   H1        1.0  0.6730575858906825  0.7529615268211058  0.5226107693830033  1.0000
  H   H2        1.0  0.5084582086927407  0.7512024728513189  0.5215346732022375  1.0000
  H   H3        1.0  0.4533061459279708  0.3802468147888889  0.17644351132587247  1.0000
  H   H4        1.0  0.4520110081424193  0.2698290728994366  0.34535538525205856  1.0000
  H   H5        1.0  0.5425601093601787  0.2555899107432016  0.21841583335442485  1.0000
  H   H6        1.0  0.6755871095410785  0.3692622634330802  0.28794198168573343  1.0000
  C   C10       1.0  0.08810719240305204  0.1395939033070448  0.4073315668052353  1.0000
  C   C11       1.0  0.06794142686492162  0.22175969115743  0.27844804054114713  1.0000
  C   C12       1.0  0.056138738288412426  0.15555149827355108  0.1487415485139194  1.0000
  C   C13       1.0  0.06455195969548333  0.0057915139422557455  0.1469790225593839  1.0000
  C   C14       1.0  0.0830679560071354  0.9222919860989279  0.2740929156832661  1.0000
  C   C15       1.0  0.09361057717513255  0.9867563043599302  0.4057693906064519  1.0000
  N   N3        1.0  0.036527946264054645  0.24080343642913274  0.018441036921576844  1.0000
  H   H7        1.0  0.1878054843710623  0.22200045735110163  0.7227180440167662  1.0000
  H   H8        1.0  0.06342844443765094  0.3383519686433687  0.27789716251920105  1.0000
  H   H9        1.0  0.05589478464632955  0.9534122771978836  0.0471827007455048  1.0000
  H   H10       1.0  0.0870281847965262  0.8060867054359508  0.26996244557037025  1.0000
  H   H11       1.0  0.1571248079746962  0.6915627736329419  0.6203465346601058  1.0000
  H   H12       1.0  0.030358703338885674  0.35288315771572054  0.018398040013374528  1.0000
  H   H13       1.0  0.027946992032456194  0.1924627247460782  0.921015076583017  1.0000
  C   C16       1.0  0.09230096800949131  0.559353363996484  0.9832812682948271  1.0000
  C   C17       1.0  0.16602659074931514  0.6202050300514421  0.05169723141074667  1.0000
  C   C18       1.0  0.23474306054981275  0.6918329329233837  0.9717130298540507  1.0000
  C   C19       1.0  0.22998031249653622  0.7029703660009663  0.8202548807549862  1.0000
  C   C20       1.0  0.15813022879430616  0.6412433923907044  0.7504971659834528  1.0000
  C   C21       1.0  0.08941676780964175  0.5669967527652076  0.8298196355629774  1.0000
  O   O1        1.0  0.3060117625494081  0.7509110851080578  0.046766689267342405  1.0000
  C   C22       1.0  0.380241409691747  0.8267499174109304  0.9795046915357104  1.0000
  H   H14       1.0  0.878740022848691  0.47097434768647145  0.09459370562733672  1.0000
  H   H15       1.0  0.28191965428215315  0.7579994521467155  0.7551992464404478  1.0000
  H   H16       1.0  0.9469591337734525  0.5017753251408468  0.5545854340885827  1.0000
  H   H17       1.0  0.35683944625457936  0.9243862143113057  0.914943989189037  1.0000
  H   H18       1.0  0.4171120972837665  0.7551234446307975  0.9092009280927713  1.0000
  H   H19       1.0  0.426301694014406  0.8611818787450952  0.06425628680216655  1.0000
  Zn  Zn1       1.0  0.9927436636959122  0.563276077406361  0.4066132801300354  1.0000
  Zn  Zn2       1.0  0.1889655167135269  0.5630734011070933  0.40648699061960736  1.0000
  C   C23       1.0  0.08992263094305697  0.5598056249004515  0.6698163737918368  1.0000
  C   C24       1.0  0.09178870354418334  0.5665456726930713  0.14328403369348286  1.0000
  C   C25       1.0  0.092585269617343  0.8265726905350597  0.4003208952074912  1.0000
  C   C26       1.0  0.08912598639310175  0.29977687479228043  0.4127795923624562  1.0000
  O   O2        1.0  0.16608191263095706  0.5688762696518526  0.196934508798019  1.0000
  O   O3        1.0  0.16455726237660734  0.5573201093953217  0.6160696349578869  1.0000
  O   O4        1.0  0.16670636784737325  0.7727379031943675  0.3984501271561063  1.0000
  O   O5        1.0  0.16393274063820515  0.3534584852648257  0.41455390855082763  1.0000
  O   O6        1.0  0.017776372810381906  0.772890993319294  0.3985463622343268  1.0000
  O   O7        1.0  0.01562727885555891  0.5574749318570971  0.6161657899869921  1.0000
  O   O8        1.0  0.01715193474712849  0.5690310262008429  0.19702893097095675  1.0000
  O   O9        1.0  0.015002762315510447  0.353613232472463  0.4146484388082495  1.0000
