data_image0
_chemical_formula_structural       NC12NC2H8C6SCOC6H10C7OC3NC3H11Zn2C4O8
_chemical_formula_sum              "N3 C44 H29 S1 O10 Zn2"
_cell_length_a       19.240039667572717
_cell_length_b       10.302038109246572
_cell_length_c       10.298749378158432
_cell_angle_alpha    85.56336078908822
_cell_angle_beta     90.00886307587598
_cell_angle_gamma    90.01678309981642

_space_group_name_H-M_alt    "P 1"
_space_group_IT_number       1

loop_
  _space_group_symop_operation_xyz
  'x, y, z'

loop_
  _atom_site_type_symbol
  _atom_site_label
  _atom_site_symmetry_multiplicity
  _atom_site_fract_x
  _atom_site_fract_y
  _atom_site_fract_z
  _atom_site_occupancy
  N   N1        1.0  0.6545813939384578  0.42105412933383635  0.5675559429516241  1.0000
  C   C1        1.0  0.5944330251275625  0.421054213301876  0.5675558610211389  1.0000
  C   C2        1.0  0.5196149879934233  0.4210543305710146  0.5675557237235578  1.0000
  C   C3        1.0  0.4831397273252051  0.35659580040768096  0.6709661299851317  1.0000
  C   C4        1.0  0.4104689690021889  0.3564849383531044  0.671052661807451  1.0000
  C   C5        1.0  0.3732827530517557  0.42105442313303953  0.5675554960375377  1.0000
  C   C6        1.0  0.4104722155339679  0.48562409483866165  0.46405852485438737  1.0000
  C   C7        1.0  0.4831428937478865  0.4855129973305027  0.4641451791499532  1.0000
  C   C8        1.0  0.2960776625918922  0.4210543444985226  0.5675554006014176  1.0000
  C   C9        1.0  0.2588755588991638  0.30781703685116746  0.6094113815922502  1.0000
  C   C10       1.0  0.1862048797173494  0.3079239192303291  0.6093200657423392  1.0000
  C   C11       1.0  0.1497453756534817  0.4210542153513221  0.5675554614959804  1.0000
  C   C12       1.0  0.0749273385012814  0.42105410161481127  0.5675557101592428  1.0000
  N   N2        1.0  0.0147790216600375  0.421054060783601  0.5675559185894401  1.0000
  C   C13       1.0  0.1862333824537387  0.5341845872862894  0.5257908043666637  1.0000
  C   C14       1.0  0.2589040878887229  0.5342916497570783  0.5256993259376144  1.0000
  H   H1        1.0  0.5108534518055751  0.3066905477812024  0.7517061055367777  1.0000
  H   H2        1.0  0.38337473827743823  0.30737748756151695  0.7529083661450457  1.0000
  H   H3        1.0  0.3833799154706223  0.5347315726804847  0.3822027696684722  1.0000
  H   H4        1.0  0.5108589407377113  0.5354181496953074  0.3834054794006285  1.0000
  H   H5        1.0  0.2859574329428959  0.21868026984384925  0.6405672226500736  1.0000
  H   H6        1.0  0.15847886314305468  0.2196860318583369  0.641509104934769  1.0000
  H   H7        1.0  0.1585295755776005  0.62242245012605  0.4936017797219276  1.0000
  H   H8        1.0  0.28600869267091  0.6234284959259062  0.4945434401172826  1.0000
  C   C15       1.0  0.8346177144730197  0.03977567185525311  0.5675157514754123  1.0000
  C   C16       1.0  0.7751949734297374  0.04455143443363352  0.48798985681162566  1.0000
  C   C17       1.0  0.7459555699964812  0.9299691827654545  0.4479371158298315  1.0000
  C   C18       1.0  0.7754185175883129  0.8094188402677426  0.48793584632073855  1.0000
  C   C19       1.0  0.834749397786139  0.8023225622424114  0.5676073331316867  1.0000
  C   C20       1.0  0.8640787839531581  0.9181541951882868  0.606899123083082  1.0000
  S   S1        1.0  0.6705286406818901  0.9375121214037283  0.3453198709348817  1.0000
  C   C21       1.0  0.7216143487996863  0.9460179838739391  0.19888622645913975  1.0000
  O   O1        1.0  0.7383688080995969  0.8407538508731657  0.15253248501432481  1.0000
  C   C22       1.0  0.744530687680797  0.07218925292616651  0.13338345174960398  1.0000
  C   C23       1.0  0.7936614140354595  0.07453640303543407  0.031868825280459534  1.0000
  C   C24       1.0  0.8159935781224339  0.19287737540501992  0.9701408100886062  1.0000
  C   C25       1.0  0.7895708827562481  0.3101112962482906  0.00864514962441776  1.0000
  C   C26       1.0  0.7406490633187552  0.3092368345313823  0.10880662422172693  1.0000
  C   C27       1.0  0.71808526379504  0.19119947496042689  0.17085483753884745  1.0000
  H   H9        1.0  0.9465421429723032  0.23807793304330113  0.7175815165689114  1.0000
  H   H10       1.0  0.7515462995432485  0.13707594520515265  0.45671157105715793  1.0000
  H   H11       1.0  0.7519937125797062  0.7216698555607891  0.4561689905594013  1.0000
  H   H12       1.0  0.909889829889532  0.913552104595235  0.6682049585843461  1.0000
  H   H13       1.0  0.8574281676676283  0.47231005910046225  0.5975762942985001  1.0000
  H   H14       1.0  0.8151585842528293  0.9849743563182879  0.0005687534979110779  1.0000
  H   H15       1.0  0.8538999416421339  0.1936369572290011  0.8924370112910972  1.0000
  H   H16       1.0  0.8069393421760604  0.40161949179550827  0.960767046499868  1.0000
  H   H17       1.0  0.7200626322614414  0.4001819075639373  0.13834590160625737  1.0000
  H   H18       1.0  0.6797716686533495  0.19382769085237078  0.24742620823476336  1.0000
  C   C28       1.0  0.8346514939266158  0.4210771090498588  0.18616047546108438  1.0000
  C   C29       1.0  0.8726359841304746  0.5379139863574094  0.17615481477382855  1.0000
  C   C30       1.0  0.8911460152080878  0.5977954948565403  0.0538566747883058  1.0000
  C   C31       1.0  0.8726387547951919  0.5379628361286153  0.9409107912180096  1.0000
  C   C32       1.0  0.8347155746577831  0.4210210900672908  0.9489625784740108  1.0000
  C   C33       1.0  0.8158029704897322  0.36350084749123157  0.0720097178946082  1.0000
  C   C34       1.0  0.9318208602025111  0.7205341631156594  0.04319127101769138  1.0000
  O   O2        1.0  0.9752522096956656  0.7388725819928909  0.9518465523299589  1.0000
  C   C35       1.0  0.9232266737294719  0.8224606601906739  0.1360931972510404  1.0000
  C   C36       1.0  0.8582087215088556  0.8450292930873194  0.19280018532247634  1.0000
  C   C37       1.0  0.8504511245890483  0.9425080663562169  0.27951216531043843  1.0000
  N   N3        1.0  0.7842834170950379  0.9643544952021514  0.33718695234191176  1.0000
  C   C38       1.0  0.9078153092627633  0.018740980568239692  0.30891898392012007  1.0000
  C   C39       1.0  0.9722859066328216  0.9981225336710358  0.25175289597262607  1.0000
  C   C40       1.0  0.9800035041787526  0.9009553565800761  0.16541775803936964  1.0000
  H   H19       1.0  0.7638004482667646  0.1992994887984054  0.41250654338624426  1.0000
  H   H20       1.0  0.8885161834915523  0.5817493337049546  0.2637062261853753  1.0000
  H   H21       1.0  0.8873044311190138  0.583473938191925  0.8465099406824841  1.0000
  H   H22       1.0  0.7865270913649289  0.2734383058251264  0.07897048631469405  1.0000
  H   H23       1.0  0.7633114024638465  0.19982232033217517  0.7568921020112227  1.0000
  H   H24       1.0  0.8133541936720756  0.7880356726899925  0.16875035201916222  1.0000
  H   H25       1.0  0.7411759411817865  0.9080958759231663  0.3159522003626525  1.0000
  H   H26       1.0  0.7779278611241818  0.03685558034157798  0.40168338174959684  1.0000
  H   H27       1.0  0.9024877885549917  0.0943372857554019  0.3756611268319252  1.0000
  H   H28       1.0  0.016398364023370023  0.057575383476832  0.27439638067249916  1.0000
  H   H29       1.0  0.030492858707076517  0.8863141487022688  0.12241552958181767  1.0000
  Zn  Zn1       1.0  0.7585266578042277  0.4210506426224436  0.567563424561941  1.0000
  Zn  Zn2       1.0  0.9108337756274658  0.4210469557501492  0.5675590355005367  1.0000
  C   C41       1.0  0.8347010334333858  0.41585924691981213  0.8047760288421255  1.0000
  C   C42       1.0  0.8346610634808636  0.4262399896339606  0.33034655884630837  1.0000
  C   C43       1.0  0.8347204750485437  0.658185338789697  0.562414392256342  1.0000
  C   C44       1.0  0.8346415696304164  0.18391233782787397  0.5727082644907631  1.0000
  O   O3        1.0  0.8924640315913908  0.4279656359755184  0.378735059280509  1.0000
  O   O4        1.0  0.8924956434033477  0.41412982286488687  0.7563838232167346  1.0000
  O   O5        1.0  0.8925105636985694  0.6098112066012507  0.5606750871094699  1.0000
  O   O6        1.0  0.8924490593174873  0.2322842615355793  0.5744436980075127  1.0000
  O   O7        1.0  0.7769113221392617  0.6098133368396854  0.5606787620496312  1.0000
  O   O8        1.0  0.7768964021043843  0.41413351304219453  0.7563874290928911  1.0000
  O   O9        1.0  0.7768647901996206  0.4279692810222257  0.37873710361896484  1.0000
  O   O10       1.0  0.7768498179294544  0.2322878972885336  0.5744458397208958  1.0000
