data_image0
_chemical_formula_structural       NC9NC5H8C10SC3H12C11NC2H7Zn2C4O8
_chemical_formula_sum              "N3 C44 H27 S1 Zn2 O8"
_cell_length_a       17.807436237873137
_cell_length_b       10.299151087687918
_cell_length_c       10.299775503585812
_cell_angle_alpha    85.55102628306553
_cell_angle_beta     89.4045774949642
_cell_angle_gamma    88.40438916484405

_space_group_name_H-M_alt    "P 1"
_space_group_IT_number       1

loop_
  _space_group_symop_operation_xyz
  'x, y, z'

loop_
  _atom_site_type_symbol
  _atom_site_label
  _atom_site_symmetry_multiplicity
  _atom_site_fract_x
  _atom_site_fract_y
  _atom_site_fract_z
  _atom_site_occupancy
  N   N1        1.0  0.7074404174507759  0.3875275526155115  0.5566136063820815  1.0000
  C   C1        1.0  0.6468463786967352  0.3523326266501259  0.5456046917383619  1.0000
  C   C2        1.0  0.5714740543340631  0.3085540146132503  0.5319107972342895  1.0000
  C   C3        1.0  0.553359418124578  0.23710935135163225  0.4269417309229856  1.0000
  C   C4        1.0  0.48017675412917193  0.1944921688670238  0.41356326276698285  1.0000
  C   C5        1.0  0.42405994840951755  0.22294208399209237  0.5051215667722384  1.0000
  C   C6        1.0  0.3462856685929413  0.17776593912742353  0.4909857433015574  1.0000
  C   C7        1.0  0.2841244778244345  0.2595342618237446  0.5168897861609657  1.0000
  C   C8        1.0  0.2107994807782707  0.21671402906710352  0.5035250825741941  1.0000
  C   C9        1.0  0.1475886400271412  0.3011739909722857  0.5297919002072335  1.0000
  N   N2        1.0  0.0967801114092137  0.3690739573187576  0.5509096975431136  1.0000
  C   C10       1.0  0.1990520886514329  0.09186746833054805  0.46423109412853547  1.0000
  C   C11       1.0  0.26035590654478796  0.010085290356766972  0.4383186676401656  1.0000
  C   C12       1.0  0.3335613890559718  0.05251090557920658  0.4514810042276509  1.0000
  C   C13       1.0  0.44286608833932584  0.29488120151806263  0.6103096493630087  1.0000
  C   C14       1.0  0.5161015768249351  0.337307939343521  0.6235325517925221  1.0000
  H   H1        1.0  0.595742344569265  0.21460589362279237  0.35524116468073164  1.0000
  H   H2        1.0  0.4672462637590519  0.14078672379358315  0.33066835495866975  1.0000
  H   H3        1.0  0.2926397688696205  0.35701314964685643  0.5457253246343319  1.0000
  H   H4        1.0  0.1425807769097406  0.05782641215956397  0.45365072430065334  1.0000
  H   H5        1.0  0.25114224593500617  0.9134262869542394  0.40828242680231  1.0000
  H   H6        1.0  0.3801902503463484  0.9867565274106957  0.4324605807771631  1.0000
  H   H7        1.0  0.40120011982719983  0.3168458678701694  0.6833048849687757  1.0000
  H   H8        1.0  0.5295604699421338  0.3922338217983463  0.7053853696122407  1.0000
  C   C15       1.0  0.9020577154683989  0.9969022537994433  0.5539251960199776  1.0000
  C   C16       1.0  0.8870155665557473  0.007241929092258735  0.4199089281312059  1.0000
  C   C17       1.0  0.8794474408149385  0.8953511840744395  0.351798914698412  1.0000
  C   C18       1.0  0.887122982200332  0.7719845330974708  0.4195083652112652  1.0000
  C   C19       1.0  0.902169970244957  0.7596889169936294  0.5536092919430515  1.0000
  C   C20       1.0  0.9095461846945342  0.8726685345890239  0.6199924813445425  1.0000
  C   C21       1.0  0.863528864232099  0.9073247515547983  0.21003295771138666  1.0000
  C   C22       1.0  0.8113485841107444  0.001785827700557349  0.1575258261564159  1.0000
  C   C23       1.0  0.7963918704894436  0.012824115698070848  0.024099421111342563  1.0000
  C   C24       1.0  0.8331769530871534  0.929693137333482  0.9415153422594545  1.0000
  S   S1        1.0  0.8140665183586322  0.9443170463398094  0.7702746721951939  1.0000
  C   C25       1.0  0.738101362906904  0.8293650745007839  0.7845096653641104  1.0000
  C   C26       1.0  0.8853355605367117  0.8358114410900532  0.992615994402724  1.0000
  C   C27       1.0  0.900400423803311  0.824421871560089  0.12600357980470012  1.0000
  H   H9        1.0  0.9078034849855643  0.32040188554161975  0.6054861102944863  1.0000
  H   H10       1.0  0.8821687242508295  0.10253394419955231  0.36782110337360785  1.0000
  H   H11       1.0  0.8803298704188502  0.6854284522701731  0.36784937859035854  1.0000
  H   H12       1.0  0.9211461109626095  0.8639775049441596  0.7233634812284884  1.0000
  H   H13       1.0  0.9301016600079713  0.5291979838552894  0.806880385263806  1.0000
  H   H14       1.0  0.7814114036058248  0.0659528762614392  0.21987409132495683  1.0000
  H   H15       1.0  0.7559305195678695  0.08565571410091688  0.9851306041435192  1.0000
  H   H16       1.0  0.7146906722346742  0.8194364568361587  0.6865056922108713  1.0000
  H   H17       1.0  0.6928664502272627  0.8653294200276417  0.8486220783849171  1.0000
  H   H18       1.0  0.759606476261309  0.7325502692503795  0.8250060113833225  1.0000
  H   H19       1.0  0.9142720553681654  0.7716091531537159  0.9290830388640409  1.0000
  H   H20       1.0  0.9415803275219631  0.7519566153411817  0.16318790440195197  1.0000
  C   C28       1.0  0.9020674031905047  0.3782052415539945  0.17241421534480872  1.0000
  C   C29       1.0  0.8425769123887984  0.4708026446422793  0.16530482810138802  1.0000
  C   C30       1.0  0.8124796881065969  0.5178139318796993  0.04455578968288188  1.0000
  C   C31       1.0  0.8426705128490398  0.47098494021279325  0.9300023691082471  1.0000
  C   C32       1.0  0.902160318827992  0.3783859794233513  0.9351202333184042  1.0000
  C   C33       1.0  0.9315257581131544  0.3325151473870662  0.056789785082398625  1.0000
  C   C34       1.0  0.7495443650873267  0.615776967161229  0.038088561772199554  1.0000
  C   C35       1.0  0.7490455540788838  0.7208662563256022  0.9422140947306397  1.0000
  C   C36       1.0  0.6897904455825619  0.8130394663257274  0.9362535211402556  1.0000
  C   C37       1.0  0.6302763754236804  0.8014309226559126  0.025836398515231004  1.0000
  C   C38       1.0  0.5692889743741035  0.8963656479854876  0.019571937912975294  1.0000
  N   N3        1.0  0.5202592142959915  0.9726866179666076  0.014535529701890534  1.0000
  C   C39       1.0  0.6302251266882896  0.69726131078691  0.12152735053731935  1.0000
  C   C40       1.0  0.6894437300638507  0.6050168072171844  0.12773742862409287  1.0000
  H   H21       1.0  0.924714808717087  0.3428796012130636  0.502580175435164  1.0000
  H   H22       1.0  0.820186880460552  0.5079095958932389  0.25375899507844624  1.0000
  H   H23       1.0  0.8189913657526329  0.5055865459352216  0.8368137359795847  1.0000
  H   H24       1.0  0.9774197479065739  0.2610800285234922  0.06150623764880781  1.0000
  H   H25       1.0  0.794954233315315  0.7327003276180216  0.8729195286417758  1.0000
  H   H26       1.0  0.5843317782456724  0.6871336769794876  0.19114863193757903  1.0000
  H   H27       1.0  0.6877591524517931  0.5243430383087784  0.20157516072050718  1.0000
  Zn  Zn1       1.0  0.8197954421386404  0.3821987798586195  0.554975093417028  1.0000
  Zn  Zn2       1.0  0.984425068266243  0.3743921456145044  0.5525588910599221  1.0000
  C   C41       1.0  0.9021403023056724  0.3731778082655328  0.7909546536896856  1.0000
  C   C42       1.0  0.9020820061063376  0.3834146707356154  0.3165794311848451  1.0000
  C   C43       1.0  0.9021442690967986  0.6155049889315614  0.5484940953533401  1.0000
  C   C44       1.0  0.9020779829173845  0.14108593232687294  0.5590400602276823  1.0000
  O   O1        1.0  0.964562991285216  0.3821947595680584  0.36404566073060196  1.0000
  O   O2        1.0  0.9646093938976493  0.3684716847883451  0.7416542090373397  1.0000
  O   O3        1.0  0.9646117550886089  0.5641539880785592  0.545865604533675  1.0000
  O   O4        1.0  0.9645605739068253  0.18651246820958603  0.5598341686842949  1.0000
  O   O5        1.0  0.8396598803180464  0.5700784599289714  0.5476998166103552  1.0000
  O   O6        1.0  0.8396575193449013  0.374397717046904  0.7434883512252285  1.0000
  O   O7        1.0  0.8396111165856018  0.38812074619482595  0.36587824160088145  1.0000
  O   O8        1.0  0.8396086992146302  0.1924384455700445  0.5616668469222468  1.0000
