data_image0
_chemical_formula_structural       NC9NC5H8C6NCOCH9C8NH7Zn2C4O8
_chemical_formula_sum              "N4 C34 H24 O9 Zn2"
_cell_length_a       17.807436237873137
_cell_length_b       10.300268703208214
_cell_length_c       9.274266800404106
_cell_angle_alpha    85.98590923950522
_cell_angle_beta     88.95510806583813
_cell_angle_gamma    88.37019024828581

_space_group_name_H-M_alt    "P 1"
_space_group_IT_number       1

loop_
  _space_group_symop_operation_xyz
  'x, y, z'

loop_
  _atom_site_type_symbol
  _atom_site_label
  _atom_site_symmetry_multiplicity
  _atom_site_fract_x
  _atom_site_fract_y
  _atom_site_fract_z
  _atom_site_occupancy
  N   N1        1.0  0.7136740664370602  0.3766450797714964  0.39833534976573604  1.0000
  C   C1        1.0  0.6531435592823643  0.34137266327857274  0.38609830259273425  1.0000
  C   C2        1.0  0.577850261312183  0.29749766143255085  0.37087674459384684  1.0000
  C   C3        1.0  0.5602491511152893  0.22528233057811953  0.2543182557053465  1.0000
  C   C4        1.0  0.4871436397702815  0.18257096011081742  0.23944738232555474  1.0000
  C   C5        1.0  0.43059074285540777  0.21169716055957433  0.3410989756408347  1.0000
  C   C6        1.0  0.3528980344294034  0.1664215133558018  0.3253861949508865  1.0000
  C   C7        1.0  0.2905877185534274  0.24837229761740254  0.3541795632495668  1.0000
  C   C8        1.0  0.217339881000674  0.2054580035107707  0.33932387707654144  1.0000
  C   C9        1.0  0.153977286633301  0.2901027960756368  0.36852119067998146  1.0000
  N   N2        1.0  0.10304675351846426  0.3581513616008583  0.39199502439096295  1.0000
  C   C10       1.0  0.20581898106438423  0.08033476353120261  0.2956466836241127  1.0000
  C   C11       1.0  0.2672719679251826  0.998370063421919  0.266844002352558  1.0000
  C   C12       1.0  0.3404013706646469  0.040888285173854344  0.2814748611934368  1.0000
  C   C13       1.0  0.4488821646919813  0.28440851207945683  0.45790081980398306  1.0000
  C   C14       1.0  0.5220412911116411  0.32692830592805233  0.4725989131124198  1.0000
  H   H1        1.0  0.6029736647729768  0.20224929147962145  0.17471339353702042  1.0000
  H   H2        1.0  0.47461773685088876  0.12825658581732546  0.14740145600316312  1.0000
  H   H3        1.0  0.298934753425518  0.34605351829464076  0.3862343559157537  1.0000
  H   H4        1.0  0.1494088033129197  0.04621925933840609  0.2838858900775112  1.0000
  H   H5        1.0  0.25823186580488205  0.9014997146748185  0.23345668840139755  1.0000
  H   H6        1.0  0.3871417249888144  0.9750006199854798  0.2603302963540078  1.0000
  H   H7        1.0  0.40686877111923586  0.3069124360404133  0.5389426441997973  1.0000
  H   H8        1.0  0.5351000209548149  0.38245523439270235  0.5634885763221015  1.0000
  C   C15       1.0  0.9084402929874024  0.986046854048959  0.3951724280915323  1.0000
  C   C16       1.0  0.9217185619373129  0.9937973580388166  0.24511252564104247  1.0000
  C   C17       1.0  0.9294331311405566  0.8803559051938606  0.16978849957131015  1.0000
  C   C18       1.0  0.9215484483185455  0.7586461600897824  0.2451512569944605  1.0000
  C   C19       1.0  0.9082876406985427  0.748739394051191  0.39517032823266796  1.0000
  C   C20       1.0  0.9020860544192333  0.863021017869213  0.46947188278755125  1.0000
  N   N3        1.0  0.9418594001698807  0.8867538653289011  0.015810375178905593  1.0000
  C   C21       1.0  0.9862829925183935  0.9832321354526993  0.9376314045823659  1.0000
  O   O1        1.0  0.028434397761344155  0.05467194997087321  0.003510436765573611  1.0000
  C   C22       1.0  0.9869734640278617  0.993002375879822  0.7761414844915399  1.0000
  H   H9        1.0  0.9023007799196474  0.31059836230522453  0.45190452204190024  1.0000
  H   H10       1.0  0.9245746070875369  0.08811766875895488  0.18642378830576734  1.0000
  H   H11       1.0  0.926453318338147  0.6716552449941543  0.18606546504893173  1.0000
  H   H12       1.0  0.8918653730493074  0.856233041836124  0.5852145350402604  1.0000
  H   H13       1.0  0.9021533049879328  0.4176519847057197  0.45169361387942114  1.0000
  H   H14       1.0  0.921401159157228  0.8119130916061588  0.9582244238610813  1.0000
  H   H15       1.0  0.9296374624741202  0.978416475250316  0.7362070632621515  1.0000
  H   H16       1.0  0.005771909914868089  0.09048757202620616  0.7338029660540499  1.0000
  H   H17       1.0  0.025915280154342076  0.9171611630355617  0.7358265230115282  1.0000
  C   C23       1.0  0.910092554159809  0.3644716710123044  0.9718325297973883  1.0000
  C   C24       1.0  0.8664506206600868  0.27358131723540113  0.05369320381055509  1.0000
  C   C25       1.0  0.8182602830197644  0.19300661238837646  0.9865813769444639  1.0000
  C   C26       1.0  0.8121053000953362  0.202125398216219  0.8359836849067115  1.0000
  C   C27       1.0  0.8567792822865773  0.2898620844968407  0.752799973184994  1.0000
  C   C28       1.0  0.9066353704478022  0.37031455217625897  0.8185102050544568  1.0000
  C   C29       1.0  0.7609494051478062  0.11385376968210115  0.763735417571367  1.0000
  C   C30       1.0  0.8016581630726811  0.9931977191482492  0.7318581677380598  1.0000
  N   N4        1.0  0.8337922867300374  0.8979719792515548  0.7066967560495536  1.0000
  H   H18       1.0  0.9928001663077857  0.6463509151420086  0.049919346136138014  1.0000
  H   H19       1.0  0.868370165886287  0.26676456146952376  0.17067601061557358  1.0000
  H   H20       1.0  0.7851179314315498  0.12417977803753401  0.05236544080078498  1.0000
  H   H21       1.0  0.8538527734971089  0.2929641125520417  0.6359566128117438  1.0000
  H   H22       1.0  0.9650501476888683  0.5574429766647409  0.5212178947486383  1.0000
  H   H23       1.0  0.7395095672700125  0.16242197585679505  0.6613152072653894  1.0000
  H   H24       1.0  0.7116786332599713  0.08951184517041112  0.8346994357018902  1.0000
  Zn  Zn1       1.0  0.826038578473134  0.37130478460390676  0.3965140061914145  1.0000
  Zn  Zn2       1.0  0.9906821770112632  0.363481152871971  0.39382821957549163  1.0000
  C   C31       1.0  0.9072882280356426  0.3640367646048937  0.6584700656723688  1.0000
  C   C32       1.0  0.9094343244460552  0.37075072695729583  0.13187227225558362  1.0000
  C   C33       1.0  0.9083360951466192  0.6045347899448807  0.38942609704863274  1.0000
  C   C34       1.0  0.90838640115215  0.130251144587058  0.4009163186584501  1.0000
  O   O2        1.0  0.9716948052728576  0.36988334254427224  0.18456382979749386  1.0000
  O   O3        1.0  0.9699884307962808  0.3589652110189594  0.6037396432484459  1.0000
  O   O4        1.0  0.970833748340798  0.5531704583620272  0.3864847487904426  1.0000
  O   O5        1.0  0.9708494319861312  0.1756781064147419  0.4018186170811242  1.0000
  O   O6        1.0  0.8458712673135171  0.559107833732319  0.3885236095947262  1.0000
  O   O7        1.0  0.8450259497671794  0.36490414609068467  0.6057784271825435  1.0000
  O   O8        1.0  0.8467323313799388  0.37582222039878777  0.18660088049687285  1.0000
  O   O9        1.0  0.8458869576506728  0.18161697572690305  0.4038557758638206  1.0000
