data_image0
_chemical_formula_structural       NC12NC2H8C10H6C6NO2H5Zn2C4O8
_chemical_formula_sum              "N3 C34 H19 O10 Zn2"
_cell_length_a       17.80743265337812
_cell_length_b       10.30283237001006
_cell_length_c       9.27342699604674
_cell_angle_alpha    85.15248197412419
_cell_angle_beta     91.97882923782456
_cell_angle_gamma    89.43531271068052

_space_group_name_H-M_alt    "P 1"
_space_group_IT_number       1

loop_
  _space_group_symop_operation_xyz
  'x, y, z'

loop_
  _atom_site_type_symbol
  _atom_site_label
  _atom_site_symmetry_multiplicity
  _atom_site_fract_x
  _atom_site_fract_y
  _atom_site_fract_z
  _atom_site_occupancy
  N   N1        1.0  0.7010549741419424  0.4163516740542923  0.4453401717342951  1.0000
  C   C1        1.0  0.6499224275919389  0.44639738092665704  0.36897853115405166  1.0000
  C   C2        1.0  0.5863085642675351  0.4837720328983555  0.2739942629435239  1.0000
  C   C3        1.0  0.5974588401386717  0.5386902830221174  0.133250879073469  1.0000
  C   C4        1.0  0.5357632378655377  0.5745445072675202  0.0409298371165594  1.0000
  C   C5        1.0  0.4627600526046914  0.5557486292105254  0.08861866850543909  1.0000
  C   C6        1.0  0.45063513456396603  0.5007082330057984  0.2298824154089043  1.0000
  C   C7        1.0  0.5131879777652948  0.46485738085999073  0.3221851038013681  1.0000
  C   C8        1.0  0.3730767637582478  0.4807779201876445  0.28075059063885344  1.0000
  C   C9        1.0  0.35486943105487667  0.5070390356026251  0.42196817855507773  1.0000
  C   C10       1.0  0.28183648447327725  0.4882844254274812  0.46970209902493315  1.0000
  C   C11       1.0  0.22607171864712333  0.4430084575703231  0.3771498727856024  1.0000
  C   C12       1.0  0.1509085494877559  0.4236910791986317  0.4264409861295131  1.0000
  N   N2        1.0  0.09048268464070283  0.40816120666569966  0.46606765035787245  1.0000
  C   C13       1.0  0.24359003197415913  0.4165745623644323  0.23653582083141186  1.0000
  C   C14       1.0  0.3165689577508943  0.4353458002770112  0.1885174681915336  1.0000
  H   H1        1.0  0.6537675952960824  0.5537580674246791  0.09497266603852661  1.0000
  H   H2        1.0  0.5445157581763791  0.6173344216811842  0.9322441622824694  1.0000
  H   H3        1.0  0.41582181587925104  0.5858484913240074  0.01571168394410494  1.0000
  H   H4        1.0  0.505133281198852  0.42068347790725746  0.43073241273782603  1.0000
  H   H5        1.0  0.3968443678108302  0.5437337456142686  0.49485733344570026  1.0000
  H   H6        1.0  0.2688394978577263  0.5094160027555872  0.5786449978958237  1.0000
  H   H7        1.0  0.2009000905372539  0.3811437681643099  0.1641057222497131  1.0000
  H   H8        1.0  0.3290389403697516  0.41267695421453876  0.0799117016971771  1.0000
  C   C15       1.0  0.8957724219195807  0.031003769884247575  0.4557103081909632  1.0000
  C   C16       1.0  0.9313843683769044  0.03942888237361464  0.3224897606210535  1.0000
  C   C17       1.0  0.9491019860739199  0.9265170560454845  0.25621046635588196  1.0000
  C   C18       1.0  0.931384471562  0.804126286199616  0.3224900683100471  1.0000
  C   C19       1.0  0.8957724755957839  0.7934989224050044  0.4557103405550886  1.0000
  C   C20       1.0  0.8781520319264876  0.9075378133506408  0.5216263308538927  1.0000
  C   C21       1.0  0.9856076135589176  0.9362824374090285  0.1196466250058361  1.0000
  C   C22       1.0  0.016170665075976528  0.9444582392886779  0.005312670490796426  1.0000
  C   C23       1.0  0.051959692151106976  0.954031947163448  0.8714288107205487  1.0000
  C   C24       1.0  0.08251803894146192  0.962206511806167  0.7571122490256407  1.0000
  H   H9        1.0  0.8822868641451557  0.35513566620449266  0.5061585822007493  1.0000
  H   H10       1.0  0.9454325501894922  0.13360509473901883  0.26993690052227115  1.0000
  H   H11       1.0  0.9454327864936727  0.7174659834179982  0.26993698941471767  1.0000
  H   H12       1.0  0.8506884013932985  0.9001913867684048  0.6243643276642727  1.0000
  H   H13       1.0  0.882286650961871  0.46215206060362907  0.5061583604584305  1.0000
  H   H14       1.0  0.109350787551737  0.9693845826821921  0.6567327837985224  1.0000
  C   C25       1.0  0.894039109592744  0.41501492785443483  0.03179123943166018  1.0000
  C   C26       1.0  0.9376558172891124  0.5068969717296667  0.09984549778070773  1.0000
  C   C27       1.0  0.9862113096072029  0.5901544000083472  0.020916021170850115  1.0000
  C   C28       1.0  0.9909825227822489  0.580695411807082  0.8715276392311644  1.0000
  C   C29       1.0  0.9472060932668092  0.49165299777199195  0.8019813300523402  1.0000
  C   C30       1.0  0.8975057718252087  0.4094877023911995  0.8796294563258718  1.0000
  N   N3        1.0  0.030892646879762568  0.6828186861947296  0.09270891279324855  1.0000
  O   O1        1.0  0.026063143483353816  0.6922065615893045  0.23926683004698798  1.0000
  O   O2        1.0  0.07457101566382707  0.7564120345912455  0.02318614594910162  1.0000
  H   H15       1.0  0.7889660439109611  0.30130003065227307  0.3156826283638623  1.0000
  H   H16       1.0  0.9350716281492755  0.5114574884549947  0.215819575128537  1.0000
  H   H17       1.0  0.028109938405943117  0.6432264709909667  0.8078577189860376  1.0000
  H   H18       1.0  0.9509358570418236  0.4892341625783738  0.6858699309673936  1.0000
  H   H19       1.0  0.7397967548442457  0.2466755670871115  0.7816186698196104  1.0000
  Zn  Zn1       1.0  0.8134354366572464  0.41398456161354247  0.45132999659263007  1.0000
  Zn  Zn2       1.0  0.9781022677766348  0.410517652116825  0.4600896004401751  1.0000
  C   C31       1.0  0.8968488372118645  0.40536044381866243  0.7193697469128564  1.0000
  C   C32       1.0  0.8946906659581588  0.41914336924912576  0.1920500874627722  1.0000
  C   C33       1.0  0.8957450798282169  0.6494086830005841  0.44995754748203387  1.0000
  C   C34       1.0  0.8957943674671006  0.17509357092194122  0.4614623608682346  1.0000
  O   O3        1.0  0.9573995384674062  0.41920757379607837  0.24915864485355077  1.0000
  O   O4        1.0  0.9591182776918962  0.4026639584680045  0.6689091106020351  1.0000
  O   O5        1.0  0.9582261433853898  0.5997360059690324  0.4513568086129067  1.0000
  O   O6        1.0  0.9582916161417051  0.22213553747108428  0.466710835614647  1.0000
  O   O7        1.0  0.8332460320994373  0.6023666774438319  0.4447087584213423  1.0000
  O   O8        1.0  0.8341381660879102  0.4052961902726162  0.6622609834390151  1.0000
  O   O9        1.0  0.8324194198167472  0.421839771672156  0.2425087820835976  1.0000
  O   O10       1.0  0.8333114979305146  0.22476772535567724  0.4600610810759101  1.0000
