data_image0
_chemical_formula_structural       NC8NC6H8C12NCOCH13C12ClH9Zn2C4O8
_chemical_formula_sum              "N3 C44 H30 O9 Cl1 Zn2"
_cell_length_a       17.457602349358154
_cell_length_b       10.299155265289647
_cell_length_c       10.299771906710086
_cell_angle_alpha    85.5278422735101
_cell_angle_beta     92.88560136090982
_cell_angle_gamma    91.66712233072684

_space_group_name_H-M_alt    "P 1"
_space_group_IT_number       1

loop_
  _space_group_symop_operation_xyz
  'x, y, z'

loop_
  _atom_site_type_symbol
  _atom_site_label
  _atom_site_symmetry_multiplicity
  _atom_site_fract_x
  _atom_site_fract_y
  _atom_site_fract_z
  _atom_site_occupancy
  N   N1        1.0  0.7219668579470692  0.45329854686709625  0.6260348270380565  1.0000
  C   C1        1.0  0.6608982283818023  0.4073735501696705  0.6154334595992343  1.0000
  C   C2        1.0  0.5849262697997648  0.3502485663556125  0.6022548987599696  1.0000
  C   C3        1.0  0.5263957933998021  0.3903920693426755  0.6771406694726014  1.0000
  C   C4        1.0  0.4518615004147822  0.335385303573253  0.6645758857254889  1.0000
  C   C5        1.0  0.38974004735110535  0.37777086435643836  0.7438827973508926  1.0000
  C   C6        1.0  0.3151838890619554  0.39625579298853997  0.6881129220367388  1.0000
  C   C7        1.0  0.2566534614986455  0.43621532973906585  0.7631067054128771  1.0000
  C   C8        1.0  0.1806587994137764  0.45530676046138835  0.7051211565029061  1.0000
  N   N2        1.0  0.11957200905302993  0.4706498906456462  0.6585009282374903  1.0000
  C   C9        1.0  0.2721870236144238  0.4579329529839735  0.8943788101545153  1.0000
  C   C10       1.0  0.3459584276219835  0.439836926782946  0.950536164918639  1.0000
  C   C11       1.0  0.4044772536683555  0.40005732832209917  0.8760000506701467  1.0000
  C   C12       1.0  0.43714634457532603  0.23955797188107852  0.5756926107535298  1.0000
  C   C13       1.0  0.4956650785356633  0.19969305467068052  0.5012067595495895  1.0000
  C   C14       1.0  0.5694146333128568  0.2548120504821454  0.5143214631332795  1.0000
  H   H1        1.0  0.5387293206827308  0.46557241347151496  0.7437483599193941  1.0000
  H   H2        1.0  0.30283247463915136  0.38131287007773085  0.5860921497159837  1.0000
  H   H3        1.0  0.22732475005416755  0.4888012664235202  0.9532055017599602  1.0000
  H   H4        1.0  0.3577957451950435  0.45633770567980214  0.05218318253554621  1.0000
  H   H5        1.0  0.4609706557681241  0.3850518683221315  0.9221116786839634  1.0000
  H   H6        1.0  0.38067085705732834  0.19422268824433742  0.5650549403878291  1.0000
  H   H7        1.0  0.48384499530335884  0.1256295699137846  0.4334003844945833  1.0000
  H   H8        1.0  0.6142771952137592  0.22307384611066783  0.45600617538492577  1.0000
  C   C15       1.0  0.9208588006342624  0.08058058207502226  0.6423938805037763  1.0000
  C   C16       1.0  0.9077404001692734  0.08975851245014699  0.5063980613909753  1.0000
  C   C17       1.0  0.9010147801730045  0.9772710341381993  0.43732152472504193  1.0000
  C   C18       1.0  0.90755692869285  0.8544908510522338  0.5060752966027737  1.0000
  C   C19       1.0  0.9206874274937368  0.8433581844014915  0.6421536938345289  1.0000
  C   C20       1.0  0.9272609404462459  0.9569172185165374  0.7094755090439577  1.0000
  C   C21       1.0  0.8871380435882683  0.9879538869047083  0.2934544468432734  1.0000
  C   C22       1.0  0.9260385935419521  0.08379275974975875  0.21521356562069882  1.0000
  C   C23       1.0  0.9129859829282312  0.09371542628133289  0.07982557506477317  1.0000
  C   C24       1.0  0.8612488617106993  0.007136106358874624  0.019850687314493243  1.0000
  C   C25       1.0  0.821411168875631  0.9130726479998889  0.0979468877738119  1.0000
  C   C26       1.0  0.8344917187186016  0.902895195225525  0.23329982436663618  1.0000
  N   N3        1.0  0.8457270014371775  0.016751030103213674  0.8810227571195219  1.0000
  C   C27       1.0  0.9017365475293091  0.056168396920519996  0.7873788321166146  1.0000
  O   O1        1.0  0.9721216769670314  0.06176389934863979  0.8209843729140099  1.0000
  C   C28       1.0  0.8772479345061325  0.0815981232020495  0.6468399008001873  1.0000
  H   H9        1.0  0.9259285119813329  0.4045275856867277  0.6946999398742666  1.0000
  H   H10       1.0  0.9016654677383354  0.18455781443411912  0.45409258750318654  1.0000
  H   H11       1.0  0.9034248605782147  0.7675310654729437  0.45310965779359047  1.0000
  H   H12       1.0  0.9373820195655493  0.9491233367922105  0.8143716917466247  1.0000
  H   H13       1.0  0.9459299434892342  0.6150826374974786  0.8989012434187346  1.0000
  H   H14       1.0  0.9670098763578647  0.1506141486912116  0.25865119904095235  1.0000
  H   H15       1.0  0.9424126584920367  0.17047743729823783  0.022648188715981732  1.0000
  H   H16       1.0  0.7803661760198146  0.8469524158783845  0.053636203161114615  1.0000
  H   H17       1.0  0.8025998837868206  0.829641643426601  0.29110886437629  1.0000
  H   H18       1.0  0.7916874224922571  0.9855357716163891  0.8455368837120029  1.0000
  H   H19       1.0  0.8218666781841981  0.13262863891284682  0.6378641707513406  1.0000
  H   H20       1.0  0.8701442640158795  0.9876953462982442  0.6010359693257055  1.0000
  H   H21       1.0  0.9209179390820601  0.14361578288085777  0.5950106694575701  1.0000
  C   C29       1.0  0.9207365612505704  0.4620740960350938  0.26090151098195147  1.0000
  C   C30       1.0  0.9903089590901143  0.5339984455117643  0.26023426653031456  1.0000
  C   C31       1.0  0.02559929562696217  0.5703365638593512  0.14276892038847966  1.0000
  C   C32       1.0  0.9903830152547511  0.5337864985649603  0.024970601051240493  1.0000
  C   C33       1.0  0.9208096304165923  0.46186466610290844  0.023646108190610304  1.0000
  C   C34       1.0  0.8863763645611653  0.42641041192386897  0.1421113143788364  1.0000
  C   C35       1.0  0.0992016011349879  0.6464251545141746  0.14311682090245514  1.0000
  C   C36       1.0  0.11130389779773188  0.7499663410696764  0.2238765804795866  1.0000
  C   C37       1.0  0.18061470434930899  0.8214836257036585  0.22401951725129046  1.0000
  C   C38       1.0  0.23860963154528442  0.7905411152897042  0.14377690088928285  1.0000
  C   C39       1.0  0.22723956637050424  0.6878914158889176  0.06320547134359922  1.0000
  C   C40       1.0  0.15799757168926543  0.6161767969406946  0.06269258151675183  1.0000
  Cl  Cl1       1.0  0.32552448822709934  0.8803908954629545  0.14418873552269873  1.0000
  H   H22       1.0  0.8942057399778547  0.4347237433066571  0.5886030320164597  1.0000
  H   H23       1.0  0.017752473499724974  0.5603975183330905  0.35144847521106026  1.0000
  H   H24       1.0  0.0168152662635519  0.5630832447402292  0.9340109923611948  1.0000
  H   H25       1.0  0.8327039956277967  0.3709251867264458  0.14185782184151874  1.0000
  H   H26       1.0  0.8943136019085214  0.4344138545216218  0.6956927478995012  1.0000
  H   H27       1.0  0.06682107384887814  0.7766804652908219  0.28560981507841454  1.0000
  H   H28       1.0  0.189080058953453  0.901133101260712  0.28632085841866006  1.0000
  H   H29       1.0  0.2720720236675871  0.6633398616047612  0.0011565739474381762  1.0000
  H   H30       1.0  0.1508057410384247  0.5360425779328926  0.000714924086795414  1.0000
  Zn  Zn1       1.0  0.8367071173456158  0.45830228488320773  0.6354113421692351  1.0000
  Zn  Zn2       1.0  0.004831738816048815  0.46563550119565567  0.6491350490805368  1.0000
  C   C41       1.0  0.9207952770495726  0.4567301370438013  0.879472510671474  1.0000
  C   C42       1.0  0.9207454146717149  0.4672093678049527  0.40507415739234687  1.0000
  C   C43       1.0  0.9207153545870082  0.6991782009215476  0.6370235654113532  1.0000
  C   C44       1.0  0.9208252801223604  0.2247597410015869  0.6475231677000866  1.0000
  O   O2        1.0  0.9845508048931274  0.4717100631846487  0.45866789159627297  1.0000
  O   O3        1.0  0.984592584569627  0.4577942034824747  0.8362943789274295  1.0000
  O   O4        1.0  0.9845271862126231  0.6535740433521128  0.6405150696297979  1.0000
  O   O5        1.0  0.9846161458691692  0.2759302301302491  0.6544470988324793  1.0000
  O   O6        1.0  0.8569226529198125  0.648007553447564  0.6300992877272331  1.0000
  O   O7        1.0  0.8569880509160522  0.452229274002494  0.8258785272871869  1.0000
  O   O8        1.0  0.8569462711511482  0.46614508887676576  0.44825047855996947  1.0000
  O   O9        1.0  0.8570116121354691  0.27036524650607663  0.6440297831675423  1.0000
