data_image0
_chemical_formula_structural       NC8NC6H8C6SCOC6H10C6SCOC6H10Zn2C4O8
_chemical_formula_sum              "N2 C44 H28 S2 O10 Zn2"
_cell_length_a       17.457602349358154
_cell_length_b       10.302038109246572
_cell_length_c       10.302041481415108
_cell_angle_alpha    85.54819663174399
_cell_angle_beta     92.8727530123399
_cell_angle_gamma    91.70619204985762

_space_group_name_H-M_alt    "P 1"
_space_group_IT_number       1

loop_
  _space_group_symop_operation_xyz
  'x, y, z'

loop_
  _atom_site_type_symbol
  _atom_site_label
  _atom_site_symmetry_multiplicity
  _atom_site_fract_x
  _atom_site_fract_y
  _atom_site_fract_z
  _atom_site_occupancy
  N   N1        1.0  0.722753632579247  0.4529616956536701  0.6270005747742606  1.0000
  C   C1        1.0  0.6616673510019725  0.40705090847990233  0.6163809270016878  1.0000
  C   C2        1.0  0.5856734344151003  0.3499435990033528  0.60317962583834  1.0000
  C   C3        1.0  0.5271496290265134  0.39007035097146403  0.6780665099420695  1.0000
  C   C4        1.0  0.4525941755488707  0.3350805959114983  0.6654798007483707  1.0000
  C   C5        1.0  0.39047973421949594  0.3774484543616732  0.7447878338750011  1.0000
  C   C6        1.0  0.3159386946109286  0.395931625583979  0.6890389174903628  1.0000
  C   C7        1.0  0.2574148472626723  0.43587445830557486  0.7640337069399421  1.0000
  C   C8        1.0  0.1814358514120243  0.45496409941802396  0.7060698920425881  1.0000
  N   N2        1.0  0.12036165403427357  0.4703057926227031  0.6594671350153993  1.0000
  C   C9        1.0  0.2729399039404979  0.4575770298893513  0.8952858530800352  1.0000
  C   C10       1.0  0.3466962990108995  0.4394826211227698  0.9514223362728812  1.0000
  C   C11       1.0  0.40520855845931714  0.3997196435552619  0.8768851933024819  1.0000
  C   C12       1.0  0.4378510983421328  0.23928731966984104  0.5765735066030597  1.0000
  C   C13       1.0  0.49636322357291024  0.1994390451343393  0.502086576867659  1.0000
  C   C14       1.0  0.5701339120352329  0.2545409609309201  0.51522313185861  1.0000
  H   H1        1.0  0.5395054788220515  0.46522418345765537  0.7446929677425884  1.0000
  H   H2        1.0  0.3035946938845077  0.38099983104231944  0.5870345279804663  1.0000
  H   H3        1.0  0.2280825940885454  0.4884323805961949  0.9541131191546359  1.0000
  H   H4        1.0  0.3585268995646594  0.45597183803532315  0.05305375732111551  1.0000
  H   H5        1.0  0.46168957565722407  0.38471555476480374  0.9229796173662391  1.0000
  H   H6        1.0  0.38135820849407903  0.19396607447449404  0.5659178297011913  1.0000
  H   H7        1.0  0.48452144152391874  0.12540182257325672  0.43426220898465306  1.0000
  H   H8        1.0  0.6149910808057961  0.22281594144244993  0.45690676203572145  1.0000
  C   C15       1.0  0.9214886471371319  0.08035229505081663  0.6431880711308289  1.0000
  C   C16       1.0  0.8559046030671935  0.0822883171654929  0.5583307000193556  1.0000
  C   C17       1.0  0.8236336047575755  0.9663089998341731  0.5156548515707098  1.0000
  C   C18       1.0  0.8561513717172995  0.8471665016641551  0.5582968555322017  1.0000
  C   C19       1.0  0.921633995209303  0.8429055013754575  0.6432914937778402  1.0000
  C   C20       1.0  0.9540044212522794  0.960138739125324  0.68521473747548  1.0000
  S   S1        1.0  0.740386181411266  0.9702478309008787  0.406270734114212  1.0000
  C   C21       1.0  0.7967967997020183  0.9812532584437377  0.2644870731886173  1.0000
  O   O1        1.0  0.8152974390111843  0.8768084486305666  0.2196578582170725  1.0000
  C   C22       1.0  0.8221017951106921  0.10854574741028489  0.2010701591061648  1.0000
  C   C23       1.0  0.876348522233729  0.11328614768394882  0.10401539325059207  1.0000
  C   C24       1.0  0.9010081773185452  0.23271918750181705  0.044319414874937735  1.0000
  C   C25       1.0  0.8718361773493787  0.3486703719148607  0.08043020665496114  1.0000
  C   C26       1.0  0.817820230991728  0.34541308613902155  0.17615106959646964  1.0000
  C   C27       1.0  0.7929048408650914  0.22627241867291256  0.23614626835449304  1.0000
  H   H9        1.0  0.04501802962114576  0.28400321347710006  0.8032957386454552  1.0000
  H   H10       1.0  0.8298038456752855  0.17368258602949968  0.5249305132780071  1.0000
  H   H11       1.0  0.8302977981478067  0.7582981871761632  0.5244284286214831  1.0000
  H   H12       1.0  0.0045654291999630585  0.9577259035844148  0.7506307935963268  1.0000
  H   H13       1.0  0.9466642846578643  0.5139768926716944  0.6752953385298757  1.0000
  H   H14       1.0  0.9000824883782771  0.024767711871790162  0.07466267337184074  1.0000
  H   H15       1.0  0.9428616637498226  0.23532509184380365  0.9700563891873433  1.0000
  H   H16       1.0  0.8910147862186365  0.44102786908315433  0.03413244528252423  1.0000
  H   H17       1.0  0.7950918238201488  0.4353588792808  0.2038256303103276  1.0000
  H   H18       1.0  0.7506019752992716  0.227035010217856  0.30924051055423774  1.0000
  C   C28       1.0  0.9215757171044219  0.4617587591727357  0.2619539297151776  1.0000
  C   C29       1.0  0.9567715444084821  0.5863630525070249  0.25392963280533065  1.0000
  C   C30       1.0  0.9746250614719226  0.6478534438493042  0.13300943215140704  1.0000
  C   C31       1.0  0.956844281636482  0.585962459290781  0.018830111746659387  1.0000
  C   C32       1.0  0.9215469221295604  0.4614990060195016  0.024525638352064894  1.0000
  C   C33       1.0  0.9041519544876018  0.3999900708291203  0.14667670362434082  1.0000
  S   S2        1.0  0.020271676783582878  0.8063401115958831  0.12423294314744537  1.0000
  C   C34       1.0  0.11476743503481514  0.7406780781524327  0.13450900119304876  1.0000
  O   O2        1.0  0.14478806446002368  0.7188203867657105  0.029897280208358804  1.0000
  C   C35       1.0  0.15704931622393178  0.7111872574238204  0.2614822627265787  1.0000
  C   C36       1.0  0.22509516697994014  0.6404497230742731  0.26722195155670003  1.0000
  C   C37       1.0  0.26507660111241815  0.6113043841572283  0.38643498987397473  1.0000
  C   C38       1.0  0.23782648064374737  0.6524531170848309  0.5011525431226709  1.0000
  C   C39       1.0  0.17060518405900926  0.7230678464329656  0.4968604307478086  1.0000
  C   C40       1.0  0.1303948227518823  0.7525772446370991  0.3779281503332417  1.0000
  H   H19       1.0  0.855122784943963  0.22700952784946146  0.48437731633219777  1.0000
  H   H20       1.0  0.970563151136006  0.6358807492796392  0.3413759875980118  1.0000
  H   H21       1.0  0.9709610131168411  0.6351628872228228  0.9260172745707846  1.0000
  H   H22       1.0  0.8770202613021154  0.3039289003575722  0.15194245526599004  1.0000
  H   H23       1.0  0.9083363265833857  0.4140173142696073  0.6993820361691916  1.0000
  H   H24       1.0  0.24725014614641558  0.6069664731181995  0.1797082223923956  1.0000
  H   H25       1.0  0.3172173550275825  0.5566079465356362  0.3898386723810503  1.0000
  H   H26       1.0  0.26884597952828226  0.6297607865256449  0.5933446135769558  1.0000
  H   H27       1.0  0.14964126025778324  0.7552163447851749  0.5858252867832527  1.0000
  H   H28       1.0  0.07883646962390545  0.8082409191134563  0.3777993951443883  1.0000
  Zn  Zn1       1.0  0.8374947178505915  0.4579633429273702  0.6363772191065169  1.0000
  Zn  Zn2       1.0  0.005620552082562953  0.4652934963466046  0.6501011194510429  1.0000
  C   C41       1.0  0.9215496476771246  0.45637555148260045  0.8803823888587374  1.0000
  C   C42       1.0  0.9215674584923005  0.4668830060373807  0.4060962272241974  1.0000
  C   C43       1.0  0.9216027464245085  0.698768293255386  0.6380975539730316  1.0000
  C   C44       1.0  0.9215143020754216  0.22448870179445388  0.6483811264389325  1.0000
  O   O3        1.0  0.9853675636430256  0.4713788406728629  0.4596798469143819  1.0000
  O   O4        1.0  0.9853531603689285  0.45744215431325674  0.8372145180832051  1.0000
  O   O5        1.0  0.9853951781346332  0.6531773208101593  0.6415677296812923  1.0000
  O   O6        1.0  0.9853254885128117  0.27564368099592973  0.6553265332810609  1.0000
  O   O7        1.0  0.8577897240472477  0.64761315577804  0.6311518005863757  1.0000
  O   O8        1.0  0.8577477065779426  0.4518795492512728  0.8267985199691367  1.0000
  O   O9        1.0  0.8577621099534373  0.46581619089920334  0.4492622877377906  1.0000
  O   O10       1.0  0.8577200348146372  0.2700810219022953  0.6449090714495809  1.0000
