data_image0
_chemical_formula_structural       NC12NC2H8C10H6C6SCNH5Zn2C4O8
_chemical_formula_sum              "N3 C35 H19 S1 Zn2 O8"
_cell_length_a       17.80743265337812
_cell_length_b       10.30283237001006
_cell_length_c       9.275272990362726
_cell_angle_alpha    85.0442724431011
_cell_angle_beta     91.20895717805207
_cell_angle_gamma    89.43531271068052

_space_group_name_H-M_alt    "P 1"
_space_group_IT_number       1

loop_
  _space_group_symop_operation_xyz
  'x, y, z'

loop_
  _atom_site_type_symbol
  _atom_site_label
  _atom_site_symmetry_multiplicity
  _atom_site_fract_x
  _atom_site_fract_y
  _atom_site_fract_z
  _atom_site_occupancy
  N   N1        1.0  0.7119192614465102  0.4187724772646268  0.4459999984462388  1.0000
  C   C1        1.0  0.6613203459759415  0.44893708892973283  0.36967076717464686  1.0000
  C   C2        1.0  0.5983702525390022  0.4864596434954491  0.27472681206428406  1.0000
  C   C3        1.0  0.6105040725467922  0.5415970489799602  0.1340431623190319  1.0000
  C   C4        1.0  0.5494536289803034  0.5775950288371614  0.04176130313924831  1.0000
  C   C5        1.0  0.4761171842140604  0.558724893200454  0.08942989449603855  1.0000
  C   C6        1.0  0.46300508563121523  0.5034645313635091  0.23063368642289683  1.0000
  C   C7        1.0  0.5249128983844373  0.46746995218473897  0.3228971998278305  1.0000
  C   C8        1.0  0.385091237401877  0.483455010322655  0.28148027224775896  1.0000
  C   C9        1.0  0.3658970467250214  0.5094962319808358  0.42263792477811357  1.0000
  C   C10       1.0  0.29253052554611847  0.4906672940165415  0.4703515860792302  1.0000
  C   C11       1.0  0.23741253399061843  0.4455354417545321  0.37783864073595974  1.0000
  C   C12       1.0  0.1619049082451902  0.42614131084620577  0.4271088340093476  1.0000
  N   N2        1.0  0.10120212399926201  0.4105497345538823  0.4667186799401684  1.0000
  C   C13       1.0  0.2559134876558908  0.41932050052313774  0.23728426801568658  1.0000
  C   C14       1.0  0.3292279757012886  0.43816650912195415  0.18928629526288065  1.0000
  H   H1        1.0  0.6670803238447449  0.556724437431791  0.0957811952737182  1.0000
  H   H2        1.0  0.5589656674672884  0.6205541806787005  0.9331217565385876  1.0000
  H   H3        1.0  0.42968843671088125  0.5889382807675902  0.01655385302272072  1.0000
  H   H4        1.0  0.5160996505716177  0.42312702725744283  0.43139843925593446  1.0000
  H   H5        1.0  0.4073626188561735  0.5460774443018916  0.49549614414796594  1.0000
  H   H6        1.0  0.2787722232191774  0.5116292333862114  0.5792482475459986  1.0000
  H   H7        1.0  0.2137297028625051  0.38400248920450747  0.16488491012267392  1.0000
  H   H8        1.0  0.3424569180801365  0.415666776059902  0.08072662308735934  1.0000
  C   C15       1.0  0.9065642405465606  0.03340842547233746  0.4563657336230152  1.0000
  C   C16       1.0  0.9431071599906159  0.042040979308921596  0.3232017273454628  1.0000
  C   C17       1.0  0.9612879512270441  0.9292323582771649  0.2569505632525704  1.0000
  C   C18       1.0  0.9431072610255163  0.8067383826558119  0.3232020349038671  1.0000
  C   C19       1.0  0.9065642939965968  0.7959035779426994  0.45636576597340445  1.0000
  C   C20       1.0  0.8884832156318184  0.9098398293024749  0.5222537802929281  1.0000
  C   C21       1.0  0.998747915333383  0.9392103869218343  0.12044468215130101  1.0000
  C   C22       1.0  0.030109956383672865  0.947564221319664  0.006159253105241458  1.0000
  C   C23       1.0  0.06683459180960936  0.9573464034031653  0.8723322161494576  1.0000
  C   C24       1.0  0.09819180658853877  0.9656989734812306  0.7580641725416908  1.0000
  H   H9        1.0  0.8927261397058669  0.3574617674095219  0.5067925964416469  1.0000
  H   H10       1.0  0.9575225921562449  0.13629902316577236  0.2706711716635386  1.0000
  H   H11       1.0  0.9575228278392266  0.7201599117063352  0.2706712605182575  1.0000
  H   H12       1.0  0.86030163053767  0.9023334265839933  0.6249481731756878  1.0000
  H   H13       1.0  0.8927259280721639  0.4644781621539391  0.5067923747934395  1.0000
  H   H14       1.0  0.12572602784889364  0.9730333479596612  0.6577273102372718  1.0000
  C   C25       1.0  0.9077933631351636  0.4180796793837179  0.03262658404614949  1.0000
  C   C26       1.0  0.8505578245517716  0.48632102417162876  0.09733400850371554  1.0000
  C   C27       1.0  0.7907260993043701  0.5433502716289673  0.014503314954916304  1.0000
  C   C28       1.0  0.7870410496945575  0.5334820730245777  0.8654769812641296  1.0000
  C   C29       1.0  0.8438618964563175  0.4675546972871756  0.7988184083994776  1.0000
  C   C30       1.0  0.9053351882574356  0.4112323001102438  0.8801048892961751  1.0000
  S   S1        1.0  0.7095740251534727  0.605453087081766  0.7596886699239193  1.0000
  C   C31       1.0  0.7560423448502808  0.75518022124725  0.7259178014905778  1.0000
  N   N3        1.0  0.7865261651594363  0.8533298465110805  0.7037946169626683  1.0000
  H   H15       1.0  0.0268795446147263  0.35647402028774167  0.32450167443239564  1.0000
  H   H16       1.0  0.851106328527763  0.4929577139509282  0.21327576589969688  1.0000
  H   H17       1.0  0.7468739361273173  0.5944037574583105  0.06665558775897518  1.0000
  H   H18       1.0  0.8409106273982819  0.4632365797920242  0.682521260362758  1.0000
  H   H19       1.0  0.08392224814541893  0.32733704085487014  0.7923899803887129  1.0000
  Zn  Zn1       1.0  0.8242578658157543  0.41639603790426216  0.4519872811108605  1.0000
  Zn  Zn2       1.0  0.9888634829955119  0.4129154885895412  0.4607431672186795  1.0000
  C   C32       1.0  0.9057981486609039  0.40735454810537525  0.7199132703472093  1.0000
  C   C33       1.0  0.9073249972279029  0.4219585773562758  0.19281741522442086  1.0000
  C   C34       1.0  0.9065770999475108  0.6518222963692375  0.4506154144933392  1.0000
  C   C35       1.0  0.9065459895496403  0.17748926983196273  0.46211534502153473  1.0000
  O   O1        1.0  0.9696347832207548  0.42193385661130556  0.24990173467519353  1.0000
  O   O2        1.0  0.9684202185975437  0.4047366363874545  0.6694740504743346  1.0000
  O   O3        1.0  0.9690483851759049  0.6021474405100242  0.45201408175161406  1.0000
  O   O4        1.0  0.969006560787471  0.22452306383796536  0.4673615922170886  1.0000
  O   O5        1.0  0.8441147318519983  0.6047884638450529  0.4453688531169069  1.0000
  O   O6        1.0  0.8434865654934967  0.4073792201721496  0.6628287449008397  1.0000
  O   O7        1.0  0.844701135198818  0.42457640917002787  0.24325469423138912  1.0000
  O   O8        1.0  0.8440729124486602  0.22716560623667337  0.4607146599585654  1.0000
