data_image0
_chemical_formula_structural       NC8NH4C6ClH5C6NCH8Zn2C4O8
_chemical_formula_sum              "N3 C25 H17 Cl1 Zn2 O8"
_cell_length_a       11.048855714531884
_cell_length_b       9.276545438789551
_cell_length_c       9.274690524155616
_cell_angle_alpha    86.08901854457557
_cell_angle_beta     89.68736319339459
_cell_angle_gamma    89.40961225544244

_space_group_name_H-M_alt    "P 1"
_space_group_IT_number       1

loop_
  _space_group_symop_operation_xyz
  'x, y, z'

loop_
  _atom_site_type_symbol
  _atom_site_label
  _atom_site_symmetry_multiplicity
  _atom_site_fract_x
  _atom_site_fract_y
  _atom_site_fract_z
  _atom_site_occupancy
  N   N1        1.0  0.13342607672727946  0.5641996168139818  0.4111037895124689  1.0000
  C   C1        1.0  0.07981183978385077  0.5055159740017576  0.3260880013344112  1.0000
  C   C2        1.0  0.012917816273061655  0.43229551581934395  0.22001229393730348  1.0000
  C   C3        1.0  0.8852010620618374  0.43229532615043204  0.22001239554098048  1.0000
  C   C4        1.0  0.8235371636130461  0.35991363800017195  0.115152118035176  1.0000
  C   C5        1.0  0.8880605423163597  0.2881044887630384  0.011121204944860347  1.0000
  C   C6        1.0  0.014466755583341092  0.2881043788468667  0.011121227542540746  1.0000
  C   C7        1.0  0.07679470170689842  0.3599137361848457  0.11515209037884144  1.0000
  C   C8        1.0  0.8160684181183674  0.5055160488131967  0.32608798824689567  1.0000
  N   N2        1.0  0.7606599623630819  0.564199659732384  0.4111038183268759  1.0000
  H   H1        1.0  0.725488781600998  0.35900724558504327  0.11383837344867076  1.0000
  H   H2        1.0  0.8400141222555993  0.23240764118559218  0.9304330225263308  1.0000
  H   H3        1.0  0.06421616253863817  0.23240775059250307  0.930433021981956  1.0000
  H   H4        1.0  0.17487079250692994  0.3590071989428112  0.1138386485196503  1.0000
  C   C9        1.0  0.45070268874527764  0.14076240578197008  0.41086620790789286  1.0000
  C   C10       1.0  0.451768572427132  0.22325352131279977  0.27783428480723793  1.0000
  C   C11       1.0  0.4418100699290657  0.15703903197557056  0.14769782471635182  1.0000
  C   C12       1.0  0.4305449366653903  0.007455681349011203  0.14859117021655854  1.0000
  C   C13       1.0  0.43135748532504664  0.9234048522328212  0.27918129077265497  1.0000
  C   C14       1.0  0.4433950329851215  0.9876258868658495  0.41135386493987935  1.0000
  Cl  Cl1       1.0  0.4416240523964685  0.26222521440939905  0.983152320251456  1.0000
  H   H5        1.0  0.5115671427343843  0.4056979238065948  0.6374672332715383  1.0000
  H   H6        1.0  0.45745273668927044  0.33994919698924386  0.2749806990856989  1.0000
  H   H7        1.0  0.42231113920307917  0.9558559028391005  0.04790983402049286  1.0000
  H   H8        1.0  0.4254525698011467  0.8071212695506976  0.27653096910950253  1.0000
  H   H9        1.0  0.40175814582351477  0.6909231723173432  0.6444160684344677  1.0000
  C   C15       1.0  0.449018628617024  0.5605023418637058  0.9878606103027323  1.0000
  C   C16       1.0  0.5468118237600896  0.6228775540215008  0.056633903582477885  1.0000
  C   C17       1.0  0.6382868245812401  0.6961732791633752  0.9761783154416803  1.0000
  C   C18       1.0  0.6310243327068215  0.7068244024325154  0.825287987410019  1.0000
  C   C19       1.0  0.5358212539719258  0.6435901132212918  0.7553035143841891  1.0000
  C   C20       1.0  0.4450790189348471  0.5678859011036276  0.8343594083034009  1.0000
  N   N3        1.0  0.7384425025333697  0.7616099716236302  0.04493779026862432  1.0000
  C   C21       1.0  0.7549117348626433  0.7565340434938657  0.20121641593730905  1.0000
  H   H10       1.0  0.3123717420700445  0.38668996672034406  0.2807592957517795  1.0000
  H   H11       1.0  0.7002508277476364  0.7632697332091023  0.7612619338613742  1.0000
  H   H12       1.0  0.5348395895381117  0.6510298286307685  0.6382350833559425  1.0000
  H   H13       1.0  0.2544001370636575  0.5002388890680911  0.5588822650804891  1.0000
  H   H14       1.0  0.8038267572274057  0.8155476657525397  0.9803347047610851  1.0000
  H   H15       1.0  0.8391196605959238  0.8136683868917587  0.2269276343467765  1.0000
  H   H16       1.0  0.7626690182523949  0.6425399945782346  0.2453754273378277  1.0000
  H   H17       1.0  0.6772532399159581  0.810591331074872  0.25244955554125625  1.0000
  Zn  Zn1       1.0  0.31443223614920224  0.5641958334164461  0.41111211583852714  1.0000
  Zn  Zn2       1.0  0.5796538772276792  0.5641917192138353  0.4111072808089714  1.0000
  C   C22       1.0  0.44587059320825145  0.5607458766196822  0.6743497350219237  1.0000
  C   C23       1.0  0.44821840002274405  0.5676434965733348  0.14786980408475345  1.0000
  C   C24       1.0  0.4447968121358107  0.8275005317154103  0.40551818705248455  1.0000
  C   C25       1.0  0.4492921051851942  0.3008871097315801  0.41670142790043235  1.0000
  O   O1        1.0  0.548600120854797  0.5700322812881372  0.20156851272917195  1.0000
  O   O2        1.0  0.5467859724613608  0.5583528779068192  0.6206469411751652  1.0000
  O   O3        1.0  0.5459175168775399  0.7737606485628787  0.4035635650501139  1.0000
  O   O4        1.0  0.5494684863503712  0.3546245200058764  0.4186517807938237  1.0000
  O   O5        1.0  0.34461753651940197  0.7737630326273125  0.40356761584774453  1.0000
  O   O6        1.0  0.3454859775061061  0.5583569937201875  0.6206509161206257  1.0000
  O   O7        1.0  0.3473001344783176  0.5700363317385047  0.20157075477784003  1.0000
  O   O8        1.0  0.34816849955503054  0.3546285610853532  0.4186541308969608  1.0000
