data_image0
_chemical_formula_structural       NC8NC6H8C6FH4C7OH5Zn2C4O8
_chemical_formula_sum              "N2 C31 H17 F1 O9 Zn2"
_cell_length_a       17.457602349358154
_cell_length_b       9.275642734913903
_cell_length_c       9.274081674992354
_cell_angle_alpha    85.99194240723541
_cell_angle_beta     92.53340075860572
_cell_angle_gamma    92.2944494432906

_space_group_name_H-M_alt    "P 1"
_space_group_IT_number       1

loop_
  _space_group_symop_operation_xyz
  'x, y, z'

loop_
  _atom_site_type_symbol
  _atom_site_label
  _atom_site_symmetry_multiplicity
  _atom_site_fract_x
  _atom_site_fract_y
  _atom_site_fract_z
  _atom_site_occupancy
  N   N1        1.0  0.7360568362819253  0.6005271974768991  0.47451625787651724  1.0000
  C   C1        1.0  0.6747284332228819  0.5494065776937549  0.4627855272008517  1.0000
  C   C2        1.0  0.5984333204954299  0.4858189676464997  0.4482030795876506  1.0000
  C   C3        1.0  0.5399046098612268  0.5311637622983525  0.5312641213741313  1.0000
  C   C4        1.0  0.46505871584919795  0.4699352650355172  0.5173612125086655  1.0000
  C   C5        1.0  0.4029383076214049  0.5178150150469565  0.6053261396452976  1.0000
  C   C6        1.0  0.3286928475358816  0.5377875731305418  0.5434342260887319  1.0000
  C   C7        1.0  0.2701626284620455  0.5829291018803633  0.6266152404791896  1.0000
  C   C8        1.0  0.19449018353931893  0.6035530929151885  0.5622645206615786  1.0000
  N   N2        1.0  0.1336624141055741  0.6201276961368908  0.5105267161899678  1.0000
  C   C9        1.0  0.285385522320709  0.6083731286416978  0.7722521420219974  1.0000
  C   C10       1.0  0.35884740576193114  0.5888364637842088  0.8345737101056986  1.0000
  C   C11       1.0  0.41736561233291847  0.5438994141098656  0.7519003740137138  1.0000
  C   C12       1.0  0.4500307460788871  0.3625954787455708  0.41880806814572574  1.0000
  C   C13       1.0  0.5085481377573817  0.3175641613444631  0.33619056038392015  1.0000
  C   C14       1.0  0.582608129174685  0.37892285406208576  0.35070355073702336  1.0000
  H   H1        1.0  0.5524942810634429  0.6153446669260838  0.6051159127957046  1.0000
  H   H2        1.0  0.3165953565589896  0.5201630620238419  0.4302482153033724  1.0000
  H   H3        1.0  0.2405203374983774  0.6432534717686946  0.837501400393764  1.0000
  H   H4        1.0  0.37044212991273057  0.6081877020263526  0.9473439406562096  1.0000
  H   H5        1.0  0.4736039174595  0.5276947853824563  0.8030736299522945  1.0000
  H   H6        1.0  0.3932994128163294  0.31212955423795397  0.4070366476986491  1.0000
  H   H7        1.0  0.4964832290324862  0.23461182558472737  0.2610080004722539  1.0000
  H   H8        1.0  0.627466236427641  0.3430813675013127  0.28602232175843345  1.0000
  C   C15       1.0  0.9324889246550481  0.1866721323944407  0.49292653797442987  1.0000
  C   C16       1.0  0.918030532033917  0.2681091225421506  0.36140598832939563  1.0000
  C   C17       1.0  0.9108078578198437  0.20131690062692512  0.2309853960842445  1.0000
  C   C18       1.0  0.917993091876267  0.052363829226386376  0.22978737407964592  1.0000
  C   C19       1.0  0.9310709059645763  0.9692512827876131  0.35916658942588375  1.0000
  C   C20       1.0  0.9372375750707138  0.033972094505241086  0.49212955424483484  1.0000
  F   F1        1.0  0.8977162236450698  0.2816573256195307  0.10512453648474462  1.0000
  H   H9        1.0  0.010800426324439895  0.27255425031805536  0.8219692326606365  1.0000
  H   H10       1.0  0.9141187715669196  0.38452518873017816  0.359207034462227  1.0000
  H   H11       1.0  0.9126946386934913  0.0007408416118617236  0.12850218313644235  1.0000
  H   H12       1.0  0.9345475452022987  0.8532273579711528  0.3555201127212355  1.0000
  C   C21       1.0  0.9361368301072968  0.6066040668553119  0.0693791499206935  1.0000
  C   C22       1.0  0.9987977341408073  0.6724627706008234  0.14348939017737575  1.0000
  C   C23       1.0  0.057173586925849625  0.7487503921203391  0.06818709847193107  1.0000
  C   C24       1.0  0.0528751662840803  0.7595697880024795  0.9166591164822933  1.0000
  C   C25       1.0  0.9918173393333056  0.692967744185775  0.8414924281505519  1.0000
  C   C26       1.0  0.9335896564276489  0.6140401522368235  0.915676917342891  1.0000
  C   C27       1.0  0.12163949140010268  0.8175691973693371  0.14937550562700946  1.0000
  O   O1        1.0  0.1748155033199481  0.887387006357573  0.0847545001586898  1.0000
  H   H13       1.0  0.7538328643281893  0.5039264006362596  0.16437270136005955  1.0000
  H   H14       1.0  0.0013027465696160432  0.66723252193625  0.2607633571377217  1.0000
  H   H15       1.0  0.09712070768265256  0.8183966842595861  0.8559764402776957  1.0000
  H   H16       1.0  0.812028742836474  0.5390425067164413  0.6296829609471624  1.0000
  H   H17       1.0  0.12382473841984853  0.8085078035819075  0.2664938910743995  1.0000
  Zn  Zn1       1.0  0.8507971705968228  0.6061796822318544  0.4849164218620197  1.0000
  Zn  Zn2       1.0  0.018921963741436395  0.6144634865786449  0.5001383606796941  1.0000
  C   C28       1.0  0.9340371999429581  0.6068871558418364  0.7557138027806707  1.0000
  C   C29       1.0  0.9356837800889455  0.6137579249818069  0.22934128570270884  1.0000
  C   C30       1.0  0.9363532983555869  0.8737637201201929  0.48653773196381844  1.0000
  C   C31       1.0  0.933367614361635  0.34687962524111  0.4985174297796293  1.0000
  O   O2        1.0  0.9993341798986978  0.6192961917333786  0.28880269211488896  1.0000
  O   O3        1.0  0.9979896231359159  0.6076350129153554  0.7078050819412451  1.0000
  O   O4        1.0  0.9998590372975666  0.8231411844720422  0.4904434210072197  1.0000
  O   O5        1.0  0.9974647087504682  0.40379002672099584  0.506164239802666  1.0000
  O   O6        1.0  0.8722543682150824  0.8168531392641517  0.4788905375369666  1.0000
  O   O7        1.0  0.8703849639954044  0.601348700344453  0.696252120008842  1.0000
  O   O8        1.0  0.8717295257417839  0.6130098136685576  0.2772479977780635  1.0000
  O   O9        1.0  0.8698600542074243  0.39750363928651833  0.49460965351000774  1.0000
