data_image0
_chemical_formula_structural       NC9NC3NH7C7OCH10C7F3H5Zn2C4O8
_chemical_formula_sum              "N3 C31 H22 O9 F3 Zn2"
_cell_length_a       16.053384444249904
_cell_length_b       10.30083208314754
_cell_length_c       9.272721663655245
_cell_angle_alpha    85.8570081302309
_cell_angle_beta     90.31938989593549
_cell_angle_gamma    89.16926536021816

_space_group_name_H-M_alt    "P 1"
_space_group_IT_number       1

loop_
  _space_group_symop_operation_xyz
  'x, y, z'

loop_
  _atom_site_type_symbol
  _atom_site_label
  _atom_site_symmetry_multiplicity
  _atom_site_fract_x
  _atom_site_fract_y
  _atom_site_fract_z
  _atom_site_occupancy
  N   N1        1.0  0.7760677944713504  0.3960777686638351  0.40569426417354393  1.0000
  C   C1        1.0  0.7248853284913369  0.3748631751747607  0.32260120773175754  1.0000
  C   C2        1.0  0.6612797215193629  0.3485039205601028  0.21937937767088125  1.0000
  C   C3        1.0  0.6741488291576805  0.33572104062175834  0.07423525507726247  1.0000
  C   C4        1.0  0.5972269931511711  0.3101138960212211  0.016229351283745475  1.0000
  C   C5        1.0  0.5407141388523673  0.3086987529483982  0.12911275502668973  1.0000
  C   C6        1.0  0.4500046023527523  0.2848241491717065  0.11774507699293091  1.0000
  C   C7        1.0  0.3946437835226175  0.3280403837279289  0.22199072695405817  1.0000
  C   C8        1.0  0.3090405383665922  0.3053970272883684  0.21110255482038864  1.0000
  C   C9        1.0  0.25291312096760593  0.3503707769381279  0.31798099521781986  1.0000
  N   N2        1.0  0.207803254377649  0.3865233215117938  0.40389452344473686  1.0000
  C   C10       1.0  0.27807216819900726  0.23942553629299224  0.09598399691886161  1.0000
  C   C11       1.0  0.332425639702352  0.19633004857864012  0.9919733106636378  1.0000
  C   C12       1.0  0.4178206582755651  0.2188055515074696  0.002421232512844758  1.0000
  N   N3        1.0  0.580540282120658  0.3322715131433447  0.25295982884343293  1.0000
  H   H1        1.0  0.7325870164343207  0.34407649061040213  0.016924467687842618  1.0000
  H   H2        1.0  0.5843879428707702  0.2957951642709149  0.9039029194618715  1.0000
  H   H3        1.0  0.417415162592383  0.3809254975104752  0.3105684163564457  1.0000
  H   H4        1.0  0.2120027981174693  0.2214148992670022  0.08662841671966781  1.0000
  H   H5        1.0  0.308362474996985  0.14508528509268404  0.9031353631595676  1.0000
  H   H6        1.0  0.4585226284744211  0.1829687746534323  0.9211100303595169  1.0000
  H   H7        1.0  0.5549075445767745  0.33514010767536884  0.355946391413964  1.0000
  C   C13       1.0  0.991963545411772  0.009963956493822973  0.4049455758537264  1.0000
  C   C14       1.0  0.9680119271521581  0.019178698996322078  0.2586283400848526  1.0000
  C   C15       1.0  0.9549815342748285  0.9066950657593805  0.1853912314028534  1.0000
  C   C16       1.0  0.9679498071050039  0.7839192387058581  0.2582476123710755  1.0000
  C   C17       1.0  0.9919155490636774  0.7726270596785683  0.404655657205655  1.0000
  C   C18       1.0  0.0035868784934882663  0.8861905070884383  0.4772290360893518  1.0000
  C   C19       1.0  0.9317368127069969  0.9176937385123369  0.027763811118401763  1.0000
  O   O1        1.0  0.005299277928094479  0.9215701884051923  0.9450253357677534  1.0000
  C   C20       1.0  0.9843154559475725  0.9319227209826951  0.7967608897038212  1.0000
  H   H8        1.0  0.0020812341790390518  0.3338403649974415  0.46055140410010953  1.0000
  H   H9        1.0  0.9594095925540815  0.11376669822492481  0.20101916791555818  1.0000
  H   H10       1.0  0.9593040700275093  0.6973594799390027  0.2003770738087436  1.0000
  H   H11       1.0  0.022066458796354164  0.8783206661147523  0.5900709591922275  1.0000
  H   H12       1.0  0.03803651575871991  0.5440832946372455  0.68039981549471  1.0000
  H   H13       1.0  0.893256565035341  0.007696251065099078  0.003818340292226491  1.0000
  H   H14       1.0  0.8932882897337081  0.8326044332240957  0.0034875705543799774  1.0000
  H   H15       1.0  0.04267291211818436  0.9348533482094052  0.7331821007910015  1.0000
  H   H16       1.0  0.9486751050248705  0.023469558489452425  0.7668393681908845  1.0000
  H   H17       1.0  0.9486877218575771  0.8459854817770076  0.766481992203846  1.0000
  C   C21       1.0  0.9897354859909697  0.38923807974490293  0.9813673671677341  1.0000
  C   C22       1.0  0.025197792128873964  0.28223737333010446  0.06398228309535137  1.0000
  C   C23       1.0  0.06796123494392137  0.1827992910433525  0.9979364811627985  1.0000
  C   C24       1.0  0.07271006619974463  0.18867399723035747  0.8467645911052473  1.0000
  C   C25       1.0  0.03675420742556068  0.29298197133566095  0.7631844592292976  1.0000
  C   C26       1.0  0.994143600744472  0.3933529587924762  0.8282338166596563  1.0000
  C   C27       1.0  0.10362117734871612  0.06720609841344904  0.08817885728738184  1.0000
  F   F1        1.0  0.13167405619279737  0.10432675197615972  0.22028050570985533  1.0000
  F   F2        1.0  0.17002976642826406  0.012023744192327435  0.018802540563229938  1.0000
  F   F3        1.0  0.04246608582804856  0.975087915214176  0.11150506028764773  1.0000
  H   H18       1.0  0.9369096836450341  0.6996344347735557  0.05768933121744802  1.0000
  H   H19       1.0  0.021038402569919068  0.2777159799373483  0.1808470108375071  1.0000
  H   H20       1.0  0.10350630419490225  0.11170969880491441  0.7927573725660557  1.0000
  H   H21       1.0  0.040323974258223316  0.2933182933361142  0.646514802609329  1.0000
  H   H22       1.0  0.844632061834537  0.615686397161487  0.707482907293902  1.0000
  Zn  Zn1       1.0  0.9006573634528999  0.3933171387926744  0.4051832184773463  1.0000
  Zn  Zn2       1.0  0.08321372394544002  0.38927342914250224  0.4044173581439785  1.0000
  C   C28       1.0  0.993308822902563  0.3874019444925278  0.6681599163283727  1.0000
  C   C29       1.0  0.9905642586390525  0.3951902184536249  0.1414407928326482  1.0000
  C   C30       1.0  0.991890402428007  0.6284396768202312  0.3989644699411259  1.0000
  C   C31       1.0  0.9919826173182753  0.15415092770914904  0.4106363169498961  1.0000
  O   O2        1.0  0.06012159007386276  0.39564757857895355  0.19487225892318816  1.0000
  O   O3        1.0  0.06230754291606133  0.3838745206516027  0.6141467652574466  1.0000
  O   O4        1.0  0.061161224332161306  0.5785155658162013  0.3967695411019952  1.0000
  O   O5        1.0  0.0612678458003002  0.2010065435583106  0.41224937522152194  1.0000
  O   O6        1.0  0.9226031793004743  0.581584025758163  0.3973512016535685  1.0000
  O   O7        1.0  0.9237494973821418  0.3869445403916332  0.6147283483327834  1.0000
  O   O8        1.0  0.921563535574387  0.39871754464210324  0.19545210839505867  1.0000
  O   O9        1.0  0.9227097918607208  0.2040765008588008  0.4128293328042758  1.0000
