data_image0
_chemical_formula_structural       NC12NC2H8C7NH5C6NCH7Zn2C4O8
_chemical_formula_sum              "N4 C32 H20 Zn2 O8"
_cell_length_a       19.240039667572717
_cell_length_b       9.275154477615127
_cell_length_c       9.273390368590327
_cell_angle_alpha    86.39388611738053
_cell_angle_beta     89.99083702737411
_cell_angle_gamma    89.43370810513201

_space_group_name_H-M_alt    "P 1"
_space_group_IT_number       1

loop_
  _space_group_symop_operation_xyz
  'x, y, z'

loop_
  _atom_site_type_symbol
  _atom_site_label
  _atom_site_symmetry_multiplicity
  _atom_site_fract_x
  _atom_site_fract_y
  _atom_site_fract_z
  _atom_site_occupancy
  N   N1        1.0  0.6471613450167416  0.5610653593734369  0.4163810230335001  1.0000
  C   C1        1.0  0.5870129757667968  0.5610654516467133  0.41638093246781865  1.0000
  C   C2        1.0  0.5121949380246285  0.5610655802433635  0.4163807805997271  1.0000
  C   C3        1.0  0.4760476041594558  0.49071242374459195  0.5308670844305872  1.0000
  C   C4        1.0  0.4033774303755198  0.49059033950689246  0.530962641987987  1.0000
  C   C5        1.0  0.36586270262987  0.5610656803300367  0.4163805283169592  1.0000
  C   C6        1.0  0.40272365225469225  0.6315412310423939  0.3017986313864109  1.0000
  C   C7        1.0  0.47539491626294766  0.6314188867892336  0.3018943238572662  1.0000
  C   C8        1.0  0.2886576126198878  0.5610655918742093  0.4163804220709679  1.0000
  C   C9        1.0  0.252063036487465  0.435813342617688  0.46234840068165006  1.0000
  C   C10       1.0  0.17939179552461737  0.43593095067136  0.4622475170574804  1.0000
  C   C11       1.0  0.14232532637140347  0.561065449180149  0.41638048909946646  1.0000
  C   C12       1.0  0.06750728978293949  0.5610653258283896  0.41638076457178796  1.0000
  N   N2        1.0  0.007358973117276798  0.5610652829597855  0.4163809957054607  1.0000
  C   C13       1.0  0.1782063676811569  0.6862000312519932  0.3705134027768421  1.0000
  C   C14       1.0  0.25087651039049436  0.6863178373660688  0.37041233949559005  1.0000
  H   H1        1.0  0.5040150646665668  0.4362514577240684  0.6202566109142178  1.0000
  H   H2        1.0  0.3765323381558233  0.4370285697608063  0.6215937564739313  1.0000
  H   H3        1.0  0.37538221355035273  0.6851030302239602  0.2111674605861995  1.0000
  H   H4        1.0  0.5028572277102508  0.685879744743839  0.21250510302117198  1.0000
  H   H5        1.0  0.2796235396743555  0.3371975303853399  0.49654440137505884  1.0000
  H   H6        1.0  0.1521392784395512  0.33832560111303317  0.4975939468782739  1.0000
  H   H7        1.0  0.15002906144617528  0.7838053537401652  0.3351669889960507  1.0000
  H   H8        1.0  0.2775024856083015  0.7849337369752744  0.3362162894635738  1.0000
  C   C15       1.0  0.8292749608313542  0.13765832213209084  0.41471309008461876  1.0000
  C   C16       1.0  0.8102133320941365  0.21948743288112607  0.2876300067568729  1.0000
  C   C17       1.0  0.7854975345518355  0.1521705448776947  0.1672787049841553  1.0000
  C   C18       1.0  0.7794363374992912  0.002106474355126007  0.17259308901707948  1.0000
  C   C19       1.0  0.799142506589682  0.919038916860305  0.296779414475286  1.0000
  C   C20       1.0  0.8252520855691756  0.9844614085890655  0.418061354650233  1.0000
  C   C21       1.0  0.7655114246491089  0.23756519731758743  0.03866393923194744  1.0000
  N   N3        1.0  0.7494481364326017  0.306206941799368  0.9352906119430822  1.0000
  H   H9        1.0  0.8427065655810057  0.21808769158441677  0.7685104501493814  1.0000
  H   H10       1.0  0.8130523232037836  0.3364014029738285  0.2833533616424764  1.0000
  H   H11       1.0  0.7600703541676735  0.9489973195267986  0.0800955550073068  1.0000
  H   H12       1.0  0.7954928622310132  0.8025699737916008  0.2966525690733154  1.0000
  H   H13       1.0  0.8372455071691142  0.6882093387354041  0.6551156490198002  1.0000
  C   C22       1.0  0.8273170956371457  0.5565636241973293  0.9931236506196321  1.0000
  C   C23       1.0  0.8911658534462034  0.5536987726043039  0.0667147998627886  1.0000
  C   C24       1.0  0.9538375076133672  0.5642372742010471  0.9913416712988434  1.0000
  C   C25       1.0  0.9542521590938841  0.5780312363066682  0.8397682231814101  1.0000
  C   C26       1.0  0.890838587173719  0.5784645084832314  0.7653578575566731  1.0000
  C   C27       1.0  0.8272099634793338  0.5655561094290565  0.8396507409397616  1.0000
  N   N4        1.0  0.018090639175095232  0.5902298755014241  0.7590281754449592  1.0000
  C   C28       1.0  0.08671306189046546  0.5903998018144032  0.8260170353095966  1.0000
  H   H14       1.0  0.7179438740509614  0.48730434122333266  0.27868981425111755  1.0000
  H   H15       1.0  0.0017310996881736412  0.5629105271907968  0.05245742299043311  1.0000
  H   H16       1.0  0.6657670881178308  0.45354050485690234  0.7437167761940815  1.0000
  H   H17       1.0  0.015790124091188622  0.5997855572307003  0.6461901250042738  1.0000
  H   H18       1.0  0.09078438179884894  0.6828919633831275  0.8958512781886268  1.0000
  H   H19       1.0  0.09568060684232281  0.4873348813684182  0.891163459940675  1.0000
  H   H20       1.0  0.12739233140697226  0.6012998824660534  0.7411695610297991  1.0000
  Zn  Zn1       1.0  0.7511066261962439  0.5610615762178708  0.4163893109810639  1.0000
  Zn  Zn2       1.0  0.9034137650934471  0.5610574298776192  0.41638442447864576  1.0000
  C   C29       1.0  0.8272559365463731  0.5581123438498368  0.6796162903817866  1.0000
  C   C30       1.0  0.8272661092720107  0.5640084829471971  0.15315759368683257  1.0000
  C   C31       1.0  0.826009641128149  0.8243365664629295  0.4116847443934082  1.0000
  C   C32       1.0  0.8285123609382791  0.29778252885765233  0.4210892096721883  1.0000
  O   O1        1.0  0.8850487931212627  0.5664991817647103  0.2068645676346503  1.0000
  O   O2        1.0  0.8850708521926947  0.5556174059315157  0.6259051884766598  1.0000
  O   O3        1.0  0.8840636735227366  0.7705968484982177  0.40954857538369016  1.0000
  O   O4        1.0  0.8860559197837906  0.35151974836568356  0.42322107269847226  1.0000
  O   O5        1.0  0.7684644195309422  0.7705992577327108  0.40955266275532964  1.0000
  O   O6        1.0  0.7694715899778977  0.5556215466453638  0.6259092058454139  1.0000
  O   O7        1.0  0.7694495314107306  0.5665032538255818  0.20686685187902928  1.0000
  O   O8        1.0  0.7704566581057305  0.3515238112617829  0.42322346496609115  1.0000
