data_image0
_chemical_formula_structural       NC8NC6H8C6NCOC6H11C6NCOC6H11Zn2C4O8
_chemical_formula_sum              "N4 C44 H30 O10 Zn2"
_cell_length_a       17.457602349358154
_cell_length_b       10.29965916528486
_cell_length_c       10.299662537453274
_cell_angle_alpha    85.55779495060091
_cell_angle_beta     92.86302956752768
_cell_angle_gamma    91.70433465767697

_space_group_name_H-M_alt    "P 1"
_space_group_IT_number       1

loop_
  _space_group_symop_operation_xyz
  'x, y, z'

loop_
  _atom_site_type_symbol
  _atom_site_label
  _atom_site_symmetry_multiplicity
  _atom_site_fract_x
  _atom_site_fract_y
  _atom_site_fract_z
  _atom_site_occupancy
  N   N1        1.0  0.7228722399659406  0.4533207336401246  0.6269769861233447  1.0000
  C   C1        1.0  0.6617876537125037  0.40740043345629423  0.6163459300311458  1.0000
  C   C2        1.0  0.58579584506915  0.3502812906994926  0.6031304401869126  1.0000
  C   C3        1.0  0.5272639455407452  0.3904141317531282  0.6780420599308936  1.0000
  C   C4        1.0  0.4527105092361642  0.33541297795106706  0.665441716326898  1.0000
  C   C5        1.0  0.390587497648439  0.37778725747042113  0.7447759203083764  1.0000
  C   C6        1.0  0.316051825420026  0.3962762946472589  0.6890180881861405  1.0000
  C   C7        1.0  0.2575198755596763  0.4362251732416907  0.7640376014327097  1.0000
  C   C8        1.0  0.1815464620751796  0.4553208858647866  0.7060644914597789  1.0000
  N   N2        1.0  0.12047675299150461  0.4706674591872724  0.659454259972726  1.0000
  C   C9        1.0  0.2730314077924983  0.45792795973514117  0.8953235492483433  1.0000
  C   C10       1.0  0.3467823911275215  0.4398277554715977  0.9514691117669405  1.0000
  C   C11       1.0  0.4053027045131657  0.4000587551854918  0.8769073833232363  1.0000
  C   C12       1.0  0.4379776969579967  0.23960211694022318  0.5764965967593447  1.0000
  C   C13       1.0  0.49649787222606884  0.19974779963945055  0.5019850760961984  1.0000
  C   C14       1.0  0.5702664865691024  0.25486111964693237  0.5151354112734572  1.0000
  H   H1        1.0  0.5396120569662209  0.46558186620607267  0.7446982747798578  1.0000
  H   H2        1.0  0.30371830906441843  0.38134474913849614  0.5869878092723906  1.0000
  H   H3        1.0  0.2281677486705894  0.4887879504550168  0.9541701155101199  1.0000
  H   H4        1.0  0.358602523701887  0.4563170709310991  0.05312664420905955  1.0000
  H   H5        1.0  0.4617792800566848  0.38504987612351926  0.923009233761631  1.0000
  H   H6        1.0  0.3814864980400526  0.19427148673967023  0.5658296192342664  1.0000
  H   H7        1.0  0.4846639340857031  0.1256969558768697  0.4341309009101366  1.0000
  H   H8        1.0  0.6151299649543002  0.2231312557902232  0.45679968541107585  1.0000
  C   C15       1.0  0.9216106951143732  0.08063065321298393  0.6430949331386571  1.0000
  C   C16       1.0  0.922151207727921  0.08998650037435543  0.5063225732422234  1.0000
  C   C17       1.0  0.9235548030863301  0.9779129960537158  0.43760136666629273  1.0000
  C   C18       1.0  0.9222957178205632  0.8548024010827391  0.50663076258966  1.0000
  C   C19       1.0  0.9217456139050965  0.8433477974149731  0.6433481152375902  1.0000
  C   C20       1.0  0.9216761753241082  0.9568819870998244  0.7108305645983573  1.0000
  N   N3        1.0  0.9229288245665007  0.9910110220395448  0.29748357452025576  1.0000
  C   C21       1.0  0.9589025610098568  0.9014815290927158  0.22069558254541954  1.0000
  O   O1        1.0  0.011821544062814441  0.8309539996679829  0.27199634769620884  1.0000
  C   C22       1.0  0.9366219141461081  0.8943647929926372  0.08050890227824903  1.0000
  C   C23       1.0  0.8656864327488156  0.9411447156599946  0.028368786399099566  1.0000
  C   C24       1.0  0.8451463635032149  0.933284232486524  0.8961679180097545  1.0000
  C   C25       1.0  0.8948273241806035  0.8783968237963581  0.8147690492875306  1.0000
  C   C26       1.0  0.9650876292312573  0.830800440151736  0.8654777910257322  1.0000
  C   C27       1.0  0.9859205990557045  0.8383174087049381  0.9975981092743016  1.0000
  H   H9        1.0  0.919858843635804  0.27021442902049486  0.9010316334278184  1.0000
  H   H10       1.0  0.9220704425006814  0.18461249164720384  0.45249280326854513  1.0000
  H   H11       1.0  0.9203977965913263  0.7679488289865237  0.45367022707960397  1.0000
  H   H12       1.0  0.9212697597406204  0.9488047442873307  0.8162674577514148  1.0000
  H   H13       1.0  0.920513904294597  0.5114601993062519  0.6957091647449043  1.0000
  H   H14       1.0  0.901044804965591  0.07620646139417508  0.24975546367194632  1.0000
  H   H15       1.0  0.8254743072585983  0.982062932187753  0.08956672031249857  1.0000
  H   H16       1.0  0.7904748076487493  0.9693454090831835  0.8569163660902768  1.0000
  H   H17       1.0  0.8787748139212699  0.8723771186496245  0.7125000359043927  1.0000
  H   H18       1.0  0.003484763476022673  0.7880079278076974  0.8023678796850948  1.0000
  H   H19       1.0  0.04078458459609147  0.8010793414154809  0.03464666434792618  1.0000
  C   C28       1.0  0.9217309981126678  0.4621320719803677  0.26184991449924966  1.0000
  C   C29       1.0  5.371240890528076e-05  0.49792294008562804  0.2644437926696561  1.0000
  C   C30       1.0  0.03973444103080093  0.5140788665961131  0.14908492350966696  1.0000
  C   C31       1.0  0.9999194105613649  0.49760701482196495  0.02928942755273289  1.0000
  C   C32       1.0  0.9216253459988588  0.4618464002594125  0.02459315166644016  1.0000
  C   C33       1.0  0.8830386011722241  0.4438691556452323  0.14148314992317235  1.0000
  N   N4        1.0  0.11963158860589408  0.5526493691378234  0.15513867480510135  1.0000
  C   C34       1.0  0.17392290206825756  0.5151688949998618  0.06534766044476603  1.0000
  O   O2        1.0  0.1599124552892218  0.4160017659634299  0.0026204425036795436  1.0000
  C   C35       1.0  0.2475952727428521  0.5887101209374421  0.049037287786071415  1.0000
  C   C36       1.0  0.2568736413070747  0.7171821432092674  0.08618964480492064  1.0000
  C   C37       1.0  0.3264855881177924  0.7857731634338921  0.06970593589955953  1.0000
  C   C38       1.0  0.38737721663239055  0.7274041680578305  0.015685495945169544  1.0000
  C   C39       1.0  0.3787216485368335  0.6004056664094553  0.9775785020747184  1.0000
  C   C40       1.0  0.30924043098318377  0.5313633282963361  0.9937436646663009  1.0000
  H   H20       1.0  0.773811560586732  0.3958169330164678  0.46411336204289566  1.0000
  H   H21       1.0  0.0307944229118049  0.5124829557910544  0.3563793391514001  1.0000
  H   H22       1.0  0.029637656467456967  0.5148671083789611  0.9396087520126284  1.0000
  H   H23       1.0  0.8226630384926532  0.4162615845982247  0.138619642509765  1.0000
  H   H24       1.0  0.8913443405416664  0.44979851505181223  0.6951927481692852  1.0000
  H   H25       1.0  0.14057804660158182  0.6007659326988903  0.2357872102051033  1.0000
  H   H26       1.0  0.21026616088783656  0.7656827865670377  0.12617253458285416  1.0000
  H   H27       1.0  0.3331028565737595  0.8845390924239039  0.09839357425475438  1.0000
  H   H28       1.0  0.44118105637707683  0.7807284565628337  0.00297899156359005  1.0000
  H   H29       1.0  0.42589682313623534  0.5553470205272342  0.9354460872671283  1.0000
  H   H30       1.0  0.30393784233151167  0.4328773720078116  0.9637884457502394  1.0000
  Zn  Zn1       1.0  0.8376123120721958  0.4583231384610569  0.6363567231741283  1.0000
  Zn  Zn2       1.0  0.005736663278560259  0.4656544027132981  0.6500851519900674  1.0000
  C   C41       1.0  0.9216426700174702  0.4567267284972403  0.8804164949593747  1.0000
  C   C42       1.0  0.9217081415181945  0.46725253128322014  0.4060256581301722  1.0000
  C   C43       1.0  0.9217168892965819  0.69917981622593  0.6381247469812545  1.0000
  C   C44       1.0  0.9216338645843734  0.22479788074619322  0.64831747014488  1.0000
  O   O3        1.0  0.9855027847293841  0.47174751511557345  0.4596222200628519  1.0000
  O   O4        1.0  0.9854505191177058  0.4577950250296419  0.8372391186698419  1.0000
  O   O5        1.0  0.9855095918514032  0.6535789215975372  0.6415867481389592  1.0000
  O   O6        1.0  0.985443654641369  0.27596362537257524  0.6552744885368769  1.0000
  O   O7        1.0  0.8579052633367983  0.6480139133013956  0.6311673819356489  1.0000
  O   O8        1.0  0.8578461908852224  0.4522315770414527  0.8268196837382743  1.0000
  O   O9        1.0  0.8578984567562473  0.4661840224590472  0.44920122370865817  1.0000
  O   O10       1.0  0.8578393266499617  0.2704001233907678  0.6448535895478714  1.0000
