data_image0
_chemical_formula_structural       NC8NH4C6BrH5C6NCOH5Zn2C4O8
_chemical_formula_sum              "N3 C25 H14 Br1 O9 Zn2"
_cell_length_a       13.859017124695912
_cell_length_b       9.276564384272257
_cell_length_c       9.27373355559583
_cell_angle_alpha    86.1252681461469
_cell_angle_beta     90.01104731116409
_cell_angle_gamma    90.58596084768166

_space_group_name_H-M_alt    "P 1"
_space_group_IT_number       1

loop_
  _space_group_symop_operation_xyz
  'x, y, z'

loop_
  _atom_site_type_symbol
  _atom_site_label
  _atom_site_symmetry_multiplicity
  _atom_site_fract_x
  _atom_site_fract_y
  _atom_site_fract_z
  _atom_site_occupancy
  N   N1        1.0  0.9190706830763107  0.5611494444131888  0.4089432217710669  1.0000
  C   C1        1.0  0.8465483337780078  0.5376884650725613  0.3528052990665955  1.0000
  C   C2        1.0  0.7563348515258295  0.5085064292261341  0.2829769377634068  1.0000
  C   C3        1.0  0.6689231886606413  0.536955943766749  0.3510508039797595  1.0000
  C   C4        1.0  0.5811045399391626  0.5085076487778399  0.2829763574904998  1.0000
  C   C5        1.0  0.5808799074557167  0.45160211538388095  0.14680714815932494  1.0000
  C   C6        1.0  0.6681097924011917  0.4232619492995089  0.07899531661087278  1.0000
  C   C7        1.0  0.7557452504876743  0.45159977867735  0.1468083283682345  1.0000
  C   C8        1.0  0.4913085013009578  0.5376893862397042  0.3528048003203599  1.0000
  N   N2        1.0  0.41912181082902755  0.5611497646904209  0.4089430055122554  1.0000
  H   H1        1.0  0.66923826836676  0.5810030277348992  0.4564490336294958  1.0000
  H   H2        1.0  0.5134242999852194  0.4292112469505114  0.09322556175409671  1.0000
  H   H3        1.0  0.6677954219538765  0.379304818987829  0.9738105355432327  1.0000
  H   H4        1.0  0.8228804865863356  0.42920682033368585  0.09322774285887458  1.0000
  C   C9        1.0  0.16619386057818986  0.1376726088125677  0.4093116703839803  1.0000
  C   C10       1.0  0.15380184199729663  0.21975777968997945  0.2775879232215561  1.0000
  C   C11       1.0  0.15038986956626688  0.15336800774722414  0.14709453809716977  1.0000
  C   C12       1.0  0.15934797176535323  0.003947461764733266  0.14584709992062983  1.0000
  C   C13       1.0  0.17003975300915197  0.9201475769166939  0.27557896220615846  1.0000
  C   C14       1.0  0.17200779513825237  0.9846156358298942  0.4085870014588802  1.0000
  Br  Br1       1.0  0.15538960582185088  0.9136674044605263  0.9667873753583517  1.0000
  H   H5        1.0  0.13794730614766393  0.40274039031017045  0.6436203792222019  1.0000
  H   H6        1.0  0.14903966872222907  0.3363876810987283  0.27512059140579354  1.0000
  H   H7        1.0  0.1416986714060453  0.21851051017105894  0.046704906805719267  1.0000
  H   H8        1.0  0.1745035408967881  0.803874240000337  0.2724717074458751  1.0000
  H   H9        1.0  0.22528147565090784  0.6890927508407717  0.6330533417013817  1.0000
  C   C15       1.0  0.16901442431049588  0.5566006513896216  0.9857262424164412  1.0000
  C   C16       1.0  0.0802744329840821  0.5483235872968462  0.059684825706496136  1.0000
  C   C17       1.0  0.9924921589979844  0.551733117498377  0.9847324624176557  1.0000
  C   C18       1.0  0.9934563351248995  0.5681072551070535  0.833370717839109  1.0000
  C   C19       1.0  0.08073069874098127  0.5742324416941715  0.7582099837494107  1.0000
  C   C20       1.0  0.16918722338957592  0.5656876021533435  0.8321725002889433  1.0000
  N   N3        1.0  0.9034882914812522  0.5466751894015178  0.0647513149404626  1.0000
  C   C21       1.0  0.8161017527736614  0.48026861207380045  0.018025746801125786  1.0000
  O   O1        1.0  0.8150704912890137  0.40395258721689875  0.910740209818807  1.0000
  H   H10       1.0  0.39707623604498765  0.6567347537405543  0.08195391643336093  1.0000
  H   H11       1.0  0.926884245605974  0.5777086684121643  0.7727479197502315  1.0000
  H   H12       1.0  0.323509711331015  0.6270344655692439  0.5470137064557671  1.0000
  H   H13       1.0  0.9034059479672001  0.585018801112305  0.16813750734613198  1.0000
  H   H14       1.0  0.7502353394262162  0.4923626291533875  0.07843626913551915  1.0000
  Zn  Zn1       1.0  0.06337461512583942  0.5611457760631144  0.40895148981980434  1.0000
  Zn  Zn2       1.0  0.2748177928043616  0.5611417963018341  0.4089465681983788  1.0000
  C   C22       1.0  0.16911297307971274  0.5582250687234052  0.6721809294473522  1.0000
  C   C23       1.0  0.16908175632275046  0.5640643246614572  0.14571726841588362  1.0000
  C   C24       1.0  0.17090269530024949  0.8244637433033131  0.4029808856463102  1.0000
  C   C25       1.0  0.1672919500736394  0.29782391832723865  0.4149173905383341  1.0000
  O   O2        1.0  0.24934589435737475  0.5665613999803618  0.19940985593035832  1.0000
  O   O3        1.0  0.24932930688831  0.555723880507133  0.6184841925922462  1.0000
  O   O4        1.0  0.25077344882652386  0.7707149933862838  0.4011032513302213  1.0000
  O   O5        1.0  0.2479016803166818  0.3515702962584695  0.416790689123963  1.0000
  O   O6        1.0  0.09029065545834936  0.7707172761093266  0.40110736888831733  1.0000
  O   O7        1.0  0.08884652539353954  0.555727894987333  0.6184882318230315  1.0000
  O   O8        1.0  0.08886311222806721  0.5665653456058026  0.19941216244396553  1.0000
  O   O9        1.0  0.08741889813468351  0.35157423272949795  0.4167931037000883  1.0000
