data_image0
_chemical_formula_structural       NC6NC2H4C6NCH9C9H8Zn2C4O8
_chemical_formula_sum              "N3 C28 H21 Zn2 O8"
_cell_length_a       14.927258858638513
_cell_length_b       9.273386996610927
_cell_length_c       9.275155815604963
_cell_angle_alpha    85.96204841331945
_cell_angle_beta     90.35750032956715
_cell_angle_gamma    89.39858807063658

_space_group_name_H-M_alt    "P 1"
_space_group_IT_number       1

loop_
  _space_group_symop_operation_xyz
  'x, y, z'

loop_
  _atom_site_type_symbol
  _atom_site_label
  _atom_site_symmetry_multiplicity
  _atom_site_fract_x
  _atom_site_fract_y
  _atom_site_fract_z
  _atom_site_occupancy
  N   N1        1.0  0.8271890864237559  0.5651545193297876  0.4076698334183211  1.0000
  C   C1        1.0  0.7496625954826952  0.5651544909002646  0.40766984405152307  1.0000
  C   C2        1.0  0.6532300869963922  0.5651546056136301  0.4076697940134577  1.0000
  C   C3        1.0  0.6058484767227066  0.5403633350846755  0.28105202633852855  1.0000
  C   C4        1.0  0.5121371647019742  0.5403633595808579  0.28105189286890075  1.0000
  C   C5        1.0  0.46541402423520173  0.5651544281551906  0.4076698129306513  1.0000
  C   C6        1.0  0.36898144875732103  0.5651545428714699  0.4076697628866577  1.0000
  N   N2        1.0  0.29145495781625996  0.565154514441947  0.4076697735198598  1.0000
  C   C7        1.0  0.5127955675173096  0.5899456986870595  0.5342875805996528  1.0000
  C   C8        1.0  0.6065068795380416  0.5899456741908768  0.5342877140692808  1.0000
  H   H1        1.0  0.6412885091361312  0.5210743277555767  0.18253613610500508  1.0000
  H   H2        1.0  0.4761848523163227  0.5210745253272955  0.18253613084581155  1.0000
  H   H3        1.0  0.4773556025719665  0.6092346966256783  0.6328035789104236  1.0000
  H   H4        1.0  0.642459191706257  0.6092346067588426  0.6328035859358103  1.0000
  C   C9        1.0  0.06208382023327986  0.14150662025936778  0.40837803131816086  1.0000
  C   C10       1.0  0.07731543989325096  0.2238594354403625  0.2780659407138499  1.0000
  C   C11       1.0  0.08411219702221036  0.15823369310475455  0.1477457954469772  1.0000
  C   C12       1.0  0.07577495016503183  0.007904250869238853  0.14440575741420078  1.0000
  C   C13       1.0  0.06212030624985343  0.9245846209187658  0.27426517289145197  1.0000
  C   C14       1.0  0.056568914061524006  0.9887913806893754  0.40697410777592924  1.0000
  N   N3        1.0  0.0818041193724366  0.9372189015165877  0.011395023915570901  1.0000
  C   C15       1.0  0.09619015778658602  0.013903613829978623  0.8707533846058486  1.0000
  H   H5        1.0  0.08129041644396251  0.4056900447334472  0.6449935957547959  1.0000
  H   H6        1.0  0.08187790182130766  0.3404900937248436  0.2762977634292014  1.0000
  H   H7        1.0  0.09503541807359753  0.22599232047011308  0.049848892129949585  1.0000
  H   H8        1.0  0.0578832011875996  0.8081639619950279  0.2719915727222135  1.0000
  H   H9        1.0  0.09089481254674711  0.8604539260902325  0.7580023678414661  1.0000
  H   H10       1.0  0.07548208730675657  0.8248775294345885  0.014383629100325418  1.0000
  H   H11       1.0  0.0405589003654443  0.09226142360515978  0.8457124980990715  1.0000
  H   H12       1.0  0.16103197344162556  0.07145736231161683  0.8709859446101285  1.0000
  H   H13       1.0  0.09812235885101481  0.9357318769901809  0.7854315035576453  1.0000
  C   C16       1.0  0.05770872405885611  0.5615024382836871  0.9844508630612813  1.0000
  C   C17       1.0  0.9871703383068483  0.6317979229635677  0.05214925932384285  1.0000
  C   C18       1.0  0.9225699154214841  0.7116813512499502  0.9707321275653001  1.0000
  C   C19       1.0  0.9273086179308727  0.7229420664290069  0.8201316706331419  1.0000
  C   C20       1.0  0.9960493078141348  0.6518714685808933  0.7507261940943297  1.0000
  C   C21       1.0  0.060944010554218726  0.5687955360583756  0.8309012036311243  1.0000
  C   C22       1.0  0.8608754160090747  0.8061959510576053  0.7363963357608889  1.0000
  C   C23       1.0  0.8052495535695868  0.875909710013022  0.6662527782950258  1.0000
  C   C24       1.0  0.7377575671692193  0.9604955692536499  0.5811339546589132  1.0000
  H   H14       1.0  0.26639957214863874  0.44510653158164387  0.09760156351884651  1.0000
  H   H15       1.0  0.9831716340860543  0.6277988486467057  0.16894742423958983  1.0000
  H   H16       1.0  0.8693518836417289  0.7659051401988697  0.025455312716583967  1.0000
  H   H17       1.0  0.9976603610719725  0.6586552977554374  0.6335686572251258  1.0000
  H   H18       1.0  0.20022898627230845  0.4852501098473665  0.5574572407270701  1.0000
  H   H19       1.0  0.7559347813336402  0.9646405927954869  0.4651280969922538  1.0000
  H   H20       1.0  0.6713714717518494  0.9091227033900413  0.5962453660266998  1.0000
  H   H21       1.0  0.7347653170989769  0.07189221305972639  0.6174540969027732  1.0000
  Zn  Zn1       1.0  0.9611662531843288  0.5651507239604241  0.40767815025293386  1.0000
  Zn  Zn2       1.0  0.157477924040773  0.565146594820946  0.4076732987662443  1.0000
  C   C25       1.0  0.060367895130218036  0.5616697811684528  0.670913522962592  1.0000
  C   C26       1.0  0.058278414504894904  0.5686293590655664  0.14443806444364382  1.0000
  C   C27       1.0  0.057584801038516514  0.8285870554551732  0.40149629510784796  1.0000
  C   C28       1.0  0.06106145318456882  0.30171035216269093  0.4138553720098488  1.0000
  O   O1        1.0  0.13296890479194654  0.5710133579459185  0.19812940004370594  1.0000
  O   O2        1.0  0.13467342617846637  0.5592815564564164  0.6172180921231067  1.0000
  O   O3        1.0  0.1324250439446926  0.7748206440057839  0.3996617719980373  1.0000
  O   O4        1.0  0.13521721955763827  0.35547427978703094  0.41568561209152777  1.0000
  O   O5        1.0  0.9834268906758861  0.7748230389972532  0.39966583692172253  1.0000
  O   O6        1.0  0.9856752613301095  0.5592856840669549  0.6172220773294037  1.0000
  O   O7        1.0  0.9839707337074003  0.5710174203535685  0.19813165256463838  1.0000
  O   O8        1.0  0.9862190489495962  0.35547833280711494  0.41568797268378077  1.0000
