data_image0
_chemical_formula_structural       NC10NC3NCH9C13OH12C13NH13Zn2C4O8
_chemical_formula_sum              "N4 C44 H34 O9 Zn2"
_cell_length_a       19.437513618241372
_cell_length_b       10.29915010939255
_cell_length_c       10.299780419254978
_cell_angle_alpha    85.552664501727
_cell_angle_beta     90.33405371402337
_cell_angle_gamma    89.50394211810362

_space_group_name_H-M_alt    "P 1"
_space_group_IT_number       1

loop_
  _space_group_symop_operation_xyz
  'x, y, z'

loop_
  _atom_site_type_symbol
  _atom_site_label
  _atom_site_symmetry_multiplicity
  _atom_site_fract_x
  _atom_site_fract_y
  _atom_site_fract_z
  _atom_site_occupancy
  N   N1        1.0  0.647779970249874  0.41028573496474396  0.5752961517498996  1.0000
  C   C1        1.0  0.5888440057559242  0.42729658154380945  0.5723155672662894  1.0000
  C   C2        1.0  0.5154002473184593  0.4485500806638958  0.5686158422772263  1.0000
  C   C3        1.0  0.4736558904198779  0.34735068991627815  0.5569849224691066  1.0000
  C   C4        1.0  0.39776482137986013  0.3574150816567793  0.549761086401414  1.0000
  C   C5        1.0  0.3581715332149256  0.4382799025619241  0.6154786893644544  1.0000
  C   C6        1.0  0.28199144521097746  0.42966968866239674  0.6070372962934747  1.0000
  C   C7        1.0  0.248875732104523  0.3083166444547807  0.6117139504949374  1.0000
  C   C8        1.0  0.1771426986296816  0.3019433052257841  0.6045479342478292  1.0000
  C   C9        1.0  0.1375548031361198  0.4164503450772352  0.5930676114670171  1.0000
  C   C10       1.0  0.0637073667281138  0.4097387748992387  0.5857336037754434  1.0000
  N   N2        1.0  0.004339125749658696  0.40434326265554077  0.5798375198160963  1.0000
  C   C11       1.0  0.16995391426885303  0.5374929070618482  0.5891362893781221  1.0000
  C   C12       1.0  0.241671304979589  0.5441202658085189  0.5963642545508099  1.0000
  C   C13       1.0  0.38683299223337486  0.530585003956922  0.7053696089191568  1.0000
  N   N3        1.0  0.44380917322009683  0.5937992528536329  0.6849487961282056  1.0000
  C   C14       1.0  0.48765977727408494  0.5845210383781507  0.5718483009119091  1.0000
  H   H1        1.0  0.49605644844390895  0.2522856616030238  0.5448904098034492  1.0000
  H   H2        1.0  0.3730663859386407  0.2878893011698136  0.4914644441836762  1.0000
  H   H3        1.0  0.2783400634762913  0.2183997439116152  0.6227591471984221  1.0000
  H   H4        1.0  0.15256436674541474  0.2077106459291442  0.6084609294489429  1.0000
  H   H5        1.0  0.1398042381902934  0.6267551833117346  0.5804033287573596  1.0000
  H   H6        1.0  0.2657680482607156  0.6387657529780806  0.592435686365175  1.0000
  H   H7        1.0  0.3568202179205326  0.5509841962518998  0.7897272734587713  1.0000
  H   H8        1.0  0.5304003807413085  0.6548394967877647  0.5775920855374026  1.0000
  H   H9        1.0  0.4579947162907914  0.6126188735998976  0.48119859572048296  1.0000
  C   C15       1.0  0.8261276724326454  0.025913722499967713  0.5777118419133208  1.0000
  C   C16       1.0  0.8248435516219769  0.014159767143557827  0.7145003996104053  1.0000
  C   C17       1.0  0.8241326435809454  0.8910666039239324  0.783590656557801  1.0000
  C   C18       1.0  0.8247109477427108  0.778906555847622  0.7141353311303613  1.0000
  C   C19       1.0  0.8259980183044422  0.7887050740583155  0.5774332063017957  1.0000
  C   C20       1.0  0.826700751354844  0.9126693346242304  0.5100203624258537  1.0000
  C   C21       1.0  0.8227682017364378  0.8796140830737766  0.9282072461031232  1.0000
  C   C22       1.0  0.7804542812640425  0.7874533899323111  0.9956868237797094  1.0000
  C   C23       1.0  0.7791475490221351  0.7767583684486381  0.13177059969181357  1.0000
  C   C24       1.0  0.8205823700203396  0.8570587933447278  0.20284063775217406  1.0000
  C   C25       1.0  0.8622379828917985  0.9501842280115699  0.13599521966665507  1.0000
  C   C26       1.0  0.863560685632852  0.9610547802966953  0.9999113584656731  1.0000
  C   C27       1.0  0.8177315876982062  0.847944629054354  0.34888438894201756  1.0000
  O   O1        1.0  0.7663040833478647  0.9319856227201038  0.3884683161011011  1.0000
  H   H10       1.0  0.828104528709269  0.2554001495408489  0.3195113360887669  1.0000
  H   H11       1.0  0.8234395327051879  0.1009663840610917  0.7674888410205114  1.0000
  H   H12       1.0  0.8250969919034876  0.6837873276469748  0.7669715168984512  1.0000
  H   H13       1.0  0.8276915605836742  0.9209434659290331  0.40457789829794  1.0000
  H   H14       1.0  0.8264467632874182  0.46499923159214973  0.5248521848782052  1.0000
  H   H15       1.0  0.7475579853726699  0.7249835103610333  0.9431613535766988  1.0000
  H   H16       1.0  0.7456733723937415  0.7059958224943379  0.18171766784852617  1.0000
  H   H17       1.0  0.8938668901954823  0.014228336510018204  0.18925072149893496  1.0000
  H   H18       1.0  0.8970578148408241  0.032262523800898675  0.9507711916226946  1.0000
  H   H19       1.0  0.8683341606398615  0.8749377771628433  0.38969719918059165  1.0000
  H   H20       1.0  0.8065461647036735  0.7461166440181567  0.38655289765341694  1.0000
  H   H21       1.0  0.7665470287904418  0.9223219427512306  0.48509398360210154  1.0000
  C   C28       1.0  0.8261097081442285  0.40722375997388216  0.1962189862782988  1.0000
  C   C29       1.0  0.8759052140199584  0.5054309717171198  0.18815568445806383  1.0000
  C   C30       1.0  0.9010839262175192  0.5552895207509004  0.06692531497745535  1.0000
  C   C31       1.0  0.8758106924423497  0.5056047935451391  0.9528542421432967  1.0000
  C   C32       1.0  0.8260160043359001  0.40739504862455456  0.9589260019418115  1.0000
  C   C33       1.0  0.8014424557124123  0.35875793641776393  0.08106605420385127  1.0000
  C   C34       1.0  0.9537656159762048  0.6591817040149145  0.05948664102159662  1.0000
  C   C35       1.0  0.9490969450386437  0.7638455823410555  0.9635628999397253  1.0000
  C   C36       1.0  0.9987044697252391  0.8615433439089286  0.9566474414507393  1.0000
  C   C37       1.0  0.05354800343076116  0.8569259114982647  0.04602178653242439  1.0000
  C   C38       1.0  0.058876265651869764  0.7519721804022619  0.140897257410469  1.0000
  C   C39       1.0  0.0092829706041031  0.6542494807127659  0.14798567677965768  1.0000
  C   C40       1.0  0.1078595691470523  0.9602468827485315  0.03622025081557821  1.0000
  N   N4        1.0  0.16060708837509097  0.9267132252511341  0.9440260616533971  1.0000
  H   H22       1.0  0.8071632576108976  0.36975488126652967  0.5267486737841147  1.0000
  H   H23       1.0  0.8945482103491278  0.5446292963135841  0.2762486679711631  1.0000
  H   H24       1.0  0.8957490878937229  0.5424304703416123  0.8592872007820915  1.0000
  H   H25       1.0  0.763027719741426  0.28299449399114596  0.0865179636297597  1.0000
  H   H26       1.0  0.8070288870566509  0.369995848056182  0.6337841365861805  1.0000
  H   H27       1.0  0.9066646714438072  0.7708996953531202  0.8947184417646175  1.0000
  H   H28       1.0  0.9942597488843401  0.9410238926546342  0.8817227327760135  1.0000
  H   H29       1.0  0.10156390371537484  0.745566123034525  0.20921820682736111  1.0000
  H   H30       1.0  0.014926976825653021  0.5737317046917287  0.22146014229130756  1.0000
  H   H31       1.0  0.08407078384457578  0.05567748190115739  0.0026022134991041663  1.0000
  H   H32       1.0  0.13158398716916486  0.9711627312603902  0.13337499909209205  1.0000
  H   H33       1.0  0.19531226094437648  0.0038325187376666643  0.9345003635128276  1.0000
  H   H34       1.0  0.1882226300995753  0.8459431666336293  0.9851794279838262  1.0000
  Zn  Zn1       1.0  0.7506752456044911  0.4085673780007868  0.5766142024009743  1.0000
  Zn  Zn2       1.0  0.9014438571073794  0.4060509515782127  0.5785301425050404  1.0000
  C   C41       1.0  0.8260330417647764  0.40218861643775106  0.8147599451333403  1.0000
  C   C42       1.0  0.8260877070414343  0.41243132444669905  0.34038454755732794  1.0000
  C   C43       1.0  0.8260196197461656  0.6445202070159478  0.5723108480633459  1.0000
  C   C44       1.0  0.8261010778699811  0.1700981743101468  0.5828337137794302  1.0000
  O   O2        1.0  0.8832962265615871  0.4132183937290619  0.38949491824566923  1.0000
  O   O3        1.0  0.8832544100395947  0.39949065783869075  0.7671033551791342  1.0000
  O   O4        1.0  0.8832428001261543  0.5951764951086138  0.5713239836325298  1.0000
  O   O5        1.0  0.8833077850382994  0.21753256658694847  0.5852741917643602  1.0000
  O   O6        1.0  0.7688112662236439  0.5970857638521962  0.5698701524810065  1.0000
  O   O7        1.0  0.7688228758772211  0.4014014870007736  0.7656494542148564  1.0000
  O   O8        1.0  0.7688646926445324  0.4151291772799263  0.38803945596082307  1.0000
  O   O9        1.0  0.7688762511080455  0.21944334087014816  0.5838188268467805  1.0000
