data_image0
_chemical_formula_structural       NC8NC6H8C12H9C14H9Zn2C4O8
_chemical_formula_sum              "N2 C44 H26 Zn2 O8"
_cell_length_a       11.044818498471832
_cell_length_b       14.994057918209652
_cell_length_c       14.390576945434873
_cell_angle_alpha    84.0723446781622
_cell_angle_beta     92.10723058329312
_cell_angle_gamma    89.99747997979068

_space_group_name_H-M_alt    "P 1"
_space_group_IT_number       1

loop_
  _space_group_symop_operation_xyz
  'x, y, z'

loop_
  _atom_site_type_symbol
  _atom_site_label
  _atom_site_symmetry_multiplicity
  _atom_site_fract_x
  _atom_site_fract_y
  _atom_site_fract_z
  _atom_site_occupancy
  N   N1        1.0  0.09070205431383303  0.0022194550022851603  0.9717218893605347  1.0000
  C   C1        1.0  0.033575174536249815  0.04808944614985622  0.9171780376308227  1.0000
  C   C2        1.0  0.9622934377604446  0.10532692256351628  0.8491171414585512  1.0000
  C   C3        1.0  0.021797565146087324  0.16162657084606696  0.7818471213423449  1.0000
  C   C4        1.0  0.9554945384160888  0.21780576069892565  0.7150409074961663  1.0000
  C   C5        1.0  0.8282083445551667  0.21870689596087736  0.7144020147558507  1.0000
  C   C6        1.0  0.768594133776636  0.1620740006120266  0.7820558916058922  1.0000
  C   C7        1.0  0.8347415937164723  0.10552945329581419  0.8492129126003289  1.0000
  C   C8        1.0  0.770030722824557  0.04820627503650023  0.917241871546322  1.0000
  N   N2        1.0  0.7181667191210206  0.0022752854178913493  0.9717522574491346  1.0000
  C   C9        1.0  0.7577890786179343  0.278543588395998  0.6433819212692362  1.0000
  C   C10       1.0  0.6549107602879716  0.32470386524638406  0.6684892028104171  1.0000
  C   C11       1.0  0.588828785131655  0.38101234487082986  0.6014909962015769  1.0000
  C   C12       1.0  0.6244782675199728  0.3918514437722358  0.5089069695715556  1.0000
  C   C13       1.0  0.7263449624636845  0.34642534848697193  0.48311210221071565  1.0000
  C   C14       1.0  0.792822444252334  0.2900786548510587  0.5498262485863352  1.0000
  H   H1        1.0  0.11987102383184389  0.16229955113652172  0.7811530838550655  1.0000
  H   H2        1.0  0.003928132916992464  0.2614802119408306  0.6645922114301999  1.0000
  H   H3        1.0  0.6704446776855028  0.16099758026399247  0.7818106722745051  1.0000
  H   H4        1.0  0.6265380304268044  0.3181994521978079  0.7400891724691261  1.0000
  H   H5        1.0  0.5100690499303662  0.4164564753060447  0.6214543239112463  1.0000
  H   H6        1.0  0.573174393997197  0.43545340438584107  0.45715659564370736  1.0000
  H   H7        1.0  0.7536930873206354  0.3546901531624178  0.4112832939887543  1.0000
  H   H8        1.0  0.8705836660776209  0.25465263738636623  0.5280302784291879  1.0000
  C   C15       1.0  0.40449015285236145  0.7402794277086368  0.9717274579190307  1.0000
  C   C16       1.0  0.4775573777369464  0.6862216408252135  0.03690472425122082  1.0000
  C   C17       1.0  0.47749864810252557  0.5929970208856078  0.03694330591806827  1.0000
  C   C18       1.0  0.4044741024082209  0.5517772487096593  0.9717770918785198  1.0000
  C   C19       1.0  0.331475342509238  0.6059341868472211  0.9066024871777372  1.0000
  C   C20       1.0  0.33145675348293757  0.6991575918352205  0.9066132636926116  1.0000
  C   C21       1.0  0.40444612758156784  0.4527025535294581  0.9717847457248274  1.0000
  C   C22       1.0  0.4022641515428728  0.41339298020548615  0.8871867514787377  1.0000
  C   C23       1.0  0.402288016810167  0.3201686118584036  0.8871859748691173  1.0000
  C   C24       1.0  0.4043906002621267  0.2642082405805459  0.9717547339836641  1.0000
  C   C25       1.0  0.40652283915119386  0.3034149525490122  0.056387686889605604  1.0000
  C   C26       1.0  0.40660120502038105  0.39663570120953495  0.05638868404814501  1.0000
  H   H9        1.0  0.535115505744991  0.715936925478388  0.08781857736102527  1.0000
  H   H10       1.0  0.535914282350779  0.5532085143475016  0.08723829942819294  1.0000
  H   H11       1.0  0.273041322882461  0.5761238217608377  0.8563158347036337  1.0000
  H   H12       1.0  0.27390832069818116  0.7389432289224913  0.8556850034459467  1.0000
  H   H13       1.0  0.40218011925343977  0.45475994599799935  0.8208961352785533  1.0000
  H   H14       1.0  0.4009668452473187  0.29200907213176025  0.8208358929880739  1.0000
  H   H15       1.0  0.402089781769783  0.0598987630415631  0.8861725586851519  1.0000
  H   H16       1.0  0.4078240918300985  0.2620756451880805  0.12273147839695708  1.0000
  H   H17       1.0  0.4067063510824346  0.42486691570276625  0.12267690091867123  1.0000
  C   C27       1.0  0.39134834137369306  0.009116724198889432  0.69795721317265  1.0000
  C   C28       1.0  0.41537237713982644  0.99698337878202  0.6045445275155572  1.0000
  C   C29       1.0  0.34038828332341525  0.03520500217739908  0.5298990275731881  1.0000
  C   C30       1.0  0.2399242827677359  0.086446736339829  0.5492543728058252  1.0000
  C   C31       1.0  0.21512587006230932  0.09963288360858069  0.6411356537163435  1.0000
  C   C32       1.0  0.2896620032181949  0.06175951158568415  0.7157396768464772  1.0000
  C   C33       1.0  0.26043763271527287  0.08048626158001637  0.808769068055009  1.0000
  C   C34       1.0  0.23536594085659995  0.09660340752418017  0.8861846540604623  1.0000
  C   C35       1.0  0.36698754436337766  0.021468168327055892  0.4319260358810877  1.0000
  C   C36       1.0  0.4866655879333485  0.025380174492636968  0.4017725046199765  1.0000
  C   C37       1.0  0.5116797979327707  0.01250118810648249  0.309578545943203  1.0000
  C   C38       1.0  0.41753233647177973  0.9953709524306347  0.24552501366260948  1.0000
  C   C39       1.0  0.29792155516327895  0.9914453919865811  0.27559675020559093  1.0000
  C   C40       1.0  0.27290073828140926  0.00439634149755919  0.36777589382921505  1.0000
  H   H18       1.0  0.4915469444786347  0.9558723772685215  0.5897256906946933  1.0000
  H   H19       1.0  0.18144264092492546  0.11765229476314332  0.49310108322401924  1.0000
  H   H20       1.0  0.13756895481395068  0.14029339284304443  0.6540357056507389  1.0000
  H   H21       1.0  0.21340860230902337  0.11071842589046546  0.9541294522414516  1.0000
  H   H22       1.0  0.5609116568912131  0.03959305055489092  0.4492004232927209  1.0000
  H   H23       1.0  0.6047913753584719  0.016198563596241843  0.28844777093396984  1.0000
  H   H24       1.0  0.2234513309350181  0.978137844207526  0.22799484434849315  1.0000
  H   H25       1.0  0.17995551569110568  0.9998804843331932  0.3892130229404309  1.0000
  H   H26       1.0  0.36651746769948235  0.9553046100555521  0.017901000364211717  1.0000
  Zn  Zn1       1.0  0.271775057214078  0.002233045348063228  0.9717360321444302  1.0000
  Zn  Zn2       1.0  0.5370940487285489  0.0022542117172392635  0.9717457350262819  1.0000
  C   C41       1.0  0.41258100675042075  0.9944153222846135  0.1420227644667612  1.0000
  C   C42       1.0  0.396291000629192  0.010073058306231838  0.8014590943763928  1.0000
  C   C43       1.0  0.404225499619161  0.16526781335334376  0.9680343374589041  1.0000
  C   C44       1.0  0.40464641980624155  0.8392194941880133  0.9754475710313883  1.0000
  O   O1        1.0  0.4986369775250396  0.010398153415710716  0.8361989532001788  1.0000
  O   O2        1.0  0.5116059926446388  0.9941056257112978  0.1072900014875232  1.0000
  O   O3        1.0  0.5048575040122993  0.13207114852962043  0.9667931156803518  1.0000
  O   O4        1.0  0.5053853722779907  0.8724326387266029  0.9766957690993172  1.0000
  O   O5        1.0  0.3034836431240511  0.13205461833257104  0.9667859980631801  1.0000
  O   O6        1.0  0.31023212917001564  0.9940901685576071  0.10728283421499851  1.0000
  O   O7        1.0  0.2972630605355071  0.01038269331401899  0.8361906650000027  1.0000
  O   O8        1.0  0.30401145862726153  0.8724171704895676  0.9766875507989592  1.0000
