data_image0
_chemical_formula_structural       NC12NC2H8C12H10C6NO2H5Zn2C4O8
_chemical_formula_sum              "N3 C36 H23 O10 Zn2"
_cell_length_a       17.80743265337812
_cell_length_b       10.299137764757564
_cell_length_c       9.273426996046743
_cell_angle_alpha    85.13196931590328
_cell_angle_beta     91.97882923782456
_cell_angle_gamma    89.45463381285008

_space_group_name_H-M_alt    "P 1"
_space_group_IT_number       1

loop_
  _space_group_symop_operation_xyz
  'x, y, z'

loop_
  _atom_site_type_symbol
  _atom_site_label
  _atom_site_symmetry_multiplicity
  _atom_site_fract_x
  _atom_site_fract_y
  _atom_site_fract_z
  _atom_site_occupancy
  N   N1        1.0  0.7013212512737269  0.41689702433850595  0.444792978470004  1.0000
  C   C1        1.0  0.6501943533806175  0.4469542999724161  0.36841973003224715  1.0000
  C   C2        1.0  0.5865875165703988  0.4843433426335524  0.2734210224997702  1.0000
  C   C3        1.0  0.5977481171895435  0.5392827384119299  0.1326564215145709  1.0000
  C   C4        1.0  0.536059255586943  0.5751507679231715  0.04032152763771624  1.0000
  C   C5        1.0  0.46305253666098384  0.5563476527247042  0.08801762062557361  1.0000
  C   C6        1.0  0.4509172709085266  0.5012860638343868  0.2293026318340976  1.0000
  C   C7        1.0  0.5134633740732836  0.46542140772112855  0.32161917084372926  1.0000
  C   C8        1.0  0.37335515316154366  0.48134807707341287  0.28017850694051716  1.0000
  C   C9        1.0  0.355152757603811  0.5076193040355595  0.42138594913818106  1.0000
  C   C10       1.0  0.2821162851155483  0.48885747260867585  0.4691271152635821  1.0000
  C   C11       1.0  0.22634300731099202  0.44356407174925505  0.37659238094034797  1.0000
  C   C12       1.0  0.15117620644334154  0.4242392554382593  0.42589095735965316  1.0000
  N   N2        1.0  0.09074742194717099  0.408703403302553  0.4655236213985123  1.0000
  C   C13       1.0  0.2438563510094205  0.4171199984692826  0.23598854145645753  1.0000
  C   C14       1.0  0.31683880581886903  0.43589846403592447  0.18796293673707362  1.0000
  H   H1        1.0  0.6540597051225185  0.5543563244954273  0.09437238719224328  1.0000
  H   H2        1.0  0.5448198204928435  0.6179571581121777  0.9316193213493434  1.0000
  H   H3        1.0  0.4161199587737382  0.5864591044515983  0.01509900728439195  1.0000
  H   H4        1.0  0.5054003727189883  0.42123049610383  0.4301835459245611  1.0000
  H   H5        1.0  0.3971345930434126  0.5443281429326345  0.4942609273956118  1.0000
  H   H6        1.0  0.26912327128154884  0.5099971864129924  0.5780618501615062  1.0000
  H   H7        1.0  0.20115974850773236  0.3816755620402983  0.16357213120675262  1.0000
  H   H8        1.0  0.3293045266463782  0.41322088958920244  0.07936592812404131  1.0000
  C   C15       1.0  0.8959662528245266  0.03140074629147118  0.45531199022468866  1.0000
  C   C16       1.0  0.8953116129766133  0.04224544663296714  0.3033066835010001  1.0000
  C   C17       1.0  0.8950533241532197  0.9306118616537044  0.22608221870663847  1.0000
  C   C18       1.0  0.8954584784133224  0.8069897203465504  0.30291762008076417  1.0000
  C   C19       1.0  0.8961096551946545  0.7941894773270415  0.45501745213151445  1.0000
  C   C20       1.0  0.8963607932426052  0.9069185853417463  0.5302783139288518  1.0000
  C   C21       1.0  0.8943598899674389  0.9431294154500812  0.06527557474232615  1.0000
  C   C22       1.0  0.9393617070127266  0.8603675029600922  0.9900292445596887  1.0000
  C   C23       1.0  0.938615592678609  0.8724025384693207  0.8386581902866559  1.0000
  C   C24       1.0  0.8930491723497505  0.9668337995711127  0.7608323517822568  1.0000
  C   C25       1.0  0.8481338335040399  0.04949155118527804  0.8342194566478014  1.0000
  C   C26       1.0  0.8486910123035394  0.03795538147107203  0.9855814284332585  1.0000
  H   H9        1.0  0.8961797220615042  0.3547059013029463  0.5137812414917293  1.0000
  H   H10       1.0  0.8960409054249204  0.13773432630893123  0.2446669672655506  1.0000
  H   H11       1.0  0.8942267159004659  0.7206260637378905  0.24389959485902704  1.0000
  H   H12       1.0  0.8968636748568642  0.8978383328958668  0.6475233855253439  1.0000
  H   H13       1.0  0.8968609121620992  0.5627481770550872  0.7420724714784412  1.0000
  H   H14       1.0  0.9758095740345564  0.787574379563097  0.0482259490410748  1.0000
  H   H15       1.0  0.9735561108158275  0.8086372456330819  0.7816702848986923  1.0000
  H   H16       1.0  0.8925448151897316  0.9759567500994807  0.6436646895341429  1.0000
  H   H17       1.0  0.8126878398264107  0.1224001570766835  0.7737771500776769  1.0000
  H   H18       1.0  0.8127291783095957  0.10196442514426063  0.04021739875409903  1.0000
  C   C27       1.0  0.8943051354133952  0.4155597634395569  0.031244562605857507  1.0000
  C   C28       1.0  0.9379391171297362  0.5074771854625044  0.09926332324876341  1.0000
  C   C29       1.0  0.9865102620216951  0.590766671077654  0.020301680966501534  1.0000
  C   C30       1.0  0.9912796968868103  0.581304040799355  0.8709169534120411  1.0000
  C   C31       1.0  0.9474865272078566  0.49222734198408613  0.8014050448768484  1.0000
  C   C32       1.0  0.8977707585156992  0.4100304097803143  0.8790849148881916  1.0000
  N   N3        1.0  0.031209020377447994  0.6834666366053566  0.09205877267128804  1.0000
  O   O1        1.0  0.026381281921611162  0.692858126695779  0.23861306301352256  1.0000
  O   O2        1.0  0.07490122486777717  0.757088321293063  0.022507573775076176  1.0000
  H   H19       1.0  0.7892106910887071  0.30180108159503205  0.3151798841481146  1.0000
  H   H20       1.0  0.9353557853767585  0.5120394581635106  0.21523563868669449  1.0000
  H   H21       1.0  0.028418868482832375  0.6438591768643724  0.8072228749193391  1.0000
  H   H22       1.0  0.9512158362367023  0.4898075754451783  0.6852945802846202  1.0000
  H   H23       1.0  0.7400311325064821  0.2471555854944658  0.7811370292175175  1.0000
  Zn  Zn1       1.0  0.8137012687668498  0.4145290004677302  0.4507837178384899  1.0000
  Zn  Zn2       1.0  0.9783674480998675  0.4110607560764994  0.45954466109174885  1.0000
  C   C33       1.0  0.8971130479689514  0.40590156205327804  0.7188268000001325  1.0000
  C   C34       1.0  0.8949574679345865  0.41968979444417936  0.19150181565504143  1.0000
  C   C35       1.0  0.896055172174133  0.6500437692652007  0.44932031497972885  1.0000
  C   C36       1.0  0.8960152875615769  0.17554602748666207  0.461008375252445  1.0000
  O   O3        1.0  0.9576663525144258  0.41975402371237075  0.24861034824103712  1.0000
  O   O4        1.0  0.9593819815039931  0.4032040384512597  0.6683672054493828  1.0000
  O   O5        1.0  0.958526897162213  0.6003519663279622  0.45073876665119217  1.0000
  O   O6        1.0  0.9585213802260997  0.22260610701600506  0.4662386758068775  1.0000
  O   O7        1.0  0.8335472804481013  0.60298365071323  0.4440897001260873  1.0000
  O   O8        1.0  0.8344023647651936  0.40583728376712624  0.6617180613500042  1.0000
  O   O9        1.0  0.8326867287225743  0.4223872350866398  0.24195946854783298  1.0000
  O   O10       1.0  0.8335417568718381  0.22523930839494224  0.4595879043487501  1.0000
