data_image0
_chemical_formula_structural       NC5NC4H6C9H8C7OH5Zn2C4O8
_chemical_formula_sum              "N2 C29 H19 O9 Zn2"
_cell_length_a       13.854160002989762
_cell_length_b       9.275152443626249
_cell_length_c       9.274074313596559
_cell_angle_alpha    85.92156872667384
_cell_angle_beta     90.23361037791132
_cell_angle_gamma    90.57354205828562

_space_group_name_H-M_alt    "P 1"
_space_group_IT_number       1

loop_
  _space_group_symop_operation_xyz
  'x, y, z'

loop_
  _atom_site_type_symbol
  _atom_site_label
  _atom_site_symmetry_multiplicity
  _atom_site_fract_x
  _atom_site_fract_y
  _atom_site_fract_z
  _atom_site_occupancy
  N   N1        1.0  0.9150304492199492  0.563133646031038  0.40481963776276864  1.0000
  C   C1        1.0  0.8427015266120444  0.5877722772012273  0.3457000735026521  1.0000
  C   C2        1.0  0.7527233269157814  0.6184233961834246  0.2721530728639405  1.0000
  C   C3        1.0  0.6651551876782869  0.5896367829942739  0.34396124848351683  1.0000
  C   C4        1.0  0.5775809145756935  0.6184234102889532  0.27215304964736076  1.0000
  C   C5        1.0  0.4875933845175716  0.5877721307452021  0.34570016561072997  1.0000
  N   N2        1.0  0.4152568781968467  0.5631335825178736  0.4048196378948037  1.0000
  C   C6        1.0  0.5776115271981292  0.6766033736934529  0.12855357724844185  1.0000
  C   C7        1.0  0.6651610371141321  0.7075396172364112  0.056634581421433294  1.0000
  C   C8        1.0  0.6651285105933228  0.7658480457382655  0.9015479362165966  1.0000
  C   C9        1.0  0.7526886159726469  0.6766033714819932  0.1285534869956506  1.0000
  H   H1        1.0  0.6651560542043103  0.5444953020786516  0.4551049864277661  1.0000
  H   H2        1.0  0.5097288818532493  0.6978490830885015  0.07284183500149477  1.0000
  H   H3        1.0  0.7303725607593332  0.8337917875312761  0.8775320642451776  1.0000
  H   H4        1.0  0.6006640832951002  0.8337917900472009  0.8775321293085026  1.0000
  H   H5        1.0  0.6643226459371148  0.6745996679107831  0.8303220657739998  1.0000
  H   H6        1.0  0.8205518414494668  0.6978491947611155  0.07284174920752107  1.0000
  C   C10       1.0  0.16230502391036805  0.13951576190296544  0.4062910643490308  1.0000
  C   C11       1.0  0.1271427570512269  0.22105317056162593  0.283849488386434  1.0000
  C   C12       1.0  0.10094630431887452  0.15438732776892405  0.15911550135259112  1.0000
  C   C13       1.0  0.10949935555398893  0.00499863825828784  0.15435339415894056  1.0000
  C   C14       1.0  0.14277124002068597  0.9217629246142576  0.2757601800626346  1.0000
  C   C15       1.0  0.16799151453236272  0.986740512791682  0.4033607125717567  1.0000
  C   C16       1.0  0.0829872895056247  0.9365810856077109  0.0251835059124832  1.0000
  C   C17       1.0  0.060789601666269434  0.8792639435418268  0.9170239769085932  1.0000
  C   C18       1.0  0.03385708843386225  0.8097077284806361  0.7857913575051971  1.0000
  H   H7        1.0  0.3018049419563167  0.22399283794580518  0.6941262414982889  1.0000
  H   H8        1.0  0.12205696702056532  0.33756620677344573  0.283396138048972  1.0000
  H   H9        1.0  0.07487849657731682  0.21971075842640755  0.0657726052558143  1.0000
  H   H10       1.0  0.1468239291333517  0.8054134246382536  0.27173961588688056  1.0000
  H   H11       1.0  0.2588270242145569  0.6933737487282055  0.6002303095932668  1.0000
  H   H12       1.0  0.05154013702564297  0.6931180755732569  0.7992557696204435  1.0000
  H   H13       1.0  0.9552408862835651  0.8220966111105225  0.766060697654924  1.0000
  H   H14       1.0  0.07435847801205606  0.8611404352574774  0.6925010934370941  1.0000
  C   C19       1.0  0.1639646689284939  0.5589733565771046  0.9815990994720548  1.0000
  C   C20       1.0  0.08009122942869196  0.601561858765441  0.05134064386675386  1.0000
  C   C21       1.0  0.0010486936516678235  0.6557436215682243  0.971971006087625  1.0000
  C   C22       1.0  0.004031812395207  0.6687780434059509  0.8206459221660336  1.0000
  C   C23       1.0  0.08659031210103652  0.6244479425237897  0.749770515445713  1.0000
  C   C24       1.0  0.16633182877043604  0.5672828397071776  0.828052765399502  1.0000
  C   C25       1.0  0.9213943244189569  0.726926821096911  0.7350540877987921  1.0000
  O   O1        1.0  0.8460261077290532  0.7671200288826714  0.7956213418416658  1.0000
  H   H15       1.0  0.3995590214185354  0.5222204599953437  0.08851480596969141  1.0000
  H   H16       1.0  0.9379387721133161  0.6887669933063483  0.02925843528406014  1.0000
  H   H17       1.0  0.0877556976537548  0.6314387735305742  0.632589673192641  1.0000
  H   H18       1.0  0.32465993183313535  0.5373003262058051  0.5506906541757135  1.0000
  H   H19       1.0  0.9248805845168296  0.7356829755933535  0.6181542855812374  1.0000
  Zn  Zn1       1.0  0.05938499406848784  0.5631298473352317  0.4048279829062107  1.0000
  Zn  Zn2       1.0  0.2709022883933329  0.5631256927544792  0.4048231699901288  1.0000
  C   C26       1.0  0.16584368485507972  0.5599653737149543  0.6680747321940425  1.0000
  C   C27       1.0  0.16444591998127045  0.566291987867949  0.14157655581112727  1.0000
  C   C28       1.0  0.1668956109354507  0.8265405925481089  0.39817145797237075  1.0000
  C   C29       1.0  0.1633939103069506  0.2997150366337782  0.4114799128670015  1.0000
  O   O2        1.0  0.24487710085482003  0.5687403173377266  0.1952646468612087  1.0000
  O   O3        1.0  0.2459492277325221  0.5575127986831346  0.6143825771377638  1.0000
  O   O4        1.0  0.24679759346271618  0.7727756739274447  0.3964337684300257  1.0000
  O   O5        1.0  0.24402866271515772  0.3534774513534172  0.41321334747268246  1.0000
  O   O6        1.0  0.08625854756618055  0.7727780887392077  0.39643780541771356  1.0000
  O   O7        1.0  0.08541019324945262  0.5575169458988267  0.614386531285305  1.0000
  O   O8        1.0  0.08433806125266226  0.5687443972734517  0.1952668684073402  1.0000
  O   O9        1.0  0.08348962334198573  0.35348152203205463  0.4132156771091351  1.0000
