data_image0
_chemical_formula_structural       NC10NC3NCH9C6NCOC6H11C7OC4NC2H9Zn2C4O8
_chemical_formula_sum              "N5 C44 H29 O10 Zn2"
_cell_length_a       19.437513618241372
_cell_length_b       10.29965916528486
_cell_length_c       10.299375074045738
_cell_angle_alpha    85.55751919023885
_cell_angle_beta     90.34040482055526
_cell_angle_gamma    89.53922106887035

_space_group_name_H-M_alt    "P 1"
_space_group_IT_number       1

loop_
  _space_group_symop_operation_xyz
  'x, y, z'

loop_
  _atom_site_type_symbol
  _atom_site_label
  _atom_site_symmetry_multiplicity
  _atom_site_fract_x
  _atom_site_fract_y
  _atom_site_fract_z
  _atom_site_occupancy
  N   N1        1.0  0.6481559401201707  0.4109839387161574  0.5761393561489063  1.0000
  C   C1        1.0  0.5892253830871538  0.4279947291146681  0.5731701652912201  1.0000
  C   C2        1.0  0.515788382267413  0.44924814357254794  0.5694846776843221  1.0000
  C   C3        1.0  0.47401005213008823  0.34806661249949095  0.5577834479653042  1.0000
  C   C4        1.0  0.3981218469759202  0.35813423008789563  0.5505658827744804  1.0000
  C   C5        1.0  0.35855917154689787  0.4389511028790505  0.6163445256728961  1.0000
  C   C6        1.0  0.282375735301267  0.430346856201633  0.6078965089537611  1.0000
  C   C7        1.0  0.24922042725886917  0.30900411255457394  0.6124904545858605  1.0000
  C   C8        1.0  0.177484859024931  0.3026357380065243  0.605319456465039  1.0000
  C   C9        1.0  0.1379338906265293  0.4171372766997909  0.5939165678614173  1.0000
  C   C10       1.0  0.0640837979819487  0.41043080795933173  0.586577332188293  1.0000
  N   N2        1.0  0.004713421611395002  0.40503939693424723  0.5806770453754264  1.0000
  C   C11       1.0  0.1703725404398326  0.5381691267604387  0.5900678058708211  1.0000
  C   C12       1.0  0.24209255319752387  0.5447914564470608  0.5973009322213585  1.0000
  C   C13       1.0  0.3872564879959444  0.5311925938657496  0.7063064014800956  1.0000
  N   N3        1.0  0.4442521897145065  0.5944122114202386  0.6859271241806321  1.0000
  C   C14       1.0  0.488092797111578  0.5852025030753661  0.5728105372103808  1.0000
  H   H1        1.0  0.49637862447278697  0.2530190587705703  0.5456227867239598  1.0000
  H   H2        1.0  0.37339698117679293  0.2886507451555509  0.4922166053102364  1.0000
  H   H3        1.0  0.278655886261122  0.21909032003346995  0.6234750207283046  1.0000
  H   H4        1.0  0.1528757983050415  0.2084109092533122  0.6091682513202894  1.0000
  H   H5        1.0  0.14025166362443864  0.6274269855292876  0.5813952265494289  1.0000
  H   H6        1.0  0.2662201600319558  0.6394290778311884  0.593436845774755  1.0000
  H   H7        1.0  0.35725559962464337  0.5515392357203113  0.7906852996009408  1.0000
  H   H8        1.0  0.5308568632905073  0.6555099471185082  0.5786029754333969  1.0000
  H   H9        1.0  0.45843140204679145  0.6133514122253783  0.48217227094286375  1.0000
  C   C15       1.0  0.8263774683175805  0.026651951433053662  0.5782920089685628  1.0000
  C   C16       1.0  0.8268535804493238  0.03597693510977229  0.4414776913882395  1.0000
  C   C17       1.0  0.828107947545535  0.923821611633213  0.37265585415316327  1.0000
  C   C18       1.0  0.826983190560334  0.8007843688245785  0.4417757346686489  1.0000
  C   C19       1.0  0.8264984738837289  0.7893611908074585  0.5785357174025412  1.0000
  C   C20       1.0  0.8264404461295174  0.9028990539004652  0.6460250074646725  1.0000
  N   N4        1.0  0.8275377878640695  0.9369571250489094  0.2325779788479652  1.0000
  C   C21       1.0  0.8597927359438984  0.8453207909534188  0.1532598064163917  1.0000
  O   O1        1.0  0.9072515394706379  0.771693043978764  0.20084333594672302  1.0000
  C   C22       1.0  0.8398035513800057  0.8395100419943726  0.014634759354271722  1.0000
  C   C23       1.0  0.7761882365367088  0.8904455676605826  0.9674779113330746  1.0000
  C   C24       1.0  0.757760432749047  0.8837890644463635  0.8367165942326475  1.0000
  C   C25       1.0  0.8023071688413659  0.8259918920725184  0.7518241760382716  1.0000
  C   C26       1.0  0.8653169231866993  0.7742794646492799  0.7975970543607174  1.0000
  C   C27       1.0  0.8840073831658458  0.7805752960193686  0.9282572362495669  1.0000
  H   H10       1.0  0.824822693404325  0.21633684142177145  0.8363593113897889  1.0000
  H   H11       1.0  0.8267777697768666  0.13060797194420415  0.3876520326064343  1.0000
  H   H12       1.0  0.825277883375514  0.7140422835958065  0.38894703092478156  1.0000
  H   H13       1.0  0.8260826169907355  0.8948450024101532  0.7514935243852527  1.0000
  H   H14       1.0  0.8253972184994217  0.45754543860403535  0.63098484335893  1.0000
  H   H15       1.0  0.8079100943157508  0.02343477758635037  0.18638631632597336  1.0000
  H   H16       1.0  0.7401314945910429  0.9337189951385194  0.031503413011381376  1.0000
  H   H17       1.0  0.7087307510513756  0.9230530513991431  0.8013057850143112  1.0000
  H   H18       1.0  0.7879055058467409  0.8209131172883197  0.6506802337356916  1.0000
  H   H19       1.0  0.899745935059055  0.7292380720992652  0.7317870628827206  1.0000
  H   H20       1.0  0.9332094894527901  0.7401231589886905  0.9614514621683958  1.0000
  C   C28       1.0  0.8264613861904428  0.4081485500964319  0.19702745702080574  1.0000
  C   C29       1.0  0.8794342405573583  0.5003740794166482  0.18928767736682572  1.0000
  C   C30       1.0  0.9056179574721501  0.5479791928458844  0.06812005842377511  1.0000
  C   C31       1.0  0.879322810072659  0.5001382072401224  0.9540608675503642  1.0000
  C   C32       1.0  0.8264145445829553  0.4078646535175379  0.95980032656289  1.0000
  C   C33       1.0  0.8001666614404718  0.36265711057203864  0.08176416393092101  1.0000
  C   C34       1.0  0.9620474922097767  0.644354919017724  0.05989156156554332  1.0000
  O   O2        1.0  0.006013027710903179  0.6389370105659713  0.9708146648470906  1.0000
  C   C35       1.0  0.9685906552378355  0.746888870681977  0.15263392562456146  1.0000
  C   C36       1.0  0.03402311628129651  0.792357872761233  0.18523799317612122  1.0000
  C   C37       1.0  0.04070556837681627  0.8902559289487788  0.27157089257156075  1.0000
  C   C38       1.0  0.10789964369789184  0.9354862378169332  0.3052284217996284  1.0000
  N   N5        1.0  0.1619161093518815  0.9718406935934104  0.332281520307389  1.0000
  C   C39       1.0  0.9819621294288842  0.9440851199681505  0.32503350719672364  1.0000
  C   C40       1.0  0.9167591831573692  0.9006238934722743  0.29193204606620604  1.0000
  H   H21       1.0  0.7272186964673191  0.2326325115602792  0.41907695570087644  1.0000
  H   H22       1.0  0.9009189659431603  0.5342163744606776  0.27775521256357294  1.0000
  H   H23       1.0  0.8998073157584603  0.5360316769328313  0.8605879088226667  1.0000
  H   H24       1.0  0.759328689874916  0.29155729311952205  0.0869271524010269  1.0000
  H   H25       1.0  0.8064861907164875  0.37161103051512256  0.6346149775306618  1.0000
  H   H26       1.0  0.07975503691153918  0.750876275337468  0.14442640702389697  1.0000
  H   H27       1.0  0.986563726980792  0.01988458005796146  0.3917953559869307  1.0000
  H   H28       1.0  0.8713701858525962  0.9430784481182601  0.33259948852145316  1.0000
  H   H29       1.0  0.8588326411783999  0.7724573764413327  0.1799093501464779  1.0000
  Zn  Zn1       1.0  0.7510507317071305  0.40926498044097914  0.5774563434241762  1.0000
  Zn  Zn2       1.0  0.9018186338863924  0.40674768194854405  0.5793707250528604  1.0000
  C   C41       1.0  0.8264210600559958  0.40274476734108955  0.8156182206524027  1.0000
  C   C42       1.0  0.826449952170494  0.41326950609184565  0.3412089967255487  1.0000
  C   C43       1.0  0.8264723864909315  0.6451949227773583  0.5733142158875115  1.0000
  C   C44       1.0  0.8263985740371995  0.17081779122419616  0.5835130695804036  1.0000
  O   O3        1.0  0.8836617470535099  0.4140271784420959  0.39032413460578996  1.0000
  O   O4        1.0  0.8836386142627537  0.40007554412191926  0.7679556799562908  1.0000
  O   O5        1.0  0.8836792896310827  0.5958571232126657  0.5722934724054369  1.0000
  O   O6        1.0  0.8836210202457596  0.21824560953657568  0.5859862441272274  1.0000
  O   O7        1.0  0.7692482938980779  0.5977670537133943  0.5708408236896938  1.0000
  O   O8        1.0  0.7692076187784229  0.4019870349144754  0.7665029624904682  1.0000
  O   O9        1.0  0.7692307517036007  0.4159386245602439  0.38886985565374044  1.0000
  O   O10       1.0  0.7691900248855865  0.22015704632994382  0.5845320625444792  1.0000
