data_image0
_chemical_formula_structural       NC10NC3NCH9C7OC3OC4H12C6NCOC6H11Zn2C4O8
_chemical_formula_sum              "N4 C45 H32 O11 Zn2"
_cell_length_a       19.437513618241372
_cell_length_b       10.299371110280156
_cell_length_c       10.299662537453274
_cell_angle_alpha    85.55769285269642
_cell_angle_beta     90.33361086240306
_cell_angle_gamma    89.53521497268402

_space_group_name_H-M_alt    "P 1"
_space_group_IT_number       1

loop_
  _space_group_symop_operation_xyz
  'x, y, z'

loop_
  _atom_site_type_symbol
  _atom_site_label
  _atom_site_symmetry_multiplicity
  _atom_site_fract_x
  _atom_site_fract_y
  _atom_site_fract_z
  _atom_site_occupancy
  N   N1        1.0  0.6481931526269672  0.4110161257948158  0.5761775717914913  1.0000
  C   C1        1.0  0.5892621518413088  0.4280273871719409  0.5732084290979093  1.0000
  C   C2        1.0  0.5158245950697039  0.4492813902157973  0.5695230009631245  1.0000
  C   C3        1.0  0.4740507500598313  0.34809688620297674  0.5578223380315113  1.0000
  C   C4        1.0  0.3981626254994284  0.35816475063733316  0.5506049600229644  1.0000
  C   C5        1.0  0.3585928204207068  0.43898432766377576  0.6163815102714961  1.0000
  C   C6        1.0  0.28241023405932664  0.4303797846372453  0.6079337583353787  1.0000
  C   C7        1.0  0.24925913400072183  0.3090335844783869  0.6125278423952938  1.0000
  C   C8        1.0  0.1775242525226124  0.30266498522549795  0.6053570669365108  1.0000
  C   C9        1.0  0.1379697576604343  0.41716974426730413  0.5939542531053337  1.0000
  C   C10       1.0  0.0641203748759483  0.41046304013367013  0.5866152457409302  1.0000
  N   N2        1.0  0.004750569182221098  0.4050714398720847  0.5807151424736243  1.0000
  C   C11       1.0  0.1704041641703252  0.5382050462680741  0.5901053317284589  1.0000
  C   C12       1.0  0.24212347685579386  0.5448276083126724  0.597338233042388  1.0000
  C   C13       1.0  0.3872810637326955  0.5312289921168474  0.7063405650570601  1.0000
  N   N3        1.0  0.4442757036442869  0.5944503054497641  0.6859617383081863  1.0000
  C   C14       1.0  0.48812376262556034  0.5852396719455828  0.5728484591657794  1.0000
  H   H1        1.0  0.4964236090944601  0.25304653293663115  0.545662243182512  1.0000
  H   H2        1.0  0.3734440023589781  0.2886789302128756  0.49225753391178423  1.0000
  H   H3        1.0  0.2786972345827318  0.21911727499771752  0.6235122908207557  1.0000
  H   H4        1.0  0.15291844168265203  0.20843747407301932  0.60920596110263  1.0000
  H   H5        1.0  0.14028052475594222  0.6274654166724529  0.5814328044072306  1.0000
  H   H6        1.0  0.266247819474122  0.6394679238566465  0.5934740468042244  1.0000
  H   H7        1.0  0.3572741174570621  0.5515767109617473  0.7907169655147746  1.0000
  H   H8        1.0  0.5308848592319438  0.6555491681192038  0.578640571500699  1.0000
  H   H9        1.0  0.45846702175633425  0.6133888596870944  0.48221276378140376  1.0000
  C   C15       1.0  0.826428788185401  0.026673118190055245  0.5783310233414893  1.0000
  C   C16       1.0  0.8185187046636296  0.03614522001485822  0.442244709122046  1.0000
  C   C17       1.0  0.813751908212102  0.9237486593174074  0.3737648372707869  1.0000
  C   C18       1.0  0.8185528156797892  0.8008766496890924  0.4425562304415689  1.0000
  C   C19       1.0  0.8265215318409344  0.7894042993684256  0.5785730568296714  1.0000
  C   C20       1.0  0.8302332736158499  0.9029037286896168  0.6457087935694593  1.0000
  C   C21       1.0  0.8061169286252905  0.9336106044813622  0.22992007766065647  1.0000
  O   O1        1.0  0.8343275767608059  0.8481263990634379  0.16625589297143084  1.0000
  C   C22       1.0  0.7664707348568844  0.040368381847901494  0.15830441312368393  1.0000
  C   C23       1.0  0.7857173407627458  0.08525699274900123  0.03140628570029569  1.0000
  C   C24       1.0  0.7485126200485719  0.1849175677525832  0.961551737401654  1.0000
  O   O2        1.0  0.7704941453538711  0.22640753106438494  0.8357331297212203  1.0000
  C   C25       1.0  0.7377093652449365  0.32647092709070313  0.7538805927630089  1.0000
  C   C26       1.0  0.690791764766986  0.23971596522142713  0.019305495292506244  1.0000
  C   C27       1.0  0.6708390047351589  0.19454987985159167  0.14467757108964463  1.0000
  C   C28       1.0  0.7081659127816483  0.09516886110219301  0.21378149376035924  1.0000
  H   H10       1.0  0.8424058619336717  0.21612030565258333  0.8349283354484911  1.0000
  H   H11       1.0  0.8168217649508088  0.131128598160132  0.38919318558784743  1.0000
  H   H12       1.0  0.8153961451133357  0.714089462658428  0.3897933996756269  1.0000
  H   H13       1.0  0.8363318112414383  0.8947976236146817  0.7506213761123663  1.0000
  H   H14       1.0  0.8301550426192532  0.45754034797822624  0.6307063706863152  1.0000
  H   H15       1.0  0.8302066099378663  0.04363687845688216  0.9865994401293465  1.0000
  H   H16       1.0  0.7657866403026654  0.33913053179638847  0.6603666488571553  1.0000
  H   H17       1.0  0.7387170949771954  0.41989250867015304  0.8009126640890226  1.0000
  H   H18       1.0  0.6837943237198452  0.2991441998032585  0.7334301636737698  1.0000
  H   H19       1.0  0.6609138418051048  0.31673315891670045  0.968036592675473  1.0000
  H   H20       1.0  0.6260898640067393  0.23633620742283418  0.18825937243628485  1.0000
  H   H21       1.0  0.6909910708073314  0.06026941852582302  0.30994198506120546  1.0000
  C   C29       1.0  0.8265225340078676  0.4081784411695477  0.19707669607931444  1.0000
  C   C30       1.0  0.8967583291917806  0.43938214096260464  0.19416676501970562  1.0000
  C   C31       1.0  0.9323420457556311  0.4532140082614054  0.0760194989632612  1.0000
  C   C32       1.0  0.8966379036128379  0.43907407411970434  0.9590218379876883  1.0000
  C   C33       1.0  0.826427799405508  0.407898950417724  0.9598273580497914  1.0000
  C   C34       1.0  0.7918251974500133  0.39218162644611354  0.07942888315654284  1.0000
  N   N4        1.0  0.003989635648723009  0.4871051909553938  0.07645879953606459  1.0000
  C   C35       1.0  0.0526776108190239  0.44644322028172306  0.9828528241945649  1.0000
  O   O3        1.0  0.04011719805670855  0.34809398560728516  0.9211103411310106  1.0000
  C   C36       1.0  0.11874173851694692  0.5156707817607524  0.9613653368721357  1.0000
  C   C37       1.0  0.12705749999006555  0.643602959148803  0.9978654159873943  1.0000
  C   C38       1.0  0.18948056239844058  0.7081180350923507  0.9764899290761275  1.0000
  C   C39       1.0  0.24408824762514114  0.6461802927745619  0.9181907714964701  1.0000
  C   C40       1.0  0.2363309376268228  0.5196851942516991  0.8806922881030173  1.0000
  C   C41       1.0  0.17402512545358628  0.4547111292585706  0.9017400433805509  1.0000
  H   H22       1.0  0.6938759177131596  0.3505266157617202  0.40973457579195016  1.0000
  H   H23       1.0  0.9243250035397241  0.45214176374240966  0.28394213232885246  1.0000
  H   H24       1.0  0.9232875667491967  0.4545937489051236  0.867252825705456  1.0000
  H   H25       1.0  0.7376834884902157  0.3681101027651772  0.08080802214884475  1.0000
  H   H26       1.0  0.7992732796667008  0.3976246004289075  0.6325548246695999  1.0000
  H   H27       1.0  0.022771917016672694  0.5339960785956808  0.1556353216727717  1.0000
  H   H28       1.0  0.08525971413518764  0.6948352914374702  0.04112329989809438  1.0000
  H   H29       1.0  0.19541104150026745  0.8064991554172602  0.0047123513280307215  1.0000
  H   H30       1.0  0.29233570803334885  0.696354247976104  0.9017033573681869  1.0000
  H   H31       1.0  0.278637684580336  0.47186170235112534  0.8352449796379026  1.0000
  H   H32       1.0  0.1692735956948297  0.3565329748707947  0.8721576575266585  1.0000
  Zn  Zn1       1.0  0.7510879251322633  0.40929712586732814  0.5774945246470482  1.0000
  Zn  Zn2       1.0  0.9018558002639104  0.40677976629460844  0.5794088562847065  1.0000
  C   C42       1.0  0.8264435247168015  0.4027781168344342  0.8156494954589011  1.0000
  C   C43       1.0  0.8265018472432776  0.4133003864180325  0.34125403436583013  1.0000
  C   C44       1.0  0.8265010971302963  0.6452338167732299  0.5733519887630816  1.0000
  C   C45       1.0  0.8264442231849336  0.17084312700348736  0.5835516091531303  1.0000
  O   O4        1.0  0.8837105267663093  0.4140583674283489  0.3903677432531502  1.0000
  O   O5        1.0  0.8836641738148505  0.4001085385663695  0.7679883458267489  1.0000
  O   O6        1.0  0.8837098928051281  0.5958945949212127  0.572331385509862  1.0000
  O   O7        1.0  0.8836647563423949  0.2182723212584519  0.5860246055434462  1.0000
  O   O8        1.0  0.7692789176041034  0.5978045717639522  0.5708787747282108  1.0000
  O   O9        1.0  0.7692331988089995  0.40202007574532606  0.766535666293519  1.0000
  O   O10       1.0  0.7692795519946877  0.4159698599224937  0.3889135022791702  1.0000
  O   O11       1.0  0.7692337815547345  0.22018380442811836  0.5845704619359593  1.0000
