data_image0
_chemical_formula_structural       NC6NC3H6C6NCH9C6NCH7Zn2C4O8
_chemical_formula_sum              "N4 C27 H22 Zn2 O8"
_cell_length_a       14.934028789175542
_cell_length_b       9.273386996610926
_cell_length_c       9.273390368590327
_cell_angle_alpha    86.07317832945773
_cell_angle_beta     89.96634751040418
_cell_angle_gamma    89.3610420342759

_space_group_name_H-M_alt    "P 1"
_space_group_IT_number       1

loop_
  _space_group_symop_operation_xyz
  'x, y, z'

loop_
  _atom_site_type_symbol
  _atom_site_label
  _atom_site_symmetry_multiplicity
  _atom_site_fract_x
  _atom_site_fract_y
  _atom_site_fract_z
  _atom_site_occupancy
  N   N1        1.0  0.8331695013420732  0.5611042445720633  0.40710470161151124  1.0000
  C   C1        1.0  0.7556907036153937  0.5599984707182171  0.40642777448753087  1.0000
  C   C2        1.0  0.6593032072367194  0.5586178059233862  0.4055827574015114  1.0000
  C   C3        1.0  0.6108365662674033  0.6661437655130591  0.4712862641035753  1.0000
  C   C4        1.0  0.5173320999855148  0.6650351985754126  0.4706087477619867  1.0000
  C   C5        1.0  0.4713813662832003  0.5564555476501614  0.4042614555353896  1.0000
  C   C6        1.0  0.374720343861875  0.5587852474568702  0.40568629802039613  1.0000
  N   N2        1.0  0.2972281178071838  0.5606341614622337  0.40681741846601605  1.0000
  C   C7        1.0  0.5198521773871068  0.44744198403289864  0.33764840036442356  1.0000
  C   C8        1.0  0.4723089112223226  0.3293933464693141  0.2655163329592858  1.0000
  C   C9        1.0  0.6139803048214343  0.4496817359767719  0.3390170480247306  1.0000
  H   H1        1.0  0.6453260937733811  0.7508642538523402  0.5230551220470081  1.0000
  H   H2        1.0  0.4807459546867951  0.7491032147867488  0.5219787707626571  1.0000
  H   H3        1.0  0.4292542089740051  0.37754006729665046  0.1768426227873725  1.0000
  H   H4        1.0  0.42996050721996587  0.267375672068016  0.3457208510545069  1.0000
  H   H5        1.0  0.5202684208469677  0.25293146596983496  0.218788050336451  1.0000
  H   H6        1.0  0.6520521870305269  0.36673207801404106  0.2883306847312633  1.0000
  C   C10       1.0  0.067956560331305  0.13721993843007785  0.40766758301967454  1.0000
  C   C11       1.0  0.08370101958224045  0.21929441009801964  0.27734170501496025  1.0000
  C   C12       1.0  0.09101441352016515  0.15339884847708762  0.14701299111637534  1.0000
  C   C13       1.0  0.08269420708052722  0.0030711089322548154  0.14367799989698726  1.0000
  C   C14       1.0  0.06852782476273983  0.9200273124436189  0.2735502118713138  1.0000
  C   C15       1.0  0.0624497142184712  0.9845074502269197  0.4062670248003162  1.0000
  N   N3        1.0  0.08925108484314247  0.9321112888904597  0.010659082626835799  1.0000
  C   C16       1.0  0.10419153088440031  0.008497672685195507  0.87000383327986  1.0000
  H   H7        1.0  0.08621104394539578  0.4018613177279666  0.6442791854226806  1.0000
  H   H8        1.0  0.08826849581470353  0.33591688127009656  0.27557064552554666  1.0000
  H   H9        1.0  0.10232313700178763  0.2209488964272439  0.04910605147578396  1.0000
  H   H10       1.0  0.06430167734605095  0.8036063564028085  0.27127915727340235  1.0000
  H   H11       1.0  0.0953605138401874  0.8568434839598349  0.7572857984004148  1.0000
  H   H12       1.0  0.08291995726315848  0.8197823478914184  0.013651699603889119  1.0000
  H   H13       1.0  0.048684959989811594  0.08686128713567176  0.8449965300193458  1.0000
  H   H14       1.0  0.16900347550608896  0.06598623665853796  0.8701962804492424  1.0000
  H   H15       1.0  0.10646310298542856  0.930151831733032  0.7846779000829254  1.0000
  C   C17       1.0  0.06527388886966443  0.5563648594993964  0.9837289286045601  1.0000
  C   C18       1.0  0.1475341790219657  0.5534150643566789  0.057285239147512934  1.0000
  C   C19       1.0  0.22827282629062073  0.5638777436510074  0.9818029947824766  1.0000
  C   C20       1.0  0.22880176287723863  0.5776789708225603  0.8301518082531325  1.0000
  C   C21       1.0  0.14710307234328288  0.5781952425708639  0.7557895796200662  1.0000
  C   C22       1.0  0.06513242536126795  0.5653625735032668  0.8302056411118782  1.0000
  N   N4        1.0  0.3110430487180289  0.5898012045068526  0.7492923980289588  1.0000
  C   C23       1.0  0.39945230259996206  0.58988167508317  0.8162255821898148  1.0000
  H   H16       1.0  0.9243900010880333  0.48720911326757105  0.2697709737984648  1.0000
  H   H17       1.0  0.2899767784301188  0.5624877449318482  0.04288799962788503  1.0000
  H   H18       1.0  0.8571812449351748  0.45349425993446796  0.7350290164433357  1.0000
  H   H19       1.0  0.308075536973742  0.5993652960817165  0.6364025583653437  1.0000
  H   H20       1.0  0.404662179028896  0.6824208661272277  0.8855375390010298  1.0000
  H   H21       1.0  0.4110450205954195  0.4867467262490819  0.8819432264884912  1.0000
  H   H22       1.0  0.4518570443649439  0.6007348380008604  0.7312845005939139  1.0000
  Zn  Zn1       1.0  0.967086831085312  0.5609648112311307  0.40703012087404655  1.0000
  Zn  Zn2       1.0  0.16331089296618506  0.5607619025303959  0.40690380214258126  1.0000
  C   C24       1.0  0.06519450237712521  0.5579145354049423  0.6702129261674707  1.0000
  C   C25       1.0  0.06520535258069367  0.5638139979293355  0.1437211339214284  1.0000
  C   C26       1.0  0.06348699131223867  0.8242910442035142  0.4007884001570102  1.0000
  C   C27       1.0  0.06691280794042642  0.2974357567315429  0.4131457396803045  1.0000
  O   O1        1.0  0.1396484009356781  0.5662307001678855  0.1973680526762627  1.0000
  O   O2        1.0  0.13968098381685146  0.5553427374081658  0.6164697213277577  1.0000
  O   O3        1.0  0.13830114294962276  0.7704451540216447  0.3989075085176764  1.0000
  O   O4        1.0  0.14102817479591445  0.3511282927951407  0.41493015744722317  1.0000
  O   O5        1.0  0.9893694822939315  0.7705984210371187  0.399003765604928  1.0000
  O   O6        1.0  0.9907493119046639  0.555497736893594  0.6165658987021161  1.0000
  O   O7        1.0  0.9907167296994218  0.5663856309608266  0.19746249731110588  1.0000
  O   O8        1.0  0.9920965036049997  0.3512832144180811  0.41502471015670933  1.0000
