data_image0
_chemical_formula_structural       NC6NC2H4C7NH5C9H9Zn2C4O8
_chemical_formula_sum              "N3 C28 H18 Zn2 O8"
_cell_length_a       14.927258858638513
_cell_length_b       9.275154477615127
_cell_length_c       9.273585224739815
_cell_angle_alpha    86.3668502262391
_cell_angle_beta     90.10206986439101
_cell_angle_gamma    89.43371000992973

_space_group_name_H-M_alt    "P 1"
_space_group_IT_number       1

loop_
  _space_group_symop_operation_xyz
  'x, y, z'

loop_
  _atom_site_type_symbol
  _atom_site_label
  _atom_site_symmetry_multiplicity
  _atom_site_fract_x
  _atom_site_fract_y
  _atom_site_fract_z
  _atom_site_occupancy
  N   N1        1.0  0.832224334817155  0.5618447558348727  0.41636263758405834  1.0000
  C   C1        1.0  0.7546978438354706  0.561844727437662  0.4163626480583775  1.0000
  C   C2        1.0  0.6582653355329096  0.5618448420098014  0.41636259866102154  1.0000
  C   C3        1.0  0.6112260091777056  0.5368751559604157  0.28959894996885627  1.0000
  C   C4        1.0  0.5175146975374906  0.536875180239772  0.2895988166294232  1.0000
  C   C5        1.0  0.47044927265004993  0.5618446646809124  0.41636261658389895  1.0000
  C   C6        1.0  0.3740166973559285  0.5618447792559553  0.41636256718063147  1.0000
  N   N2        1.0  0.29649020637424445  0.5618447508587449  0.41636257765495066  1.0000
  C   C7        1.0  0.5174885320136935  0.5868143507332024  0.5431262652701525  1.0000
  C   C8        1.0  0.6111998436539081  0.5868143264538459  0.5431263986095853  1.0000
  H   H1        1.0  0.6469323581337744  0.5174473311029808  0.19096955606591792  1.0000
  H   H2        1.0  0.4818287014055019  0.5174475285544902  0.19096955191458953  1.0000
  H   H3        1.0  0.48178225022164917  0.6062421663697994  0.6417557672034997  1.0000
  H   H4        1.0  0.6468858393014257  0.6062420765646858  0.6417557737252162  1.0000
  C   C9        1.0  0.0669521653592884  0.13843855111896985  0.4146946991500491  1.0000
  C   C10       1.0  0.04222959911612234  0.22033020273057402  0.2876101349861431  1.0000
  C   C11       1.0  0.010227402040596136  0.1530725422791377  0.16725743030960283  1.0000
  C   C12       1.0  0.002421430670323854  0.0030058559714021263  0.17257187574376132  1.0000
  C   C13       1.0  0.027971255292206242  0.9198771832524467  0.2967596483661892  1.0000
  C   C14       1.0  0.061771050102879886  0.9852399895184698  0.41804300238516934  1.0000
  C   C15       1.0  0.9843114017611795  0.23853048931747578  0.03864116582015265  1.0000
  N   N3        1.0  0.9634821233280533  0.30722310644366746  0.9352666339304748  1.0000
  H   H5        1.0  0.08469220092392882  0.2186938052252336  0.7684961788079807  1.0000
  H   H6        1.0  0.04588366013575975  0.3372462776937817  0.28333344030436947  1.0000
  H   H7        1.0  0.9773483929262055  0.9499422212127919  0.08007326348596266  1.0000
  H   H8        1.0  0.02326700300819875  0.8034083023748514  0.2966328012084172  1.0000
  H   H9        1.0  0.07751622962442811  0.6888712576225084  0.6551000572283594  1.0000
  C   C16       1.0  0.0639188930437129  0.5575513321484165  0.9931003517999826  1.0000
  C   C17       1.0  0.14406255662905276  0.5254385092547114  0.06893014696142696  1.0000
  C   C18       1.0  0.2253392088907844  0.5063027989072069  0.9965941066497326  1.0000
  C   C19       1.0  0.22573872965718247  0.5200905591171865  0.8445893977530332  1.0000
  C   C20       1.0  0.14656903326848203  0.5494924873209541  0.7677451642429007  1.0000
  C   C21       1.0  0.06480432161928995  0.5661271779763384  0.8396373013584473  1.0000
  C   C22       1.0  0.30857455815306567  0.4732377542085209  0.08797856921869807  1.0000
  C   C23       1.0  0.37922983402651994  0.37430893673805765  0.027349458361716428  1.0000
  C   C24       1.0  0.3968166705619838  0.5355229895951987  0.03189078140304646  1.0000
  H   H10       1.0  0.9161671315583948  0.5387218935830849  0.2743101276090194  1.0000
  H   H11       1.0  0.14367842054525948  0.5184801800141331  0.18607214239800118  1.0000
  H   H12       1.0  0.28657836275010085  0.5070628394884176  0.7836035561926438  1.0000
  H   H13       1.0  0.930917756345919  0.668574542867207  0.5513722671255752  1.0000
  H   H14       1.0  0.3027435047692737  0.46393883563549565  0.20770365052871487  1.0000
  H   H15       1.0  0.36740760190780386  0.3372064781634885  0.9176249195505215  1.0000
  H   H16       1.0  0.4168222773409478  0.3068017902625768  0.1106038275437804  1.0000
  H   H17       1.0  0.39563747395153004  0.5961717578995143  0.9249114377449774  1.0000
  H   H18       1.0  0.44467933734995047  0.5622644870802614  0.11780400586883322  1.0000
  Zn  Zn1       1.0  0.9662014769833667  0.5618409752651772  0.4163709335797099  1.0000
  Zn  Zn2       1.0  0.1625131597170203  0.561836841095229  0.41636605867160137  1.0000
  C   C25       1.0  0.06467009771588672  0.558762204463368  0.6796009830388641  1.0000
  C   C26       1.0  0.0640466717189912  0.5649174325255518  0.15313615782321266  1.0000
  C   C27       1.0  0.06273976855212471  0.8251182855965804  0.4116663179559852  1.0000
  C   C28       1.0  0.06597694457462366  0.29855961988143687  0.4210708929038809  1.0000
  O   O1        1.0  0.13858885440688729  0.5673817039445179  0.20684376139578564  1.0000
  O   O2        1.0  0.13912394610085688  0.5562937033868833  0.6258892603039155  1.0000
  O   O3        1.0  0.13756417817069866  0.771379622638523  0.4095301285200781  1.0000
  O   O4        1.0  0.14014855517302105  0.35229579391371546  0.4232027851492144  1.0000
  O   O5        1.0  0.9885660145358051  0.7713820224495946  0.40953420709618515  1.0000
  O   O6        1.0  0.9901257717825327  0.5562978347117604  0.6258932688763224  1.0000
  O   O7        1.0  0.9895906786430098  0.5673857674693497  0.20684603682364178  1.0000
  O   O8        1.0  0.9911503795816071  0.35229984822061344  0.42320516860156787  1.0000
