data_image0
_chemical_formula_structural       NC8NH4C6NH7C6NH7Zn2C4O8
_chemical_formula_sum              "N4 C24 H18 Zn2 O8"
_cell_length_a       11.048855714531884
_cell_length_b       9.274771166103582
_cell_length_c       9.274774538082513
_cell_angle_alpha    84.9550519661537
_cell_angle_beta     90.34967076044033
_cell_angle_gamma    90.59705445283097

_space_group_name_H-M_alt    "P 1"
_space_group_IT_number       1

loop_
  _space_group_symop_operation_xyz
  'x, y, z'

loop_
  _atom_site_type_symbol
  _atom_site_label
  _atom_site_symmetry_multiplicity
  _atom_site_fract_x
  _atom_site_fract_y
  _atom_site_fract_z
  _atom_site_occupancy
  N   N1        1.0  0.14544046836609992  0.5925438291280878  0.4051316898120132  1.0000
  C   C1        1.0  0.08999319034818098  0.5353195051395043  0.32014086989058366  1.0000
  C   C2        1.0  0.020812051819585117  0.4639198650129928  0.21409631543294783  1.0000
  C   C3        1.0  0.8930952952812133  0.46391967349552  0.21409641763542964  1.0000
  C   C4        1.0  0.8291704844128434  0.3933379401396524  0.10926693659827902  1.0000
  C   C5        1.0  0.8914508337413926  0.3233145094564469  0.0052665762664847425  1.0000
  C   C6        1.0  0.017857045312967387  0.32331439910189147  0.005266599161236175  1.0000
  C   C7        1.0  0.08242802394974791  0.39333803884622887  0.10926690866629651  1.0000
  C   C8        1.0  0.8262497698585455  0.5353195802093216  0.32014085660403047  1.0000
  N   N2        1.0  0.7726743550236336  0.5925438715611467  0.40513171856223473  1.0000
  H   H1        1.0  0.7310937842133002  0.392454098681134  0.10795357677329642  1.0000
  H   H2        1.0  0.8416646737687385  0.2690026960229588  0.92460209212546  1.0000
  H   H3        1.0  0.06586671594910823  0.26900280548337485  0.924602091315604  1.0000
  H   H4        1.0  0.1804757969372086  0.392454047222096  0.10795385233578658  1.0000
  C   C9        1.0  0.4553514392450354  0.16894043301535466  0.4059183736931071  1.0000
  C   C10       1.0  0.42684937572625664  0.253372711229769  0.2768534108857925  1.0000
  C   C11       1.0  0.40964329269627764  0.1894539807631075  0.14696958724125908  1.0000
  C   C12       1.0  0.420997974307285  0.039733688523082344  0.1452099657415702  1.0000
  C   C13       1.0  0.44725303637776187  0.9539974161656246  0.27250195324892657  1.0000
  C   C14       1.0  0.46277498339292844  0.01613605897822357  0.4043575609715082  1.0000
  N   N3        1.0  0.3818776690654452  0.27699810518204704  0.016486125743702118  1.0000
  H   H5        1.0  0.5931551140188  0.24585113397242944  0.7217800471196891  1.0000
  H   H6        1.0  0.4207440934108107  0.36997024531870226  0.2762990135249792  1.0000
  H   H7        1.0  0.4083324590464988  0.989116390975154  0.04527746747931127  1.0000
  H   H8        1.0  0.452565967238116  0.8378693829588852  0.2683685236706086  1.0000
  H   H9        1.0  0.5506967147874007  0.717199034935008  0.61925533509477  1.0000
  H   H10       1.0  0.37353861298461566  0.38907241435390794  0.016439248621860296  1.0000
  H   H11       1.0  0.3693380759986049  0.23037735360452263  0.9189271432106122  1.0000
  C   C15       1.0  0.45692346909063486  0.596227668561731  0.9813148401197602  1.0000
  C   C16       1.0  0.5434289315576086  0.6813530984584044  0.04789451817992485  1.0000
  C   C17       1.0  0.6352600465270148  0.7545959513890862  0.9669946621362921  1.0000
  C   C18       1.0  0.6413271620007905  0.7430455571930026  0.8180385271201356  1.0000
  C   C19       1.0  0.5552378448294003  0.6610978388954406  0.7497504319927506  1.0000
  C   C20       1.0  0.46120292400109786  0.5888487474230555  0.828961061256495  1.0000
  N   N4        1.0  0.7231531838121382  0.8395206962974092  0.03657995510041712  1.0000
  H   H12       1.0  0.27354227771436834  0.31424170591665185  0.10775467353182844  1.0000
  H   H13       1.0  0.5413102798732125  0.6881945437094215  0.16390204303729194  1.0000
  H   H14       1.0  0.7122205307640773  0.7987784831674127  0.7544050768198747  1.0000
  H   H15       1.0  0.5605996503269187  0.6570853194322928  0.6335847750769168  1.0000
  H   H16       1.0  0.3340106649672046  0.4033127128301028  0.5632211035577859  1.0000
  H   H17       1.0  0.7197178672576421  0.8485666443293269  0.147933211964562  1.0000
  H   H18       1.0  0.7922897097658401  0.8941192563251203  0.9772372793370798  1.0000
  Zn  Zn1       1.0  0.3264466415775882  0.5925398989731349  0.4051400367544029  1.0000
  Zn  Zn2       1.0  0.5916681648999926  0.5925358674526585  0.40513520502432243  1.0000
  C   C21       1.0  0.46034096789687196  0.5844969187558788  0.6687483644219763  1.0000
  C   C22       1.0  0.4577767514551284  0.6005806664800721  0.14152701560680847  1.0000
  C   C23       1.0  0.46133649478097405  0.8560480870853799  0.3989012883099159  1.0000
  C   C24       1.0  0.4567811192717213  0.3290277643849624  0.4113741718598267  1.0000
  O   O1        1.0  0.5587132515548638  0.6020337492157486  0.19529386323452536  1.0000
  O   O2        1.0  0.5607014555575003  0.5830396915849483  0.614977436165046  1.0000
  O   O3        1.0  0.5615040068704538  0.8023206812010282  0.3970740102530801  1.0000
  O   O4        1.0  0.5579106092838547  0.38275277086212833  0.4131971809146595  1.0000
  O   O5        1.0  0.3602041066866122  0.8023229955666771  0.39707806085812014  1.0000
  O   O6        1.0  0.35940157016585045  0.5830437397192185  0.6149814066231825  1.0000
  O   O7        1.0  0.3574133570427436  0.6020377621875247  0.19529609856860386  1.0000
  O   O8        1.0  0.35661071522267673  0.3827567725744574  0.4131995244746247  1.0000
