data_image0
_chemical_formula_structural       NC9NC5H8C7F3H5C7F3H5Zn2C4O8
_chemical_formula_sum              "N2 C32 H18 F6 Zn2 O8"
_cell_length_a       17.807436237873137
_cell_length_b       9.272718291674593
_cell_length_c       9.272721663655245
_cell_angle_alpha    86.31122681088247
_cell_angle_beta     89.9168972107098
_cell_angle_gamma    87.96869977406762

_space_group_name_H-M_alt    "P 1"
_space_group_IT_number       1

loop_
  _space_group_symop_operation_xyz
  'x, y, z'

loop_
  _atom_site_type_symbol
  _atom_site_label
  _atom_site_symmetry_multiplicity
  _atom_site_fract_x
  _atom_site_fract_y
  _atom_site_fract_z
  _atom_site_occupancy
  N   N1        1.0  0.6940243560967349  0.5325686931179461  0.40971484967009  1.0000
  C   C1        1.0  0.6335292398143771  0.49342830150878014  0.3971781438081614  1.0000
  C   C2        1.0  0.558279964026149  0.444741964612596  0.38158384339641294  1.0000
  C   C3        1.0  0.5399473486835391  0.3648258058979983  0.2643979447988334  1.0000
  C   C4        1.0  0.4668842262028823  0.3174308307391118  0.24916420664508918  1.0000
  C   C5        1.0  0.4111064372962097  0.3495326024521821  0.3510771500524936  1.0000
  C   C6        1.0  0.3334591098592983  0.2992920379900179  0.33497972688789646  1.0000
  C   C7        1.0  0.2710697503761411  0.3902286855713595  0.36446936745329506  1.0000
  C   C8        1.0  0.1978652572653595  0.3426083299641023  0.3492491055593654  1.0000
  C   C9        1.0  0.1344162536193966  0.43653567703950763  0.3791654979035717  1.0000
  N   N2        1.0  0.08341626405117199  0.5120467722162838  0.40321742142839034  1.0000
  C   C10       1.0  0.1864675440872549  0.20376470860219498  0.3045088802247047  1.0000
  C   C11       1.0  0.24799954911119623  0.11281262986108519  0.2750098077822676  1.0000
  C   C12       1.0  0.321085236754527  0.15999368835682873  0.2900018642106039  1.0000
  C   C13       1.0  0.4301294927801125  0.42999900544945346  0.4685106287214438  1.0000
  C   C14       1.0  0.5032454884573639  0.4771816493334956  0.48356994310392337  1.0000
  H   H1        1.0  0.5820657708812254  0.3394378168442864  0.18458652531679198  1.0000
  H   H2        1.0  0.4537696603834811  0.25733498369541485  0.1566457294323622  1.0000
  H   H3        1.0  0.27930266489844524  0.49862600906222276  0.39735373756036574  1.0000
  H   H4        1.0  0.13009225436399818  0.16590791769746538  0.29245826797512997  1.0000
  H   H5        1.0  0.23905857455089585  0.005318948799198695  0.24079956003739159  1.0000
  H   H6        1.0  0.36790675766309766  0.08687668943546976  0.2682978075567295  1.0000
  H   H7        1.0  0.38873695954273774  0.4547959903684853  0.5497547614800675  1.0000
  H   H8        1.0  0.5168778096071596  0.538626781502417  0.5749422189698343  1.0000
  C   C15       1.0  0.890345297003568  0.09882169510058558  0.4032536849089263  1.0000
  C   C16       1.0  0.8440796876002917  0.18201789420359082  0.304372645955697  1.0000
  C   C17       1.0  0.7925508574012898  0.11671050153461328  0.21695716442591342  1.0000
  C   C18       1.0  0.7892651363758432  0.9656419229628866  0.22544235405037918  1.0000
  C   C19       1.0  0.8355723294911785  0.8814670971466496  0.3212023916610278  1.0000
  C   C20       1.0  0.8871025871237275  0.9457823894940935  0.4096909456177511  1.0000
  C   C21       1.0  0.7448757100474276  0.20752724825682042  0.10892592773403109  1.0000
  F   F1        1.0  0.7258141087625554  0.34024280189460887  0.1616503303495338  1.0000
  F   F2        1.0  0.6791479502695544  0.13942312135185198  0.0798958264720695  1.0000
  F   F3        1.0  0.7848174596298779  0.22950124168252084  0.9819476843254064  1.0000
  H   H9        1.0  0.9810126917926684  0.1744688075211171  0.7129398806562166  1.0000
  H   H10       1.0  0.8470474205658426  0.2987929574004211  0.297611713272361  1.0000
  H   H11       1.0  0.7513853738384749  0.9121596670333356  0.15673251755898798  1.0000
  H   H12       1.0  0.8325147999966607  0.764869946779948  0.32319352154756453  1.0000
  H   H13       1.0  0.04920988277306492  0.8222913441635546  0.5805415375390561  1.0000
  C   C22       1.0  0.8867449039669685  0.5200678082402193  0.9830444612606213  1.0000
  C   C23       1.0  0.9191747326420879  0.4004262914361194  0.06433670111724488  1.0000
  C   C24       1.0  0.958157217337363  0.2890156754199624  0.9969569080766023  1.0000
  C   C25       1.0  0.9624152095549955  0.29543068793663085  0.8457860885323374  1.0000
  C   C26       1.0  0.9295515765578617  0.41209317764913317  0.7635101568785152  1.0000
  C   C27       1.0  0.8907030104596781  0.5245363033455911  0.8299001004447146  1.0000
  C   C28       1.0  0.9908013259168283  0.1598274151773016  0.08579871101395553  1.0000
  F   F4        1.0  0.015944521337808215  0.20040696694468238  0.21792799994796577  1.0000
  F   F5        1.0  0.05092205040115028  0.09702124820865499  0.015226073888813028  1.0000
  F   F6        1.0  0.9360362900881914  0.0589314385076809  0.10896591504752062  1.0000
  H   H14       1.0  0.8378029108452563  0.8659847354766087  0.06266857904588408  1.0000
  H   H15       1.0  0.915442639235944  0.3955006402745249  0.1812059959571779  1.0000
  H   H16       1.0  0.9905110363505567  0.20925259708677538  0.7907709730876942  1.0000
  H   H17       1.0  0.9327694871825095  0.41238472119171915  0.646805321529043  1.0000
  H   H18       1.0  0.7549363810994467  0.7748764295279585  0.7127077790434777  1.0000
  Zn  Zn1       1.0  0.8063945019196425  0.5266427060658216  0.407848142098741  1.0000
  Zn  Zn2       1.0  0.9710462004419707  0.517961066544883  0.4050958937274953  1.0000
  C   C29       1.0  0.8899751476990703  0.51794669275503  0.6697826325898815  1.0000
  C   C30       1.0  0.8874673463489304  0.5266588053818919  0.1431615285353589  1.0000
  C   C31       1.0  0.8876848156610503  0.7856586795374356  0.40272828240511105  1.0000
  C   C32       1.0  0.8897576291956787  0.2589450893509077  0.41021594336530076  1.0000
  O   O1        1.0  0.9501942901991941  0.5255698758336615  0.19585376726950243  1.0000
  O   O2        1.0  0.952215035471518  0.5124453686767225  0.615001077680768  1.0000
  O   O3        1.0  0.9503647280727415  0.728626236008123  0.399352825929441  1.0000
  O   O4        1.0  0.9520445408686943  0.3093890212104502  0.4115019119248502  1.0000
  O   O5        1.0  0.8253961053053332  0.7352147543644021  0.40144212483302133  1.0000
  O   O6        1.0  0.827246405707796  0.5190356192457279  0.6170903128708116  1.0000
  O   O7        1.0  0.8252256525752428  0.5321600669987512  0.19794126847845517  1.0000
  O   O8        1.0  0.8270759037864343  0.3159792026314978  0.4135895211614171  1.0000
