data_image0
_chemical_formula_structural       NC10NC5H10C6SCOC6H10C7OC3OC4H12Zn2C4O8
_chemical_formula_sum              "N2 C46 H32 S1 O11 Zn2"
_cell_length_a       19.4436361288709
_cell_length_b       10.302038109246572
_cell_length_c       10.299374482448636
_cell_angle_alpha    85.55445882342694
_cell_angle_beta     89.68637327173955
_cell_angle_gamma    89.43651638143119

_space_group_name_H-M_alt    "P 1"
_space_group_IT_number       1

loop_
  _space_group_symop_operation_xyz
  'x, y, z'

loop_
  _atom_site_type_symbol
  _atom_site_label
  _atom_site_symmetry_multiplicity
  _atom_site_fract_x
  _atom_site_fract_y
  _atom_site_fract_z
  _atom_site_occupancy
  N   N1        1.0  0.6481241658508424  0.40930619278967084  0.562244874847855  1.0000
  C   C1        1.0  0.5892883432216522  0.4191997196823362  0.5766308683157189  1.0000
  C   C2        1.0  0.5159591941378266  0.4315382518196782  0.5946257051058905  1.0000
  C   C3        1.0  0.47378026647346716  0.39958832208181505  0.49994355959279635  1.0000
  C   C4        1.0  0.3978767570547381  0.41002184885731285  0.5052733822469613  1.0000
  C   C5        1.0  0.3581216217572805  0.3852357500681495  0.6123463581834943  1.0000
  C   C6        1.0  0.28200314841659585  0.3891567667225137  0.5993870488972546  1.0000
  C   C7        1.0  0.24143953040752994  0.4467651772166952  0.6931698858572375  1.0000
  C   C8        1.0  0.16977789566545512  0.45040639804980076  0.6826261083411203  1.0000
  C   C9        1.0  0.1376850258612327  0.3960431756088311  0.5785859733823342  1.0000
  C   C10       1.0  0.06389417369961652  0.39974568889129425  0.5678869168115432  1.0000
  N   N2        1.0  0.004571333519867002  0.4027223152249264  0.5592855846710323  1.0000
  C   C11       1.0  0.17752359307864113  0.33772768954629206  0.48518628218268806  1.0000
  C   C12       1.0  0.24920167556919784  0.3340323621597159  0.4954782644305522  1.0000
  C   C13       1.0  0.3862332413601615  0.344730685629389  0.7434401560930701  1.0000
  C   C14       1.0  0.44489878725338383  0.38782243376949377  0.7906908571793924  1.0000
  C   C15       1.0  0.48913068350904615  0.48568736867114715  0.7163349414705549  1.0000
  H   H1        1.0  0.4958844187887189  0.3705157347434047  0.4096289168399694  1.0000
  H   H2        1.0  0.37319236376253895  0.43254952975659133  0.4121147026830601  1.0000
  H   H3        1.0  0.2653082446278822  0.49001198551328334  0.77402775654495  1.0000
  H   H4        1.0  0.1394325560279681  0.4956797157161143  0.7555565017460184  1.0000
  H   H5        1.0  0.1531829918927378  0.29467635230076716  0.4046629363902983  1.0000
  H   H6        1.0  0.278880948867294  0.2865159180692609  0.42324390052995203  1.0000
  H   H7        1.0  0.3552499915064524  0.28050280677601047  0.8076801110219634  1.0000
  H   H8        1.0  0.46003222923635156  0.35372305200584786  0.8886241032564699  1.0000
  H   H9        1.0  0.45903956015594194  0.5763897970597613  0.6910954190679575  1.0000
  H   H10       1.0  0.5324130579142335  0.5112409731297485  0.7794261615860093  1.0000
  C   C16       1.0  0.8262859035752631  0.024736972221454986  0.5607256069608619  1.0000
  C   C17       1.0  0.7675017916948238  0.030610918083648467  0.4816915944386093  1.0000
  C   C18       1.0  0.7385768610997667  0.9165691751197076  0.44188093058386496  1.0000
  C   C19       1.0  0.7677230217599463  0.7954742460687366  0.48163574994472774  1.0000
  C   C20       1.0  0.8264161928432083  0.7872814417962538  0.5608161025217313  1.0000
  C   C21       1.0  0.8554303596741266  0.9025710364384841  0.5998651114821649  1.0000
  S   S1        1.0  0.6639609800796514  0.9255063212959459  0.3398881230869022  1.0000
  C   C22       1.0  0.7145514136237575  0.9331005771798068  0.19304159600214654  1.0000
  O   O1        1.0  0.7311430205283681  0.8275372137659623  0.14655236468451638  1.0000
  C   C23       1.0  0.7372455328347611  0.058862884142312666  0.12735359927322176  1.0000
  C   C24       1.0  0.7858900993972159  0.06032736494419977  0.02544006250594677  1.0000
  C   C25       1.0  0.8080051817776908  0.17826948183321112  0.9635314490237965  1.0000
  C   C26       1.0  0.7818479717481486  0.2959805402891278  0.0022510722795912063  1.0000
  C   C27       1.0  0.73341047552979  0.2959851341452937  0.10280980383347815  1.0000
  C   C28       1.0  0.7110660894408355  0.17835081552305065  0.16504050353962052  1.0000
  H   H11       1.0  0.9370073866338083  0.22097073202316508  0.7098648851479796  1.0000
  H   H12       1.0  0.7441071824452835  0.12357242053546315  0.45060904747489167  1.0000
  H   H13       1.0  0.7445500726632299  0.7081582350098591  0.450062816510427  1.0000
  H   H14       1.0  0.9007490651623196  0.8971223188947414  0.6607917381903501  1.0000
  H   H15       1.0  0.8488513246842705  0.4568498733419265  0.590597353973199  1.0000
  H   H16       1.0  0.8071712674584895  0.9703771210895579  0.9939648373805606  1.0000
  H   H17       1.0  0.8455362982694583  0.17834795456696081  0.8855198458483722  1.0000
  H   H18       1.0  0.7990475670917144  0.3871785131538075  0.9542325058814654  1.0000
  H   H19       1.0  0.7130310043783897  0.3873020239161235  0.13251683431127526  1.0000
  H   H20       1.0  0.6731322649390623  0.18166775537745505  0.2419230768598175  1.0000
  C   C29       1.0  0.8264147662996619  0.4060954939176624  0.1793877864337443  1.0000
  C   C30       1.0  0.8982589833525444  0.4194292995681838  0.17642171828058095  1.0000
  C   C31       1.0  0.9344085882203029  0.42762713889994414  0.05763882369362095  1.0000
  C   C32       1.0  0.8980945717323867  0.41936848083180256  0.9411842248184632  1.0000
  C   C33       1.0  0.8262872972429655  0.4059228970288038  0.9421538510956808  1.0000
  C   C34       1.0  0.7908434837606002  0.3997055097636757  0.061758600271541786  1.0000
  C   C35       1.0  0.010351607694109477  0.440347038093227  0.05447102328288489  1.0000
  O   O2        1.0  0.04408594670442322  0.386194682782236  0.9683374011751877  1.0000
  C   C36       1.0  0.04802181173433007  0.5145147476028284  0.14893509405971983  1.0000
  C   C37       1.0  0.11511879544679872  0.4765663358319138  0.18653792616050224  1.0000
  C   C38       1.0  0.15186838722412488  0.5461348233807422  0.27444460149143257  1.0000
  O   O3        1.0  0.21840587990371785  0.5030236250101714  0.30918041283955455  1.0000
  C   C39       1.0  0.2615093907126882  0.5640833886450696  0.39722231794933127  1.0000
  C   C40       1.0  0.12114096688268218  0.6560628754480964  0.3246274872162829  1.0000
  C   C41       1.0  0.054847239183729135  0.6953293449877778  0.2865075921931952  1.0000
  C   C42       1.0  0.01849457831523349  0.6255205722296255  0.1988386261027293  1.0000
  H   H21       1.0  0.6909531240071639  0.3789437437026981  0.39245983626769726  1.0000
  H   H22       1.0  0.92627199232136  0.4220031230941787  0.26678080423772355  1.0000
  H   H23       1.0  0.925949392432679  0.42470816056975336  0.8495600631890077  1.0000
  H   H24       1.0  0.7354568412925286  0.38942526856886994  0.06324150657228733  1.0000
  H   H25       1.0  0.7987668196976763  0.39967327335814007  0.615152736756523  1.0000
  H   H26       1.0  0.13895680279007094  0.3918340783013061  0.1484513924343691  1.0000
  H   H27       1.0  0.31100864295442054  0.5098246427361204  0.4067636540707644  1.0000
  H   H28       1.0  0.23667300759083587  0.5627416298585877  0.49466299965325033  1.0000
  H   H29       1.0  0.27210088223220974  0.6658691284886353  0.35948508974930804  1.0000
  H   H30       1.0  0.14810288489374845  0.7119891100651496  0.3926013731593416  1.0000
  H   H31       1.0  0.03165526473646141  0.780538602644947  0.3246177522406488  1.0000
  H   H32       1.0  0.9676399512941906  0.6591788568422008  0.169040582556524  1.0000
  Zn  Zn1       1.0  0.7509871181762418  0.4074027557094794  0.5613983996330332  1.0000
  Zn  Zn2       1.0  0.9017083691130389  0.4046151447556861  0.5601427402035122  1.0000
  C   C43       1.0  0.826308980089447  0.4007831250791751  0.7979741672348327  1.0000
  C   C44       1.0  0.8263881533297648  0.41123638314212196  0.3235670865554874  1.0000
  C   C45       1.0  0.8263888708027675  0.64314553273502  0.5556236407309925  1.0000
  C   C46       1.0  0.8263082109077631  0.16887241649440266  0.5659176825439234  1.0000
  O   O4        1.0  0.8835771500464215  0.41189816432008364  0.37147845988891404  1.0000
  O   O5        1.0  0.8835139252766137  0.398004632285861  0.749109403472279  1.0000
  O   O6        1.0  0.883577666756871  0.5937153555141679  0.5534096452341721  1.0000
  O   O7        1.0  0.8835133571530698  0.21618745135302087  0.5671781211783156  1.0000
  O   O8        1.0  0.7691820787024463  0.5958304500648348  0.5543630190798938  1.0000
  O   O9        1.0  0.769118337497106  0.4001212867810924  0.7500627082550677  1.0000
  O   O10       1.0  0.7691815625658515  0.41401477392268254  0.3724302032073765  1.0000
  O   O11       1.0  0.7691177696518298  0.21830405164706576  0.5681299618671467  1.0000
