data_image0
_chemical_formula_structural       NC8NH4C6NH5C6H4Zn2C4O8
_chemical_formula_sum              "N3 C24 H13 Zn2 O8"
_cell_length_a       14.927258825633057
_cell_length_b       9.274771166103582
_cell_length_c       10.681121600428288
_cell_angle_alpha    85.45578074471726
_cell_angle_beta     89.9998652976436
_cell_angle_gamma    90.59705077502286

_space_group_name_H-M_alt    "P 1"
_space_group_IT_number       1

loop_
  _space_group_symop_operation_xyz
  'x, y, z'

loop_
  _atom_site_type_symbol
  _atom_site_label
  _atom_site_symmetry_multiplicity
  _atom_site_fract_x
  _atom_site_fract_y
  _atom_site_fract_z
  _atom_site_occupancy
  N   N1        1.0  0.8537918635452308  0.5786601177492735  0.6161555820270976  1.0000
  C   C1        1.0  0.776265439026363  0.5786600912909792  0.6161555904548373  1.0000
  C   C2        1.0  0.679832797278638  0.5786600910011622  0.6161556383094101  1.0000
  C   C3        1.0  0.6322086810456657  0.4903230727218364  0.53833208514473  1.0000
  C   C4        1.0  0.5384973689080144  0.4903229828675171  0.5383320605579881  1.0000
  C   C5        1.0  0.49201680021351824  0.5786601440576459  0.6161555619299646  1.0000
  C   C6        1.0  0.539640916517147  0.6669971726542916  0.6939790211885969  1.0000
  C   C7        1.0  0.6333522956463151  0.6669972625056446  0.6939790457804906  1.0000
  C   C8        1.0  0.3955841578378417  0.5786600464130482  0.616155514355757  1.0000
  N   N2        1.0  0.318057734017582  0.5786601276268548  0.6161555243062293  1.0000
  H   H1        1.0  0.6674599172211986  0.42159169096971416  0.4777810098809225  1.0000
  H   H2        1.0  0.5023562611849053  0.421591667289639  0.47778109439141664  1.0000
  H   H3        1.0  0.5043896803416142  0.735728554406414  0.7545300964524049  1.0000
  H   H4        1.0  0.6694933363072509  0.7357285677691685  0.7545301058479578  1.0000
  C   C9        1.0  0.08317876949690262  0.155063548340788  0.6168381525411056  1.0000
  C   C10       1.0  0.06256442697052124  0.23837229349993289  0.5048503399071426  1.0000
  C   C11       1.0  0.05031420126071384  0.1733229008540622  0.3921520126165547  1.0000
  C   C12       1.0  0.0587252830411078  0.023587289985624874  0.3906252134381605  1.0000
  C   C13       1.0  0.07768306597089071  0.9389591167525164  0.5010746410372351  1.0000
  C   C14       1.0  0.08867935972977037  0.0022455866165316182  0.615483857186319  1.0000
  N   N3        1.0  0.03025025753816246  0.25973114386583385  0.27893338898253384  1.0000
  H   H5        1.0  0.1839979082173666  0.2347238756344654  0.8909067801396634  1.0000
  H   H6        1.0  0.0497239672717873  0.9721000619239732  0.3039152207245141  1.0000
  H   H7        1.0  0.15295418801860938  0.705179282439375  0.8019475630562805  1.0000
  H   H8        1.0  0.02407803171078937  0.37180504554272464  0.2788927150172884  1.0000
  H   H9        1.0  0.02133327711976629  0.21226112367144334  0.19428286177312715  1.0000
  C   C15       1.0  0.08592907750135081  0.5786545293052667  0.24841576375381422  1.0000
  C   C16       1.0  0.021287901230966137  0.49842901142202284  0.18712152553638073  1.0000
  C   C17       1.0  0.0212878458999759  0.4984291039152053  0.056239385435628675  1.0000
  C   C18       1.0  0.08592900753589916  0.5786546000155528  0.9839061993171223  1.0000
  C   C19       1.0  0.15051682911347108  0.6588136349700278  0.04519996346856757  1.0000
  C   C20       1.0  0.15051681750672796  0.6588136126023398  0.1760922621673715  1.0000
  H   H10       1.0  0.9706190956224444  0.43554445887743104  0.24025888857960642  1.0000
  H   H11       1.0  0.9706190773538259  0.4355445267774867  0.01175485924552833  1.0000
  H   H12       1.0  0.2011922519122646  0.7217064740796498  0.9921069225460165  1.0000
  H   H13       1.0  0.20119220644819324  0.7217064235125965  0.2205312901112617  1.0000
  Zn  Zn1       1.0  0.9877689485403155  0.5786562476821473  0.6161628106528505  1.0000
  Zn  Zn2       1.0  0.18408058522817128  0.5786521556764903  0.6161585978683286  1.0000
  C   C21       1.0  0.08588973470826455  0.5729080187653863  0.8448919608078137  1.0000
  C   C22       1.0  0.085961954594443  0.584402204606701  0.38742956767073267  1.0000
  C   C23       1.0  0.0876350093238509  0.8421101169329124  0.6107495278617578  1.0000
  C   C24       1.0  0.08421660173895362  0.31519837337121537  0.6215720701539555  1.0000
  O   O1        1.0  0.16047219062384976  0.5863233309598019  0.4340822815025171  1.0000
  O   O2        1.0  0.16037548151740744  0.5709826984709498  0.7982356908185897  1.0000
  O   O3        1.0  0.16178380855600327  0.788366797287426  0.609164017241911  1.0000
  O   O4        1.0  0.15906379666439374  0.3689392424636122  0.6231538611679963  1.0000
  O   O5        1.0  0.012785670112576144  0.7883691608979926  0.6091675473480307  1.0000
  O   O6        1.0  0.011377354322366529  0.5709867951524417  0.7982391513823908  1.0000
  O   O7        1.0  0.01147406316209687  0.5863273773742155  0.4340842365240909  1.0000
  O   O8        1.0  0.010065669131984478  0.3689432785607061  0.6231559100956179  1.0000
