data_image0
_chemical_formula_structural       NC8NC6H8C7H8C7F3H5Zn2C4O8
_chemical_formula_sum              "N2 C32 H21 F3 Zn2 O8"
_cell_length_a       17.457602349358154
_cell_length_b       9.274341958901593
_cell_length_c       9.272291681409872
_cell_angle_alpha    86.0326854769446
_cell_angle_beta     93.27365386630078
_cell_angle_gamma    91.07026823974832

_space_group_name_H-M_alt    "P 1"
_space_group_IT_number       1

loop_
  _space_group_symop_operation_xyz
  'x, y, z'

loop_
  _atom_site_type_symbol
  _atom_site_label
  _atom_site_symmetry_multiplicity
  _atom_site_fract_x
  _atom_site_fract_y
  _atom_site_fract_z
  _atom_site_occupancy
  N   N1        1.0  0.7073896020280465  0.5995300156148464  0.4729992588325538  1.0000
  C   C1        1.0  0.6465611595875311  0.5484319874178486  0.46126630756239145  1.0000
  C   C2        1.0  0.5708879974685659  0.4848724798514487  0.4466811054398909  1.0000
  C   C3        1.0  0.5124153728086291  0.530208362226732  0.5298050174131579  1.0000
  C   C4        1.0  0.4381693073866453  0.46900694605186066  0.5158995723455411  1.0000
  C   C5        1.0  0.37610991127762594  0.5168773254399107  0.6039311026671368  1.0000
  C   C6        1.0  0.3012120565942663  0.5368308768254317  0.5419843368625359  1.0000
  C   C7        1.0  0.24274105704339574  0.5819636086437583  0.6252283522691733  1.0000
  C   C8        1.0  0.16639191266113815  0.6025679056493072  0.5608206222135017  1.0000
  N   N2        1.0  0.10502015853657146  0.6191266782784677  0.509036982711643  1.0000
  C   C9        1.0  0.25867631870578667  0.6074178003202408  0.7709835388449926  1.0000
  C   C10       1.0  0.3327886001344289  0.5879000000087058  0.8333602544087411  1.0000
  C   C11       1.0  0.39124875539516746  0.5429717274632593  0.7506243123916463  1.0000
  C   C12       1.0  0.4236828590977118  0.3617032754212681  0.41727980365687145  1.0000
  C   C13       1.0  0.48214365399861087  0.31668078867110094  0.3345997508026856  1.0000
  C   C14       1.0  0.5556065328306573  0.3780124316190798  0.3491157693453325  1.0000
  H   H1        1.0  0.5245567172718283  0.6143604167136102  0.6037061768268469  1.0000
  H   H2        1.0  0.2885365079875542  0.5191974400254822  0.4287060772191742  1.0000
  H   H3        1.0  0.2138636044642236  0.64229149566452  0.8362822956720932  1.0000
  H   H4        1.0  0.3449389113178345  0.60725927650103  0.9462221281870223  1.0000
  H   H5        1.0  0.44802296145003395  0.5267826663674235  0.8018428750606594  1.0000
  H   H6        1.0  0.3674437707868927  0.311259623933318  0.40550603102062954  1.0000
  H   H7        1.0  0.47050396820968343  0.233756513139842  0.25936652449839315  1.0000
  H   H8        1.0  0.600426991575564  0.34217813836366545  0.2843856611576687  1.0000
  C   C15       1.0  0.9086487558260264  0.18587520754282208  0.49148659616442675  1.0000
  C   C16       1.0  0.9172214241495337  0.26848811643780746  0.36025992151943387  1.0000
  C   C17       1.0  0.918166095709162  0.2024382506045317  0.22974138239612318  1.0000
  C   C18       1.0  0.9097187217218832  0.05237643548245763  0.22723466799346603  1.0000
  C   C19       1.0  0.9035321080839498  0.9682639126317627  0.3576108245735708  1.0000
  C   C20       1.0  0.9037684300714848  0.032770813388303566  0.490562825976081  1.0000
  C   C21       1.0  0.9124320436814063  0.9812912547189988  0.08712992516895501  1.0000
  H   H9        1.0  0.846063989899424  0.2638697281297602  0.8198305197376374  1.0000
  H   H10       1.0  0.9215604623060432  0.3852880217100269  0.3581751480630081  1.0000
  H   H11       1.0  0.924675757127604  0.2687599936289326  0.13024130863897526  1.0000
  H   H12       1.0  0.9002813534785866  0.8515836687306919  0.35547566046330026  1.0000
  H   H13       1.0  0.864691504503402  0.7352344126646462  0.7137875116043046  1.0000
  H   H14       1.0  0.972680596836293  0.954507001732834  0.06897459220797542  1.0000
  H   H15       1.0  0.8897196039054246  0.054202335176903885  0.9951018276328342  1.0000
  H   H16       1.0  0.877055675183207  0.8804262014337464  0.0896903847835877  1.0000
  C   C22       1.0  0.9046149740917834  0.6055419414110081  0.06752165740557414  1.0000
  C   C23       1.0  0.9567392811521869  0.5173323918287235  0.15251671678331852  1.0000
  C   C24       1.0  0.012958332941191088  0.44224957466111875  0.0888591464214996  1.0000
  C   C25       1.0  0.019287333551584636  0.4551367813124185  0.9385332638138937  1.0000
  C   C26       1.0  0.9656617672038157  0.5384937549008137  0.8522346621358835  1.0000
  C   C27       1.0  0.9078022172831886  0.6131041349174939  0.9145276927178289  1.0000
  C   C28       1.0  0.078695006730507  0.37070854369827677  0.8693817716382202  1.0000
  F   F1        1.0  0.14307867776816008  0.3495267591747815  0.9621499258163796  1.0000
  F   F2        1.0  0.10124378493160392  0.4440033569376547  0.7433119385645486  1.0000
  F   F3        1.0  0.04784102321740227  0.23774745137882666  0.8367010899606133  1.0000
  H   H17       1.0  0.7948901265927728  0.891606672586977  0.13750213520229937  1.0000
  H   H18       1.0  0.9550180535674031  0.5086359958380704  0.2694123020381549  1.0000
  H   H19       1.0  0.05200806093090041  0.3749259565018266  0.1576509699237753  1.0000
  H   H20       1.0  0.9678271169040669  0.5424479233327968  0.7354409303565288  1.0000
  H   H21       1.0  0.7331291357255142  0.7426734449051731  0.7852760068311574  1.0000
  Zn  Zn1       1.0  0.8221372449938372  0.6051813964696646  0.4834072986134277  1.0000
  Zn  Zn2       1.0  0.9902726138810298  0.6134635800223058  0.4986407630498362  1.0000
  C   C29       1.0  0.9072311610178178  0.6059300036778603  0.7544315583296688  1.0000
  C   C30       1.0  0.9051805239380002  0.6127168839619446  0.22761680924699235  1.0000
  C   C31       1.0  0.9046653552057152  0.8726380265021143  0.4849901227656639  1.0000
  C   C32       1.0  0.9077462826501643  0.34600712651450505  0.4970583183908936  1.0000
  O   O1        1.0  0.9691768601328031  0.6182616147595987  0.2871272319182414  1.0000
  O   O2        1.0  0.9708456841273351  0.6066701670176315  0.7064825687248828  1.0000
  O   O3        1.0  0.9687729089857708  0.8220402394501032  0.488906623596514  1.0000
  O   O4        1.0  0.9712495774348119  0.40289154885096595  0.5047030637044638  1.0000
  O   O5        1.0  0.8411602240636681  0.8157534248162035  0.47734499275277903  1.0000
  O   O6        1.0  0.8432329889287836  0.6003850841821159  0.69492085909523  1.0000
  O   O7        1.0  0.8415641587502197  0.6119764661961016  0.27556378844180607  1.0000
  O   O8        1.0  0.8436368765153971  0.3966063909388293  0.4931397283641541  1.0000
