data_image0
_chemical_formula_structural       NC5NC4H6C6ClH5C7NH3Zn2C4O8
_chemical_formula_sum              "N3 C26 H14 Cl1 Zn2 O8"
_cell_length_a       13.854160002989762
_cell_length_b       9.276545438789551
_cell_length_c       9.275157849593905
_cell_angle_alpha    86.141431454383
_cell_angle_beta     89.74088443434586
_cell_angle_gamma    89.40960627284836

_space_group_name_H-M_alt    "P 1"
_space_group_IT_number       1

loop_
  _space_group_symop_operation_xyz
  'x, y, z'

loop_
  _atom_site_type_symbol
  _atom_site_label
  _atom_site_symmetry_multiplicity
  _atom_site_fract_x
  _atom_site_fract_y
  _atom_site_fract_z
  _atom_site_occupancy
  N   N1        1.0  0.9029366782713288  0.5627576922469977  0.4112888968479406  1.0000
  C   C1        1.0  0.8306126760599127  0.5873965906290155  0.35227479128936684  1.0000
  C   C2        1.0  0.7406406013523533  0.6180480421528922  0.27885898417731986  1.0000
  C   C3        1.0  0.6530509683210651  0.589260618107537  0.3505436659751226  1.0000
  C   C4        1.0  0.5654981889539072  0.618048056256636  0.2788589610200236  1.0000
  C   C5        1.0  0.47550453542863097  0.5873964442186687  0.35227488279720254  1.0000
  N   N2        1.0  0.4031631081119013  0.5627576287608993  0.4112888967237575  1.0000
  C   C6        1.0  0.5655634341250786  0.676229379505173  0.13550892203532605  1.0000
  C   C7        1.0  0.6531058184701004  0.707165537222324  0.06372210275529144  1.0000
  C   C8        1.0  0.6531722900279973  0.7654773646595121  0.9088865884969439  1.0000
  C   C9        1.0  0.7406405234491413  0.6762293773111083  0.1355088317828801  1.0000
  H   H1        1.0  0.6530265419377314  0.5441181320824771  0.4614938981981145  1.0000
  H   H2        1.0  0.4977122743849435  0.6974761821169062  0.0798886019944749  1.0000
  H   H3        1.0  0.7176298256328555  0.8333965040127412  0.8851472589002917  1.0000
  H   H4        1.0  0.5879213477599106  0.8333965065157333  0.8851473239670855  1.0000
  H   H5        1.0  0.654018284001798  0.6742808900992283  0.8372999455090593  1.0000
  H   H6        1.0  0.8085352329550431  0.6974762937575272  0.0798885166597827  1.0000
  C   C10       1.0  0.15596836494409905  0.13932022574545663  0.4110513492410235  1.0000
  C   C11       1.0  0.15673603642473188  0.22169062649660143  0.27803492256716233  1.0000
  C   C12       1.0  0.14871342320923397  0.15535805114089812  0.14791362140140785  1.0000
  C   C13       1.0  0.13972990001843288  0.005775512562132601  0.14880686261455223  1.0000
  C   C14       1.0  0.14045878830085567  0.9218431822707175  0.27938177121799823  1.0000
  C   C15       1.0  0.15014072542635648  0.9861841502534042  0.4115389493219874  1.0000
  Cl  Cl1       1.0  0.14846317316707003  0.26039492317841173  0.9833872842409952  1.0000
  H   H7        1.0  0.20464881192247808  0.4044613564078352  0.6376259798871311  1.0000
  H   H8        1.0  0.16126745719749008  0.33838371208307816  0.2751816693627331  1.0000
  H   H9        1.0  0.1331010001895114  0.9540843757237537  0.04813725425758596  1.0000
  H   H10       1.0  0.13574790736699271  0.8055571953995744  0.2767317581635176  1.0000
  H   H11       1.0  0.11707914719756024  0.6896929241731088  0.6445740034172331  1.0000
  C   C16       1.0  0.15436335049403707  0.558676322057861  0.9880950259880213  1.0000
  C   C17       1.0  0.23723462563714823  0.6056834743618688  0.057818128889981495  1.0000
  C   C18       1.0  0.3150765237874061  0.6640291284412476  0.9779735622877695  1.0000
  C   C19       1.0  0.3109529072514794  0.6762952055675289  0.8273216771518994  1.0000
  C   C20       1.0  0.23007412542094724  0.6281204123512061  0.7562563602616059  1.0000
  C   C21       1.0  0.15174574364266147  0.5668279760009354  0.8344952897260991  1.0000
  C   C22       1.0  0.3988800146628644  0.713044376064033  0.05100541357138488  1.0000
  N   N3        1.0  0.466236567803177  0.7524394185915261  0.10971069892199271  1.0000
  H   H12       1.0  0.9198473153760874  0.5100584123822289  0.0959046256733913  1.0000
  H   H13       1.0  0.37074376634959294  0.7219060257508265  0.7645251457681006  1.0000
  H   H14       1.0  0.2298084263960007  0.6357013551089219  0.6391962852619306  1.0000
  Zn  Zn1       1.0  0.04729122679123088  0.5627538936502946  0.4112972258111587  1.0000
  Zn  Zn2       1.0  0.2588086053618601  0.562749741718896  0.41129239663011535  1.0000
  C   C23       1.0  0.1522778805437248  0.5595427850717816  0.6745041840196533  1.0000
  C   C24       1.0  0.15382424841515174  0.5659626709890522  0.1480855808642625  1.0000
  C   C25       1.0  0.15125504691629296  0.826053499567766  0.40570395123944913  1.0000
  C   C26       1.0  0.1548470215504416  0.29945022481587413  0.41688588948186966  1.0000
  O   O1        1.0  0.23391310695758918  0.5684001698898036  0.20177803634153468  1.0000
  O   O2        1.0  0.23272582692602745  0.5571010431606369  0.620807647827329  1.0000
  O   O3        1.0  0.2318987891274908  0.7723118300574607  0.403749558939015  1.0000
  O   O4        1.0  0.23474007284276951  0.3531893922687346  0.41883601718203545  1.0000
  O   O5        1.0  0.07135968712983365  0.77231424310337  0.40375360525330706  1.0000
  O   O6        1.0  0.07218671324002424  0.5571051878866529  0.6208116182982867  1.0000
  O   O7        1.0  0.07337399904012099  0.5684042476803681  0.2017802741175587  1.0000
  O   O8        1.0  0.07420096465817005  0.3531934607864575  0.41883836299994215  1.0000
