data_image0
_chemical_formula_structural       NC12NC2H8C6BrH5C6H6Zn2C4O8
_chemical_formula_sum              "N2 C30 H19 Br1 Zn2 O8"
_cell_length_a       19.240039667572717
_cell_length_b       9.276564384272257
_cell_length_c       10.681121600428288
_cell_angle_alpha    85.5120417802204
_cell_angle_beta     89.99986269578453
_cell_angle_gamma    90.58593109150864

_space_group_name_H-M_alt    "P 1"
_space_group_IT_number       1

loop_
  _space_group_symop_operation_xyz
  'x, y, z'

loop_
  _atom_site_type_symbol
  _atom_site_label
  _atom_site_symmetry_multiplicity
  _atom_site_fract_x
  _atom_site_fract_y
  _atom_site_fract_z
  _atom_site_occupancy
  N   N1        1.0  0.662260536645144  0.578229329723136  0.6175059331546715  1.0000
  C   C1        1.0  0.6021121682877714  0.5782294229786529  0.6175058540786084  1.0000
  C   C2        1.0  0.5272941317889325  0.578229553216747  0.6175057215864861  1.0000
  C   C3        1.0  0.49046733147682453  0.5066447452885032  0.7172742612994479  1.0000
  C   C4        1.0  0.4177959761838758  0.5065216193173021  0.7173577992706686  1.0000
  C   C5        1.0  0.38096189735870034  0.5782296560055991  0.6175055019654926  1.0000
  C   C6        1.0  0.4185034979442349  0.6499379003256809  0.5176533921040269  1.0000
  C   C7        1.0  0.4911735779254807  0.6498145128492645  0.5177370483850785  1.0000
  C   C8        1.0  0.3037568064885283  0.5782295686594858  0.6175054100204416  1.0000
  C   C9        1.0  0.2659488363278604  0.45246179021598  0.6579693696707893  1.0000
  C   C10       1.0  0.19327873334650442  0.45258049562357044  0.6578812227081277  1.0000
  C   C11       1.0  0.1574245188580257  0.5782294252223512  0.6175054688562953  1.0000
  C   C12       1.0  0.08260648107999728  0.5782292989169866  0.6175057087233875  1.0000
  N   N2        1.0  0.022458164004110593  0.5782292535833007  0.6175059097292993  1.0000
  C   C13       1.0  0.19451781564138826  0.7038784390224049  0.5771296639435743  1.0000
  C   C14       1.0  0.26718909824843  0.7039973444421419  0.5770413600532807  1.0000
  H   H1        1.0  0.5179088293322146  0.4512222224184689  0.7951703710466936  1.0000
  H   H2        1.0  0.3904336693600662  0.45198529551157507  0.7963289386573151  1.0000
  H   H3        1.0  0.39167927412809656  0.7044742541716011  0.4386822036641891  1.0000
  H   H4        1.0  0.5191618509838656  0.7052369243824725  0.4398412046595988  1.0000
  H   H5        1.0  0.2925539417175104  0.35346129337851123  0.6880936121663553  1.0000
  H   H6        1.0  0.16508064323198618  0.3545784569052244  0.689000823994667  1.0000
  H   H7        1.0  0.1672860821737573  0.80188045049431  0.5460100767069533  1.0000
  H   H8        1.0  0.2947704721095434  0.8029979291996096  0.5469170743233751  1.0000
  C   C15       1.0  0.8402686565186986  0.15474834187389017  0.6178261400902967  1.0000
  C   C16       1.0  0.8313617925853011  0.23824762860297044  0.50336930021735  1.0000
  C   C17       1.0  0.8289232693044647  0.17325875694214374  0.3899815433233658  1.0000
  C   C18       1.0  0.8353761677147807  0.02385159556250715  0.3888976266937694  1.0000
  C   C19       1.0  0.8430586068773888  0.9386589798806463  0.5016236860614556  1.0000
  C   C20       1.0  0.844456666024567  0.0016991438655546975  0.6171964651767015  1.0000
  Br  Br1       1.0  0.8325512089994586  0.9354938176381876  0.23330981297146594  1.0000
  H   H9        1.0  0.8198875873771541  0.4173007501688126  0.8214206584763805  1.0000
  H   H10       1.0  0.8279318590123176  0.3549040215770678  0.5012253956884785  1.0000
  H   H11       1.0  0.822677577483183  0.23947898827221922  0.3027514107267839  1.0000
  H   H12       1.0  0.8462744269647541  0.8224189970053711  0.49892374451038146  1.0000
  H   H13       1.0  0.8827978344453973  0.7037664824303449  0.8122388131030761  1.0000
  C   C21       1.0  0.8423626749597602  0.5782237375659234  0.24976609572470032  1.0000
  C   C22       1.0  0.7922187775002031  0.49802011226688236  0.1884032356807388  1.0000
  C   C23       1.0  0.7922187345633287  0.4980202047348277  0.057521095659109234  1.0000
  C   C24       1.0  0.8423626206708801  0.5782238082569167  0.9852565313484988  1.0000
  C   C25       1.0  0.8924651294863719  0.65836096876958  0.04661886045951502  1.0000
  C   C26       1.0  0.8924651204834575  0.6583609464079958  0.17751115913918558  1.0000
  H   H14       1.0  0.893071451414731  0.659331640222093  0.5429635382534523  1.0000
  H   H15       1.0  0.7529136234266056  0.43515272016447887  0.2414868096931191  1.0000
  H   H16       1.0  0.7529136092466394  0.4351527880460071  0.012982780417124749  1.0000
  H   H17       1.0  0.9317754166853254  0.7212366451757111  0.9935796156558228  1.0000
  H   H18       1.0  0.931775381417073  0.7212365946224566  0.22200398317781467  1.0000
  H   H19       1.0  0.8930716658512968  0.6593311377926774  0.6810345129135  1.0000
  Zn  Zn1       1.0  0.7662057813373351  0.5782254576888721  0.6175131501727176  1.0000
  Zn  Zn2       1.0  0.9185128799156083  0.5782213623700725  0.6175089217302572  1.0000
  C   C27       1.0  0.8423326909097758  0.57247879507644  0.846237377149995  1.0000
  C   C28       1.0  0.8423876425293187  0.5839698444992787  0.38878481626707395  1.0000
  C   C29       1.0  0.843661463295428  0.8416074360665637  0.6123252226636593  1.0000
  C   C30       1.0  0.8410588096045459  0.3148394709140987  0.622697038808095  1.0000
  O   O1        1.0  0.9001957409194795  0.5858904449535995  0.4354391688379915  1.0000
  O   O2        1.0  0.9001221508146839  0.5705539984631227  0.7995794556067638  1.0000
  O   O3        1.0  0.9011943721523856  0.7878787796798714  0.6106937347986581  1.0000
  O   O4        1.0  0.8991234676606973  0.3685656740543235  0.6243247957437297  1.0000
  O   O5        1.0  0.785595141617316  0.7878811460075885  0.6106972761540995  1.0000
  O   O6        1.0  0.7845229288438055  0.5705580973888628  0.7995829289023747  1.0000
  O   O7        1.0  0.7845965187463961  0.585894493625978  0.4354411365483762  1.0000
  O   O8        1.0  0.7835242454337645  0.36856971241219694  0.6243268573513366  1.0000
