data_image0
_chemical_formula_structural       NC5N2C2NH4C7NH5C6IH3Zn2C4O8
_chemical_formula_sum              "N5 C24 H12 I1 Zn2 O8"
_cell_length_a       13.87973921873968
_cell_length_b       9.275154477615127
_cell_length_c       9.275433903346869
_cell_angle_alpha    86.39417635758981
_cell_angle_beta     89.96562650524481
_cell_angle_gamma    89.4337086285363

_space_group_name_H-M_alt    "P 1"
_space_group_IT_number       1

loop_
  _space_group_symop_operation_xyz
  'x, y, z'

loop_
  _atom_site_type_symbol
  _atom_site_label
  _atom_site_symmetry_multiplicity
  _atom_site_fract_x
  _atom_site_fract_y
  _atom_site_fract_z
  _atom_site_occupancy
  N   N1        1.0  0.8975582458337481  0.5610504284056241  0.4167307185497773  1.0000
  C   C1        1.0  0.8243137178385629  0.584979158488772  0.3602076684252558  1.0000
  C   C2        1.0  0.7333466741775252  0.6147009745701091  0.28999993110441064  1.0000
  C   C3        1.0  0.6470752398248413  0.5847890371180446  0.36305307463282976  1.0000
  C   C4        1.0  0.5604672734327427  0.614700910379147  0.2899999707384706  1.0000
  C   C5        1.0  0.46983659710618275  0.5849790127205223  0.36020756465815396  1.0000
  N   N2        1.0  0.39686281485435626  0.561050403670603  0.4167307074623343  1.0000
  N   N3        1.0  0.5617835796156075  0.6718548684821481  0.15152060568220116  1.0000
  C   C6        1.0  0.6464153123992022  0.7017355981230355  0.08250915890917132  1.0000
  C   C7        1.0  0.646088132675321  0.7606052808730208  0.9290489202269799  1.0000
  N   N4        1.0  0.7313864785802451  0.6718548219423801  0.15152061624477042  1.0000
  H   H1        1.0  0.647333029799432  0.5390551407799906  0.47356162812963715  1.0000
  H   H2        1.0  0.710652310923013  0.8282251147849005  0.9069290987825559  1.0000
  H   H3        1.0  0.6467170775397497  0.669913273372011  0.8564949841661333  1.0000
  H   H4        1.0  0.5806475045907228  0.8282230433407544  0.9069283248333075  1.0000
  C   C8        1.0  0.1500039110844846  0.13764337670903992  0.4150631883782194  1.0000
  C   C9        1.0  0.1236181320959342  0.21947128877274436  0.28800815411324465  1.0000
  C   C10       1.0  0.08939258681564977  0.15215326553347142  0.16768341433654133  1.0000
  C   C11       1.0  0.08098901643563527  0.0020892450897163103  0.1729966241057792  1.0000
  C   C12       1.0  0.10826910665892941  0.9190228589647034  0.29715554006227124  1.0000
  C   C13       1.0  0.1444264325574975  0.9844464947161465  0.41841071307417216  1.0000
  C   C14       1.0  0.06172574615976467  0.23754670483588525  0.03909703557945954  1.0000
  N   N5        1.0  0.039489281855698215  0.30618747426587833  0.9357465241634927  1.0000
  H   H5        1.0  0.1685186958274445  0.21807608300539805  0.7687824527523627  1.0000
  H   H6        1.0  0.12755478812728582  0.3363852185512377  0.2837324535770074  1.0000
  H   H7        1.0  0.05417117061389409  0.9489792177587533  0.08051950458780799  1.0000
  H   H8        1.0  0.10321002137431566  0.8025539146741284  0.29702872196725694  1.0000
  H   H9        1.0  0.1609819479295358  0.6881966606638652  0.6554126816784274  1.0000
  C   C15       1.0  0.14741391660116054  0.5565447026468202  0.9935668114009828  1.0000
  C   C16       1.0  0.2361814304163436  0.5538454168402569  0.06701100388239346  1.0000
  C   C17       1.0  0.3229064487817399  0.5644325855920813  0.9909341122357347  1.0000
  C   C18       1.0  0.3222520266420592  0.5780556597896596  0.8404423217276098  1.0000
  C   C19       1.0  0.23513127118928367  0.5785755421185217  0.765468992400995  1.0000
  C   C20       1.0  0.14701641209039715  0.565545099588391  0.8399070141417058  1.0000
  I   I1        1.0  0.4548883852389505  0.562518524463866  0.10371093553753674  1.0000
  H   H10       1.0  0.9171852019180317  0.6419642895263045  0.0913940987746591  1.0000
  H   H11       1.0  0.3893889818147007  0.5868695166804787  0.7812662300217217  1.0000
  H   H12       1.0  0.9915718595048651  0.6169915795858065  0.5556348641974385  1.0000
  Zn  Zn1       1.0  0.04164678147726231  0.5610466460562129  0.4167390244125553  1.0000
  Zn  Zn2       1.0  0.25277433708497  0.5610425007365707  0.4167341679199975  1.0000
  C   C21       1.0  0.14712723890111865  0.5580998967799127  0.679907912801158  1.0000
  C   C22       1.0  0.14729617311854382  0.5639910707158282  0.1535654281078136  1.0000
  C   C23       1.0  0.1454784284573252  0.8243215924559357  0.41203551055244786  1.0000
  C   C24       1.0  0.1489449228929631  0.29776764356401286  0.42143790033804174  1.0000
  O   O1        1.0  0.2273785058138027  0.5664822764617141  0.2072605576004634  1.0000
  O   O2        1.0  0.2272858431121052  0.5556044527038839  0.6262086782205286  1.0000
  O   O3        1.0  0.22595332704266458  0.7705818547510745  0.40989982411433035  1.0000
  O   O4        1.0  0.2287109498225206  0.3515048835811798  0.42356930370135126  1.0000
  O   O5        1.0  0.06571009669223171  0.7705842632145075  0.40990388862528526  1.0000
  O   O6        1.0  0.06704260138356632  0.5556085926460124  0.6262126727440496  1.0000
  O   O7        1.0  0.06713526529398985  0.5664863477345197  0.20726281938218372  1.0000
  O   O8        1.0  0.06846770931595003  0.3515089456902327  0.42357167348246616  1.0000
