data_image0
_chemical_formula_structural       NC9NC4H8C9H10C7NC2NH8Zn2C4O8
_chemical_formula_sum              "N4 C35 H26 Zn2 O8"
_cell_length_a       16.32274767691083
_cell_length_b       9.27267660452572
_cell_length_c       9.27399911348925
_cell_angle_alpha    85.31615258212881
_cell_angle_beta     89.127461349941
_cell_angle_gamma    90.07922574154927

_space_group_name_H-M_alt    "P 1"
_space_group_IT_number       1

loop_
  _space_group_symop_operation_xyz
  'x, y, z'

loop_
  _atom_site_type_symbol
  _atom_site_label
  _atom_site_symmetry_multiplicity
  _atom_site_fract_x
  _atom_site_fract_y
  _atom_site_fract_z
  _atom_site_occupancy
  N   N1        1.0  0.7854824594897312  0.5816594318242567  0.4028112549307872  1.0000
  C   C1        1.0  0.7330719782525243  0.5295082882880242  0.342243794982934  1.0000
  C   C2        1.0  0.6679252717017137  0.464736162107847  0.2670185254595619  1.0000
  C   C3        1.0  0.6793507373782186  0.37613949391850277  0.16411897304967327  1.0000
  C   C4        1.0  0.5999229940348085  0.3329038157603882  0.11390739731085532  1.0000
  C   C5        1.0  0.5410808712973784  0.39617816193398037  0.1873992116888008  1.0000
  C   C6        1.0  0.4511193470535869  0.3794552870525194  0.16797990722093628  1.0000
  C   C7        1.0  0.3956294085759236  0.4532056950276029  0.2536311460526222  1.0000
  C   C8        1.0  0.3109003503190673  0.43891352506185144  0.237034178940559  1.0000
  C   C9        1.0  0.25500174741625536  0.5149311635942828  0.32531764129002116  1.0000
  N   N2        1.0  0.2100781955748091  0.5760368396435482  0.39628259408999256  1.0000
  C   C10       1.0  0.2806080184582688  0.3507516640202324  0.134648145712577  1.0000
  C   C11       1.0  0.3347761776465025  0.27709894056851847  0.04911073751422524  1.0000
  C   C12       1.0  0.4193458870997869  0.29100614704066374  0.06526048499105297  1.0000
  C   C13       1.0  0.5789674659729686  0.4884392014176757  0.2945517652579013  1.0000
  H   H1        1.0  0.7382087906612079  0.34168844919468944  0.12410368007334573  1.0000
  H   H2        1.0  0.5915237456428368  0.26049387104576494  0.02980751606261634  1.0000
  H   H3        1.0  0.41784066745027243  0.5220308890868506  0.33356082404661014  1.0000
  H   H4        1.0  0.21519935197788612  0.3389778745860712  0.1209759369708694  1.0000
  H   H5        1.0  0.311169766803257  0.20889752040895718  0.9699057638811223  1.0000
  H   H6        1.0  0.45904254950425405  0.23208870549800187  0.996836502745461  1.0000
  H   H7        1.0  0.5615989836578124  0.44888626276626864  0.4071965354887517  1.0000
  H   H8        1.0  0.5629027816851199  0.604196365308991  0.270413550714385  1.0000
  C   C14       1.0  0.9954691019458831  0.15540614225042915  0.397738742276466  1.0000
  C   C15       1.0  0.9622646379839338  0.2189185739957209  0.5177794854880284  1.0000
  C   C16       1.0  0.9365441496201693  0.13406560013518054  0.6412325010850144  1.0000
  C   C17       1.0  0.9431975459831108  0.9831623706070928  0.6487983547042546  1.0000
  C   C18       1.0  0.975063465755333  0.9182275457882602  0.5276662185910301  1.0000
  C   C19       1.0  9.932849475680021e-05  0.0022787627067422053  0.4013674429895604  1.0000
  C   C20       1.0  0.9144944093754988  0.8987361858232014  0.7878821399612881  1.0000
  C   C21       1.0  0.8731358162256124  0.753312792539846  0.7741479954346668  1.0000
  C   C22       1.0  0.9594387798997399  0.7590891492736371  0.8338893012964559  1.0000
  H   H9        1.0  0.01447162600847984  0.45601038108164516  0.1609418460949943  1.0000
  H   H10       1.0  0.957942078746964  0.33549953259842535  0.5177072059049399  1.0000
  H   H11       1.0  0.9119628283631656  0.18705924877032976  0.7322942694140765  1.0000
  H   H12       1.0  0.9789674419589878  0.8017640053843275  0.5289464123358119  1.0000
  H   H13       1.0  0.022567116923990053  0.9281988798218561  0.04762906743876116  1.0000
  H   H14       1.0  0.8909910553087053  0.9583904092172243  0.8791152605010585  1.0000
  H   H15       1.0  0.8697098943404622  0.7150522547197083  0.6641736972352226  1.0000
  H   H16       1.0  0.8253685785466156  0.7244484409799189  0.8581460351179533  1.0000
  H   H17       1.0  0.00841204866364875  0.7242085640649459  0.7602902627451624  1.0000
  H   H18       1.0  0.9621092993788757  0.7335946096937727  0.9528223596636153  1.0000
  C   C23       1.0  0.9992193533546356  0.5825141665863477  0.9756957531059562  1.0000
  C   C24       1.0  0.06315495744004784  0.5126156687175529  0.05289553952675852  1.0000
  C   C25       1.0  0.12161118262632796  0.4325233510931826  0.9829980347446493  1.0000
  C   C26       1.0  0.11769960790285137  0.4195701762355689  0.8337049722051808  1.0000
  C   C27       1.0  0.05501035795914033  0.491887457714703  0.7549380163317273  1.0000
  C   C28       1.0  0.996349048662716  0.5751707576013863  0.823410372478401  1.0000
  C   C29       1.0  0.18010405815069563  0.33249779470487995  0.7616731095422731  1.0000
  N   N3        1.0  0.24843626657452297  0.28120680758239747  0.8284411261860282  1.0000
  C   C30       1.0  0.28770299966216273  0.20853190512788466  0.7281991434408748  1.0000
  C   C31       1.0  0.24299003835679603  0.2163108697195915  0.6033759758054013  1.0000
  N   N4        1.0  0.17531764652510207  0.2942087469156316  0.6245859658872788  1.0000
  H   H19       1.0  0.9130031150683963  0.7656743425394601  0.24439376644074054  1.0000
  H   H20       1.0  0.0668897121209211  0.5168575526794663  0.1690080122578104  1.0000
  H   H21       1.0  0.16936712970353418  0.3787667638171688  0.04675938136353475  1.0000
  H   H22       1.0  0.05296242650435934  0.48801269171942474  0.6388474639476902  1.0000
  H   H23       1.0  0.868963886041247  0.6582473171172873  0.5399624796288554  1.0000
  H   H24       1.0  0.34535948157771146  0.15288314962540037  0.745441282403114  1.0000
  H   H25       1.0  0.2584527530606886  0.16795392140221077  0.5042351866152628  1.0000
  H   H26       1.0  0.12908766160029697  0.316678886823498  0.5496868902986409  1.0000
  Zn  Zn1       1.0  0.9080115739752184  0.58003293085843  0.4009355434209725  1.0000
  Zn  Zn2       1.0  0.08754898253089194  0.5776514055212316  0.39817007939317106  1.0000
  C   C32       1.0  0.9968583619955547  0.5708143968669088  0.6631496066726958  1.0000
  C   C33       1.0  0.9987041645211656  0.5868717316728596  0.1359561354059371  1.0000
  C   C34       1.0  0.9992393524447731  0.8422517037913072  0.3949298537580961  1.0000
  C   C35       1.0  0.9963231030758839  0.3154326924580044  0.4041759587935687  1.0000
  O   O1        1.0  0.06666473892783076  0.587424103077839  0.18869147756145566  1.0000
  O   O2        1.0  0.06516252192915384  0.5684534186286929  0.6083149211511946  1.0000
  O   O3        1.0  0.06708427827461749  0.7876424759456893  0.391725593545418  1.0000
  O   O4        1.0  0.06474292174124474  0.3682350578261169  0.4052806979318888  1.0000
  O   O5        1.0  0.9308175734975939  0.7894492793678781  0.3938249258183866  1.0000
  O   O6        1.0  0.9288958268809213  0.5702619551556712  0.6104141838872625  1.0000
  O   O7        1.0  0.9303980495351581  0.5892326043881533  0.19078900472461013  1.0000
  O   O8        1.0  0.9284762319224226  0.3700435478854902  0.40737833326651773  1.0000
