data_image0
_chemical_formula_structural       NC6NC3H6C9H10C6NCOH7Zn2C4O8
_chemical_formula_sum              "N3 C29 H23 O9 Zn2"
_cell_length_a       14.934028789175542
_cell_length_b       10.297183801781406
_cell_length_c       9.27373355559583
_cell_angle_alpha    86.14735742997276
_cell_angle_beta     89.98656969987877
_cell_angle_gamma    89.9601079490019

_space_group_name_H-M_alt    "P 1"
_space_group_IT_number       1

loop_
  _space_group_symop_operation_xyz
  'x, y, z'

loop_
  _atom_site_type_symbol
  _atom_site_label
  _atom_site_symmetry_multiplicity
  _atom_site_fract_x
  _atom_site_fract_y
  _atom_site_fract_z
  _atom_site_occupancy
  N   N1        1.0  0.8429555766179088  0.40553412323394206  0.40902653254429877  1.0000
  C   C1        1.0  0.7654694515865481  0.4045383657067015  0.4083483245165025  1.0000
  C   C2        1.0  0.6690728064066026  0.40329506687452393  0.40750170809059894  1.0000
  C   C3        1.0  0.6213186493675587  0.5001229761458312  0.4733297758672479  1.0000
  C   C4        1.0  0.527806837518436  0.49912470353670113  0.47265097533649825  1.0000
  C   C5        1.0  0.48113663797663847  0.4013479375550335  0.40617790140671484  1.0000
  C   C6        1.0  0.38449105279431  0.4034458493153068  0.4076054426238487  1.0000
  N   N2        1.0  0.30701107822961754  0.4051108099679568  0.4087387048431761  1.0000
  C   C7        1.0  0.5288851079310912  0.3031804299744392  0.33943856190365657  1.0000
  C   C8        1.0  0.48055963320040934  0.19687677272341464  0.2671697436020448  1.0000
  C   C9        1.0  0.623028076325686  0.30519734290776285  0.34080980415285  1.0000
  H   H1        1.0  0.6563695482905514  0.576414392617359  0.5251967763643859  1.0000
  H   H2        1.0  0.4917777402223395  0.5748285640936422  0.524118385055317  1.0000
  H   H3        1.0  0.4377980824226675  0.2402215781968971  0.17855706641337862  1.0000
  H   H4        1.0  0.4378261680576351  0.14104107324702309  0.3472971599190413  1.0000
  H   H5        1.0  0.528012492966006  0.12802229214854566  0.22035288568703937  1.0000
  H   H6        1.0  0.6605503210133045  0.23050057212258726  0.29002734966578103  1.0000
  C   C10       1.0  0.07499078899455601  0.02384886508054774  0.4090868161067134  1.0000
  C   C11       1.0  0.07236207533097011  0.03224460921747331  0.2574288816005852  1.0000
  C   C12       1.0  0.071015101331116  0.9199295072529625  0.1797300869342764  1.0000
  C   C13       1.0  0.0723515141857873  0.7970678415521399  0.2568410781341939  1.0000
  C   C14       1.0  0.07498448671341373  0.7867861680237956  0.40869083718636645  1.0000
  C   C15       1.0  0.07628608658061498  0.900643238613145  0.4838224661779455  1.0000
  C   C16       1.0  0.06817171413886491  0.9384422924080648  0.01570132212369479  1.0000
  C   C17       1.0  0.01573023127856676  0.8389973576285674  0.9355050552052647  1.0000
  C   C18       1.0  0.11774305059992501  0.8391682341390694  0.9308633981574429  1.0000
  H   H7        1.0  0.07601221913181905  0.34815216180202546  0.46752547745174405  1.0000
  H   H8        1.0  0.07134743486104189  0.12690819483129667  0.19888055155759218  1.0000
  H   H9        1.0  0.07136287772320798  0.7089185585971458  0.19991862523574144  1.0000
  H   H10       1.0  0.07831374556708501  0.8934383032508204  0.6008297476357498  1.0000
  H   H11       1.0  0.07994553569414917  0.5601505427304246  0.6954922819835623  1.0000
  H   H12       1.0  0.06725862158888217  0.03864883416886955  0.9629795930695115  1.0000
  H   H13       1.0  0.9858582187375143  0.7560213737259779  0.0011115796530114508  1.0000
  H   H14       1.0  0.9841275174447541  0.8789130615004429  0.833556064353147  1.0000
  H   H15       1.0  0.149838347778932  0.7562968555300049  0.9936511175747054  1.0000
  H   H16       1.0  0.1457623401119421  0.879181427624234  0.8262002332665253  1.0000
  C   C19       1.0  0.07493642614322595  0.4012247311109616  0.9856639924345809  1.0000
  C   C20       1.0  0.9926370682666655  0.3938437772479608  0.059670377739399864  1.0000
  C   C21       1.0  0.9111519513620029  0.3969895158221786  0.984769846888645  1.0000
  C   C22       1.0  0.9119422893925508  0.41173882992000294  0.8334139666134064  1.0000
  C   C23       1.0  0.9928952455434605  0.4171825737643269  0.7582054300241747  1.0000
  C   C24       1.0  0.07503883059490879  0.40941028077609404  0.8321137131427983  1.0000
  N   N3        1.0  0.8285871807014443  0.3925086437341075  0.06483791517338666  1.0000
  C   C25       1.0  0.7479145944410467  0.3327623849957078  0.01813658274830732  1.0000
  O   O1        1.0  0.7474443049759926  0.2640163489313194  0.9108217218310433  1.0000
  H   H17       1.0  0.2859428312343373  0.4912341974410324  0.08179973049492138  1.0000
  H   H18       1.0  0.9915906046654752  0.3875646553754908  0.17679423357922408  1.0000
  H   H19       1.0  0.8501010756329995  0.42044436378944666  0.7728332273450405  1.0000
  H   H20       1.0  0.9911520912626742  0.4251980638300743  0.6411611805884649  1.0000
  H   H21       1.0  0.2178613317017788  0.4645419455677781  0.5468901958903976  1.0000
  H   H22       1.0  0.8282662119064325  0.4270493596960998  0.16823918628305634  1.0000
  H   H23       1.0  0.686712361951278  0.34371270534721804  0.07858973511263743  1.0000
  Zn  Zn1       1.0  0.9768719847808413  0.4054085635446992  0.4089517898104835  1.0000
  Zn  Zn2       1.0  0.17309470164579305  0.4052258425523829  0.40882523612774335  1.0000
  C   C26       1.0  0.07501752058427041  0.40268795328939544  0.6721192595750807  1.0000
  C   C27       1.0  0.07495130859187132  0.40794809124989073  0.1456579055866658  1.0000
  C   C28       1.0  0.07498036146679161  0.64251923975713  0.40302255626574235  1.0000
  C   C29       1.0  0.0749884007744725  0.16811524485650906  0.41475468658687253  1.0000
  O   O2        1.0  0.149421801751486  0.4101295033695587  0.19930530088110632  1.0000
  O   O3        1.0  0.14947552919846896  0.40036687616084277  0.6183753985959699  1.0000
  O   O4        1.0  0.14944451909193324  0.5940336884909306  0.40107790671628707  1.0000
  O   O5        1.0  0.14945274488734972  0.21646269934958706  0.41660268473743534  1.0000
  O   O6        1.0  0.0005138745781010376  0.5941717068111902  0.4011743412363964  1.0000
  O   O7        1.0  0.0005448846583302453  0.4005064544704442  0.6184717554608161  1.0000
  O   O8        1.0  0.0004911570616372714  0.4102690196540358  0.1993999250021472  1.0000
  O   O9        1.0  0.0005221002069890616  0.21660220738764302  0.4166974169174357  1.0000
