data_image0
_chemical_formula_structural       NC5NC3H4C7NH5C7NH4Zn2C4O8
_chemical_formula_sum              "N4 C26 H13 Zn2 O8"
_cell_length_a       13.859018345313864
_cell_length_b       9.275154477615127
_cell_length_c       9.275157849593905
_cell_angle_alpha    86.33461140486662
_cell_angle_beta     89.74087919435236
_cell_angle_gamma    89.43370600770291

_space_group_name_H-M_alt    "P 1"
_space_group_IT_number       1

loop_
  _space_group_symop_operation_xyz
  'x, y, z'

loop_
  _atom_site_type_symbol
  _atom_site_label
  _atom_site_symmetry_multiplicity
  _atom_site_fract_x
  _atom_site_fract_y
  _atom_site_fract_z
  _atom_site_occupancy
  N   N1        1.0  0.9030464819469839  0.5626393050570055  0.41656690880388525  1.0000
  C   C1        1.0  0.830795570308516  0.5235985807578731  0.46765394909098185  1.0000
  C   C2        1.0  0.7409196707379753  0.4750371493748769  0.5311994319368422  1.0000
  C   C3        1.0  0.6531788627631466  0.5223788607409987  0.4692503692895381  1.0000
  C   C4        1.0  0.5656893685798584  0.4750368577781785  0.5311993052599158  1.0000
  C   C5        1.0  0.475555691730792  0.5235984671560663  0.4676538513514217  1.0000
  N   N2        1.0  0.4030975798273456  0.5626392705006596  0.4165668396569809  1.0000
  C   C6        1.0  0.5661231984493382  0.38033914386262313  0.6551158394271065  1.0000
  C   C7        1.0  0.6536809812583921  0.33317967290950445  0.7168265074451311  1.0000
  C   C8        1.0  0.7409885394177146  0.3803394409272394  0.6551160442132837  1.0000
  H   H1        1.0  0.6529842730911094  0.5956774745864376  0.3733356389219382  1.0000
  H   H2        1.0  0.4989266254169937  0.34307636978680345  0.703875551796803  1.0000
  H   H3        1.0  0.6538751124995775  0.2600298703535111  0.8125467050881905  1.0000
  H   H4        1.0  0.8083828822586738  0.34307690373501054  0.7038759791178177  1.0000
  C   C9        1.0  0.15587395046223662  0.13923391071842728  0.4148991882896804  1.0000
  C   C10       1.0  0.12978145444767963  0.22118933409099298  0.28783101550432594  1.0000
  C   C11       1.0  0.09581984540239484  0.15399206828708212  0.16749383382858096  1.0000
  C   C12       1.0  0.08738979640323173  0.00392271616075001  0.17280759370020093  1.0000
  C   C13       1.0  0.114385525134695  0.9207317251499794  0.2969793485890133  1.0000
  C   C14       1.0  0.1502793664134165  0.9860336695803512  0.41824705959114356  1.0000
  C   C15       1.0  0.06844838267939465  0.23951455580371397  0.038894158265903915  1.0000
  N   N3        1.0  0.04644932745329555  0.3082590469424975  0.935532959624143  1.0000
  H   H5        1.0  0.17349009385446879  0.21931163100133524  0.768655033994681  1.0000
  H   H6        1.0  0.13373519349105512  0.3381075546163078  0.2835548724842465  1.0000
  H   H7        1.0  0.060774034613217495  0.950905498535856  0.08032091183776657  1.0000
  H   H8        1.0  0.10931920802768391  0.8042629084546573  0.29685251773647464  1.0000
  H   H9        1.0  0.1662389713868393  0.6895459845362445  0.6552735384336512  1.0000
  C   C16       1.0  0.15438390209259434  0.5585582412626662  0.9933592191537163  1.0000
  C   C17       1.0  0.23723895026880437  0.6055618319127726  0.0632410750606127  1.0000
  C   C18       1.0  0.31506947774776684  0.6639030655138998  0.9835935573602449  1.0000
  C   C19       1.0  0.310950653038806  0.6761682135430082  0.8329831008367842  1.0000
  C   C20       1.0  0.23008708115743426  0.6279970704062554  0.7617550870229389  1.0000
  C   C21       1.0  0.15176943668533394  0.5667092777552618  0.8397870150443723  1.0000
  C   C22       1.0  0.39885696268749715  0.7129145993614119  0.05679094376196914  1.0000
  N   N4        1.0  0.4662006509705299  0.7523066570149626  0.1156292747121892  1.0000
  H   H10       1.0  0.9199368142064487  0.5099440169216323  0.10100464619213811  1.0000
  H   H11       1.0  0.37073299517464653  0.7217755780968982  0.7703406095538838  1.0000
  H   H12       1.0  0.22982354341146613  0.6355774389184055  0.6447206163081893  1.0000
  H   H13       1.0  0.9949686835444241  0.5279242201022996  0.5622271859164154  1.0000
  Zn  Zn1       1.0  0.04735042535267552  0.5626355051606973  0.41657520531917175  1.0000
  Zn  Zn2       1.0  0.2587936545076843  0.5626313512179254  0.4165703333691279  1.0000
  C   C23       1.0  0.15229939958981076  0.5594246386658517  0.6797713039035582  1.0000
  C   C24       1.0  0.1538469767678785  0.5658440382664727  0.15337438337636408  1.0000
  C   C25       1.0  0.15134963060945772  0.8259151652651264  0.41187119765350483  1.0000
  C   C26       1.0  0.15479668480488096  0.29935178012117847  0.42127455961517746  1.0000
  O   O1        1.0  0.23390842480077323  0.5682813516485617  0.20707506049787527  1.0000
  O   O2        1.0  0.23271847848997845  0.5569830808294853  0.6260665099188463  1.0000
  O   O3        1.0  0.23195044170288007  0.7721775657433216  0.40973528463624503  1.0000
  O   O4        1.0  0.2346763897022555  0.35308687600977806  0.4234061777640003  1.0000
  O   O5        1.0  0.07146761800292056  0.7721799803717585  0.4097393609183877  1.0000
  O   O6        1.0  0.0722356435781859  0.5569872270068563  0.6260705162063167  1.0000
  O   O7        1.0  0.07342559563723315  0.5682854308955507  0.20707733386434035  1.0000
  O   O8        1.0  0.07419356026914792  0.3530909459846284  0.4234085591410299  1.0000
