data_image0
_chemical_formula_structural       NC6NC3H6C6NH7C6NCH7Zn2C4O8
_chemical_formula_sum              "N4 C26 H20 Zn2 O8"
_cell_length_a       14.934028789175542
_cell_length_b       9.274771166103582
_cell_length_c       9.274690524155615
_cell_angle_alpha    85.95744674106099
_cell_angle_beta     89.66279847823098
_cell_angle_gamma    90.55950156128424

_space_group_name_H-M_alt    "P 1"
_space_group_IT_number       1

loop_
  _space_group_symop_operation_xyz
  'x, y, z'

loop_
  _atom_site_type_symbol
  _atom_site_label
  _atom_site_symmetry_multiplicity
  _atom_site_fract_x
  _atom_site_fract_y
  _atom_site_fract_z
  _atom_site_occupancy
  N   N1        1.0  0.8587062177813971  0.5638941178787591  0.40679257668479996  1.0000
  C   C1        1.0  0.7812152922053242  0.5627897955553689  0.406115854149818  1.0000
  C   C2        1.0  0.6848126524106027  0.5614109427722094  0.4052710925145502  1.0000
  C   C3        1.0  0.6375257292886375  0.6687959849985792  0.47095470378039717  1.0000
  C   C4        1.0  0.5440091008233613  0.6676888711300004  0.47027739255482176  1.0000
  C   C5        1.0  0.4968670884986154  0.559251518342069  0.40395019072868976  1.0000
  C   C6        1.0  0.4002316220680555  0.5615781625388567  0.40537460216307397  1.0000
  N   N2        1.0  0.3227596768753843  0.5634246509086303  0.40650538051801566  1.0000
  C   C7        1.0  0.5441418623721475  0.45038082270337254  0.33735730623900184  1.0000
  C   C8        1.0  0.4953034248242446  0.3324868904554483  0.26524708128404706  1.0000
  C   C9        1.0  0.6382945630060483  0.45261763925782583  0.3387255394804001  1.0000
  H   H1        1.0  0.6729447631635789  0.7534054424071523  0.5227078859697787  1.0000
  H   H2        1.0  0.5083453037881692  0.7516467117752215  0.5216318605264907  1.0000
  H   H3        1.0  0.4531668876933656  0.3807947442922195  0.17656338331241606  1.0000
  H   H4        1.0  0.45188464908012577  0.2703262489439293  0.34546415377018524  1.0000
  H   H5        1.0  0.5424240563958819  0.2561252286966813  0.21853294627885433  1.0000
  H   H6        1.0  0.6754563660304432  0.369776690655639  0.28805452428970946  1.0000
  C   C10       1.0  0.0879855662315045  0.14007245718184436  0.4074362613020486  1.0000
  C   C11       1.0  0.06780995833727016  0.22227697105304192  0.2785612072319512  1.0000
  C   C12       1.0  0.05599736455781912  0.15610775146897415  0.14886324149659558  1.0000
  C   C13       1.0  0.0644104513673307  0.0063482967291539315  0.14710083140218755  1.0000
  C   C14       1.0  0.08293615489477757  0.9228105745920061  0.27420636865939896  1.0000
  C   C15       1.0  0.09348883170599209  0.9872353276265111  0.40587418779334605  1.0000
  N   N3        1.0  0.03637662196745173  0.24139884141121223  0.018571295244163902  1.0000
  H   H7        1.0  0.187707943093132  0.22238424610242458  0.7228020064968921  1.0000
  H   H8        1.0  0.06329693384149149  0.33886941406295734  0.27801036542212354  1.0000
  H   H9        1.0  0.055745655243818665  0.9539990460857802  0.04731106972692789  1.0000
  H   H10       1.0  0.08689606825551044  0.8066065350238081  0.2700761700640901  1.0000
  H   H11       1.0  0.15701944896490216  0.6919773222596102  0.6204372265595113  1.0000
  H   H12       1.0  0.030207375758768844  0.3534785756172105  0.018528301162375135  1.0000
  H   H13       1.0  0.02778822767719568  0.1930874035995138  0.9211517392278604  1.0000
  C   C16       1.0  0.09214695869197542  0.5599593335400018  0.98341383785446  1.0000
  C   C17       1.0  0.16530194633192963  0.6222829945495616  0.05199112808930817  1.0000
  C   C18       1.0  0.23392315780631467  0.6955356880124544  0.9713159551112934  1.0000
  C   C19       1.0  0.22868728097716307  0.7061959440754934  0.8204031308162056  1.0000
  C   C20       1.0  0.15743750103957568  0.6430109691070669  0.7506155574164834  1.0000
  C   C21       1.0  0.08932739237548315  0.5673484042642862  0.8298965396270588  1.0000
  N   N4        1.0  0.308865447292655  0.7609201235198515  0.03987092290937744  1.0000
  C   C22       1.0  0.3209846728464536  0.7558301061916823  0.19615431245611226  1.0000
  H   H14       1.0  0.9888108123380001  0.3861889155134177  0.2767964819160762  1.0000
  H   H15       1.0  0.28063105490464074  0.7626090482523118  0.7562085322325234  1.0000
  H   H16       1.0  0.9473838327571259  0.49982064013677946  0.5546707164095466  1.0000
  H   H17       1.0  0.3579342687161424  0.8148275966995528  0.9751071312824631  1.0000
  H   H18       1.0  0.3840212026424723  0.8129212482812771  0.22168845479419289  1.0000
  H   H19       1.0  0.325255294247184  0.6417906867480856  0.24058613308657614  1.0000
  H   H20       1.0  0.26422611584140365  0.8099642841610204  0.24729196130032974  1.0000
  Zn  Zn1       1.0  0.9926219826714797  0.5637548471069183  0.4067180218436206  1.0000
  Zn  Zn2       1.0  0.18884382604483352  0.5635522087542397  0.4065917406348678  1.0000
  C   C23       1.0  0.08982104976109917  0.5602053091757531  0.6699038137777829  1.0000
  C   C24       1.0  0.09164691304345735  0.5671035657243884  0.14340608542739464  1.0000
  C   C25       1.0  0.0924631080668501  0.827053350927442  0.40042605055272684  1.0000
  C   C26       1.0  0.08900477626702673  0.30025379168245303  0.41288392873181334  1.0000
  O   O1        1.0  0.16594421921770564  0.5694180421635366  0.19705303380321681  1.0000
  O   O2        1.0  0.1644515767558713  0.5577359431149085  0.6161606080004691  1.0000
  O   O3        1.0  0.1665840634332736  0.7732191257020533  0.3985554054767937  1.0000
  O   O4        1.0  0.16381166601006591  0.35393486902087656  0.4146581282850228  1.0000
  O   O5        1.0  0.017654075745398002  0.773372186910936  0.39865163422897476  1.0000
  O   O6        1.0  0.015521600577825805  0.5578907366846926  0.6162567567087971  1.0000
  O   O7        1.0  0.017014248544547698  0.5695727703412126  0.1971474497692871  1.0000
  O   O8        1.0  0.014881694906295975  0.354089587824723  0.41475265232847236  1.0000
