data_image0
_chemical_formula_structural       NC8NC6H8C9H10C7OCH10Zn2C4O8
_chemical_formula_sum              "N2 C35 H28 O9 Zn2"
_cell_length_a       17.457602349358154
_cell_length_b       9.272676604525723
_cell_length_c       10.300835455316063
_cell_angle_alpha    85.82006583043875
_cell_angle_beta     92.89337507241441
_cell_angle_gamma    92.2282679722568

_space_group_name_H-M_alt    "P 1"
_space_group_IT_number       1

loop_
  _space_group_symop_operation_xyz
  'x, y, z'

loop_
  _atom_site_type_symbol
  _atom_site_label
  _atom_site_symmetry_multiplicity
  _atom_site_fract_x
  _atom_site_fract_y
  _atom_site_fract_z
  _atom_site_occupancy
  N   N1        1.0  0.7304570151739438  0.6134076555272019  0.6336898754089344  1.0000
  C   C1        1.0  0.6691152494697258  0.5623957474261001  0.6228535701313729  1.0000
  C   C2        1.0  0.5928035442401217  0.49894328269489163  0.6093827747817382  1.0000
  C   C3        1.0  0.5345177014901175  0.5435665650491619  0.6844654455718933  1.0000
  C   C4        1.0  0.45965627101973017  0.4824670073859336  0.6716192473582192  1.0000
  C   C5        1.0  0.3977931360563695  0.5295826690090687  0.7511340253634655  1.0000
  C   C6        1.0  0.32334153358533485  0.5500846629554261  0.69546645479166  1.0000
  C   C7        1.0  0.2650546590340767  0.5945036782063204  0.7706561777278331  1.0000
  C   C8        1.0  0.1891679487205279  0.6156781598634499  0.7127763399948952  1.0000
  N   N2        1.0  0.12816791378431994  0.6326953571256968  0.6662410706674939  1.0000
  C   C9        1.0  0.2807287042135419  0.6186908616332877  0.9020231021465901  1.0000
  C   C10       1.0  0.3543978920652274  0.5986209980333372  0.9580801032823573  1.0000
  C   C11       1.0  0.4126742725769267  0.5544020629661395  0.8833489163220221  1.0000
  C   C12       1.0  0.4443652028253545  0.3759914621742375  0.582254358794164  1.0000
  C   C13       1.0  0.5026409900945036  0.33167779343008963  0.5075729893935159  1.0000
  C   C14       1.0  0.5767183968149833  0.39290227796126614  0.5209696140068507  1.0000
  H   H1        1.0  0.5473027747394692  0.6270992714264081  0.751451383925184  1.0000
  H   H2        1.0  0.31089241033653353  0.5334366171416162  0.5933819497804775  1.0000
  H   H3        1.0  0.23605465295882452  0.6530045278972308  0.9610010395773304  1.0000
  H   H4        1.0  0.3663421179734008  0.6169990850330951  0.05979891765793599  1.0000
  H   H5        1.0  0.4690828749424198  0.5377596408502952  0.9293773884466778  1.0000
  H   H6        1.0  0.3876200709929397  0.32563449967820596  0.5713847896111799  1.0000
  H   H7        1.0  0.49037587277726624  0.24938491783882769  0.4393942677466267  1.0000
  H   H8        1.0  0.6213876266346973  0.3576227277257542  0.4624985385065097  1.0000
  C   C15       1.0  0.9271414200310083  0.19945724872979836  0.648129017000308  1.0000
  C   C16       1.0  0.89643830646326  0.26210258265371067  0.7531551986321092  1.0000
  C   C17       1.0  0.8727570639311673  0.17685348195627548  0.8619295846946069  1.0000
  C   C18       1.0  0.8790147653150299  0.026409941473207296  0.8693406556661343  1.0000
  C   C19       1.0  0.9084603788040886  0.9622536284287168  0.7632111290371419  1.0000
  C   C20       1.0  0.9314908135620688  0.046634976022494  0.6518137276591236  1.0000
  C   C21       1.0  0.852591740675824  0.9415535824893025  0.9919120932118017  1.0000
  C   C22       1.0  0.8138039659438575  0.7935737980658536  0.9758089555140443  1.0000
  C   C23       1.0  0.8948461288136944  0.8049656626968698  0.03738400751361592  1.0000
  H   H9        1.0  0.9441514845393675  0.4990375424882183  0.4367422706297415  1.0000
  H   H10       1.0  0.892388983128193  0.37842868941158336  0.7526989507839026  1.0000
  H   H11       1.0  0.8500348229475622  0.2292250703413432  0.9416564081671152  1.0000
  H   H12       1.0  0.9121216327202568  0.8460312476847901  0.7647165625368342  1.0000
  H   H13       1.0  0.9513566566472906  0.9706773904328398  0.3354985453460264  1.0000
  H   H14       1.0  0.8308798385177818  0.0006506876076794998  0.07189068392848996  1.0000
  H   H15       1.0  0.8102277960478833  0.7541172568344825  0.8765270029722311  1.0000
  H   H16       1.0  0.7693391488156048  0.7626600046194821  0.04708037461291569  1.0000
  H   H17       1.0  0.9404753772621997  0.7722994844684806  0.9755803676770669  1.0000
  H   H18       1.0  0.8977445850928251  0.7807037203653966  0.14466007420622906  1.0000
  C   C24       1.0  0.9292459955485811  0.622969140573449  0.2686487968303539  1.0000
  C   C25       1.0  6.215538440735029e-05  0.7001839000246322  0.26879843541559834  1.0000
  C   C26       1.0  0.03529220050019499  0.7405799819073051  0.15162073933996312  1.0000
  C   C27       1.0  0.00024642573665234696  0.7003844720028969  0.03351548547847249  1.0000
  C   C28       1.0  0.929386226691314  0.6231230805595784  0.0312939563858079  1.0000
  C   C29       1.0  0.894218148610841  0.5851745492050691  0.14932222491136526  1.0000
  C   C30       1.0  0.1121128900297339  0.819472242010912  0.15323839042150444  1.0000
  O   O1        1.0  0.17022063043625202  0.7170290085114058  0.16508867389359505  1.0000
  C   C31       1.0  0.2426607280524309  0.7897587662366403  0.16674977186181694  1.0000
  H   H19       1.0  0.9025438456490128  0.5919219456891922  0.5961227806156062  1.0000
  H   H20       1.0  0.028116144968305844  0.7291965310937861  0.35994173534613316  1.0000
  H   H21       1.0  0.028426808764158824  0.7295361046129988  0.9434948227032732  1.0000
  H   H22       1.0  0.8396052880683418  0.5256124383213003  0.14844473569279515  1.0000
  H   H23       1.0  0.7961324260379118  0.475958713210449  0.8199818502551618  1.0000
  H   H24       1.0  0.11653544856243558  0.8900780139212626  0.23655964365853732  1.0000
  H   H25       1.0  0.11671337387309656  0.8901086391129002  0.06146024473306144  1.0000
  H   H26       1.0  0.28769197409312236  0.7079690479620313  0.17608293712990686  1.0000
  H   H27       1.0  0.2507674867545215  0.8571139053363089  0.251819337438989  1.0000
  H   H28       1.0  0.2509551757781616  0.8571831614466989  0.0743239194654659  1.0000
  Zn  Zn1       1.0  0.8452277710356779  0.6189698027744424  0.6430909279485371  1.0000
  Zn  Zn2       1.0  0.013397084909308582  0.6271213852687822  0.6568505979241837  1.0000
  C   C32       1.0  0.9293284925492977  0.6173474005428684  0.8871125357734165  1.0000
  C   C33       1.0  0.9292982091668387  0.6287456965900886  0.4128292757215068  1.0000
  C   C34       1.0  0.9306637629711518  0.8864991269504244  0.6459423587645996  1.0000
  C   C35       1.0  0.9279628724758353  0.35959223435429766  0.6539995097275959  1.0000
  O   O2        1.0  0.9931350784191653  0.6337715515757768  0.4664392572180902  1.0000
  O   O3        1.0  0.9931282356985304  0.6185073197819102  0.8439454468776754  1.0000
  O   O4        1.0  0.9942056233834773  0.835850701315111  0.649198758755186  1.0000
  O   O5        1.0  0.9920576333844989  0.4164281775601815  0.661185843327383  1.0000
  O   O6        1.0  0.8665671651725614  0.829663007702877  0.6387556778430141  1.0000
  O   O7        1.0  0.8654897863688371  0.6123213592177449  0.833502304265908  1.0000
  O   O8        1.0  0.8654966285954083  0.6275855404321742  0.45599455318094173  1.0000
  O   O9        1.0  0.8644191835225348  0.4102421561188072  0.6507412366011083  1.0000
