data_image0
_chemical_formula_structural       NC12NC2H8C6SCOC6H10C7OC6H10Zn2C4O8
_chemical_formula_sum              "N2 C44 H28 S1 O10 Zn2"
_cell_length_a       19.240039667572717
_cell_length_b       10.302038109246572
_cell_length_c       10.299382801718286
_cell_angle_alpha    85.57853228507349
_cell_angle_beta     89.98040902502626
_cell_angle_gamma    90.01678309981642

_space_group_name_H-M_alt    "P 1"
_space_group_IT_number       1

loop_
  _space_group_symop_operation_xyz
  'x, y, z'

loop_
  _atom_site_type_symbol
  _atom_site_label
  _atom_site_symmetry_multiplicity
  _atom_site_fract_x
  _atom_site_fract_y
  _atom_site_fract_z
  _atom_site_occupancy
  N   N1        1.0  0.6549621120572493  0.42067403275137755  0.5676733336574704  1.0000
  C   C1        1.0  0.5948137432681296  0.4206741166976773  0.5676732517336991  1.0000
  C   C2        1.0  0.5199957061704815  0.4206742339303846  0.5676731144473697  1.0000
  C   C3        1.0  0.48349296085799975  0.3562431435416215  0.6710750460878769  1.0000
  C   C4        1.0  0.41082217953636646  0.35613230444811583  0.6711615708187979  1.0000
  C   C5        1.0  0.3736634712893289  0.4206743264319932  0.5676728867800087  1.0000
  C   C6        1.0  0.4108804414232191  0.4852165353931903  0.4641843973120365  1.0000
  C   C7        1.0  0.48355109660596896  0.4851054608786009  0.46427104450616685  1.0000
  C   C8        1.0  0.2964583808548307  0.4206742477721523  0.5676727913517101  1.0000
  C   C9        1.0  0.2592451525878023  0.3074480465378202  0.6095253421889335  1.0000
  C   C10       1.0  0.18657449767611456  0.30755490468647717  0.6094340338224784  1.0000
  C   C11       1.0  0.1501260939002354  0.4206741186411098  0.5676728522412817  1.0000
  C   C12       1.0  0.07530805668194482  0.4206740049705815  0.5676731008841667  1.0000
  N   N2        1.0  0.015159739785303902  0.42067396419467795  0.5676733092972823  1.0000
  C   C13       1.0  0.1866252010025363  0.5337934083956846  0.525911617781462  1.0000
  C   C14       1.0  0.2592959307508577  0.533900446592829  0.5258201468491925  1.0000
  H   H1        1.0  0.511185226090833  0.3063593151296691  0.7518084048905664  1.0000
  H   H2        1.0  0.3837061930232383  0.30704657392778123  0.7530105669719704  1.0000
  H   H3        1.0  0.38380989716176556  0.5343022929502679  0.38233535031471133  1.0000
  H   H4        1.0  0.5112886027700277  0.5349891891020627  0.38353796148319663  1.0000
  H   H5        1.0  0.2863187459638613  0.21831954667968054  0.6406786299839227  1.0000
  H   H6        1.0  0.1588399258284835  0.219325558621023  0.6416204350801054  1.0000
  H   H7        1.0  0.15892994939586788  0.6220227299327676  0.4937252310703373  1.0000
  H   H8        1.0  0.2864088162126153  0.6230290256006004  0.49466681429536363  1.0000
  C   C15       1.0  0.8349984432739898  0.039395564608055045  0.5676331454750034  1.0000
  C   C16       1.0  0.7755968387971671  0.044150225126198026  0.4881137680646215  1.0000
  C   C17       1.0  0.7463680806691315  0.9295573455316498  0.448064309458507  1.0000
  C   C18       1.0  0.775820397310769  0.8090176166287151  0.4880597619999665  1.0000
  C   C19       1.0  0.8351301022463359  0.8019424792962493  0.5677247196260387  1.0000
  C   C20       1.0  0.8644490453553654  0.9177845382514375  0.6070132895627092  1.0000
  S   S1        1.0  0.6709684251906388  0.9370730548593665  0.3454554741839895  1.0000
  C   C21       1.0  0.7220930527631796  0.9455400614122735  0.1990338301412133  1.0000
  O   O1        1.0  0.7388598320620144  0.8402636285254277  0.15268388744749117  1.0000
  C   C22       1.0  0.7450268011152155  0.07169394941517782  0.13353642347165118  1.0000
  C   C23       1.0  0.794184508249636  0.0740141627918025  0.03203011626188479  1.0000
  C   C24       1.0  0.8165330785436838  0.19233875573805204  0.970307159763415  1.0000
  C   C25       1.0  0.7901001494098049  0.3095828936420137  0.008808343817116484  1.0000
  C   C26       1.0  0.7411517088362218  0.3087350096012116  0.10896161004765294  1.0000
  C   C27       1.0  0.7185714180024744  0.19071411441761832  0.17100473843072495  1.0000
  H   H9        1.0  0.9468829869655557  0.2377376454904043  0.7176866124783954  1.0000
  H   H10       1.0  0.751956478121971  0.13666643625804717  0.456838045607495  1.0000
  H   H11       1.0  0.7524040353666618  0.721260202640876  0.4562955095749351  1.0000
  H   H12       1.0  0.9102437972925091  0.9131987150570631  0.6683141009687801  1.0000
  H   H13       1.0  0.8578009069116888  0.47193792836692816  0.5976912247964119  1.0000
  H   H14       1.0  0.815689997468637  0.9844438106541017  0.0007326095620709967  1.0000
  H   H15       1.0  0.8544600943492132  0.19307771899181958  0.8926097288961179  1.0000
  H   H16       1.0  0.8074813339767272  0.4010783848163921  0.9609341643671372  1.0000
  H   H17       1.0  0.7205574267650686  0.39968792083053706  0.13849846664890353  1.0000
  H   H18       1.0  0.6802374715541756  0.19336264839191397  0.24756983400042598  1.0000
  C   C28       1.0  0.8351335801680811  0.42059580983191514  0.18630912203546868  1.0000
  C   C29       1.0  0.9081509511531715  0.4214590597768062  0.18500556054106654  1.0000
  C   C30       1.0  0.9449785856510761  0.4204067358116008  0.06728978693056642  1.0000
  C   C31       1.0  0.9079815900564208  0.4214870898579131  0.9497599952424518  1.0000
  C   C32       1.0  0.8349949142885175  0.42074223048685705  0.9490486737913564  1.0000
  C   C33       1.0  0.7989942240238683  0.4199562716269445  0.06788902013738518  1.0000
  C   C34       1.0  0.0220756771404198  0.4227018385702195  0.06566156000586076  1.0000
  O   O2        1.0  0.05270944890688733  0.4833962431588599  0.9711419885595225  1.0000
  C   C35       1.0  0.06442045749874525  0.35613450394422697  0.17115972527488799  1.0000
  C   C36       1.0  0.12975628266991923  0.4065822626192194  0.20226719154802164  1.0000
  C   C37       1.0  0.1704065948533855  0.34366337381054984  0.30051404034212426  1.0000
  C   C38       1.0  0.1465720769697456  0.2293870397006703  0.3678642605750506  1.0000
  C   C39       1.0  0.08215763149771148  0.17749266276743314  0.3367336015318283  1.0000
  C   C40       1.0  0.04130926108882593  0.24003292948844315  0.23858876801076054  1.0000
  H   H19       1.0  0.6973392180687453  0.4209779427752416  0.39593392269257843  1.0000
  H   H20       1.0  0.936466083908902  0.4244088273709905  0.2756047552543288  1.0000
  H   H21       1.0  0.9363033780046655  0.42165839508768493  0.8588085293584848  1.0000
  H   H22       1.0  0.7427033326380715  0.4192915694793007  0.06808973262867823  1.0000
  H   H23       1.0  0.8069568433131391  0.42156080281353603  0.6212337373642982  1.0000
  H   H24       1.0  0.14906756406766108  0.49523417349413923  0.1513423559974827  1.0000
  H   H25       1.0  0.22044322858685403  0.38353760945328086  0.32439151354517404  1.0000
  H   H26       1.0  0.1781367681350241  0.18077135910703346  0.44380181315602535  1.0000
  H   H27       1.0  0.06397758265593745  0.08838495168403249  0.3882871441895428  1.0000
  H   H28       1.0  0.9921066209369303  0.1968773068920335  0.2145246794723441  1.0000
  Zn  Zn1       1.0  0.7589073739345404  0.42067054802521753  0.5676808146546588  1.0000
  Zn  Zn2       1.0  0.9112144929243127  0.42066685998829323  0.5676764259529441  1.0000
  C   C41       1.0  0.8350187026781947  0.41554209628172994  0.8048739790447375  1.0000
  C   C42       1.0  0.8351048276292934  0.4257969499468257  0.3304833891783632  1.0000
  C   C43       1.0  0.8351025596999399  0.6578038779055486  0.5625322043191427  1.0000
  C   C44       1.0  0.8350209183539045  0.18353360840513064  0.5728252329569694  1.0000
  O   O3        1.0  0.8928949349381956  0.42753543609427713  0.37886792411025083  1.0000
  O   O4        1.0  0.8928261744345553  0.4137998314377453  0.7564857392253046  1.0000
  O   O5        1.0  0.8928931106262967  0.6094292841954543  0.5607930417106533  1.0000
  O   O6        1.0  0.8928279467936543  0.23190599260715336  0.5745605242526222  1.0000
  O   O7        1.0  0.7772938680902554  0.6094314154090279  0.5607967163496481  1.0000
  O   O8        1.0  0.7772269321772142  0.41380352257186637  0.7564893448059544  1.0000
  O   O9        1.0  0.7772956930030771  0.4275390816834457  0.37886996828117003  1.0000
  O   O10       1.0  0.7772287048363923  0.2319096289284075  0.574562665790489  1.0000
