data_image0
_chemical_formula_structural       NC8NC6H8C12H9C6OCH6Zn2C4O8
_chemical_formula_sum              "N2 C37 H23 O9 Zn2"
_cell_length_a       17.457602349358154
_cell_length_b       10.299137764757564
_cell_length_c       9.273891588657152
_cell_angle_alpha    86.05603520339396
_cell_angle_beta     92.54290593679646
_cell_angle_gamma    91.70779885892506

_space_group_name_H-M_alt    "P 1"
_space_group_IT_number       1

loop_
  _space_group_symop_operation_xyz
  'x, y, z'

loop_
  _atom_site_type_symbol
  _atom_site_label
  _atom_site_symmetry_multiplicity
  _atom_site_fract_x
  _atom_site_fract_y
  _atom_site_fract_z
  _atom_site_occupancy
  N   N1        1.0  0.7272308475495075  0.4407651548764517  0.47544455449464446  1.0000
  C   C1        1.0  0.6661789292052174  0.39474206025525094  0.4636828849981774  1.0000
  C   C2        1.0  0.5902277294426901  0.33749513003567744  0.44906195358417067  1.0000
  C   C3        1.0  0.5314602817877591  0.378324652347245  0.5321519879291323  1.0000
  C   C4        1.0  0.45694555391304953  0.32320160648487795  0.5182120259734102  1.0000
  C   C5        1.0  0.3945730856434211  0.3663136850037559  0.6062075720222266  1.0000
  C   C6        1.0  0.3202136488838758  0.3842888910070408  0.5443263285619209  1.0000
  C   C7        1.0  0.2614458070756165  0.4249354306820403  0.627536216044853  1.0000
  C   C8        1.0  0.18565562853983983  0.44349688496172046  0.5631965049584606  1.0000
  N   N2        1.0  0.1247332397646303  0.4584139153308535  0.5114675472568648  1.0000
  C   C9        1.0  0.2765436121112558  0.44785443657235624  0.7731914977316104  1.0000
  C   C10       1.0  0.3501171442395827  0.4302716870645688  0.8355026665560736  1.0000
  C   C11       1.0  0.4088719089040071  0.38980927673691007  0.7528005909501749  1.0000
  C   C12       1.0  0.4424915062492817  0.22655885261454786  0.4195923419321714  1.0000
  C   C13       1.0  0.5012459728057833  0.1860115812567147  0.33694603925626454  1.0000
  C   C14       1.0  0.5749741459075965  0.24125189046270412  0.3514961738680116  1.0000
  H   H1        1.0  0.5435995482715653  0.45411614273409767  0.6060558895755304  1.0000
  H   H2        1.0  0.3082017015968015  0.3684123364012058  0.43112732382997687  1.0000
  H   H3        1.0  0.23149490638094644  0.4792616378571669  0.8384630868295024  1.0000
  H   H4        1.0  0.361616912986949  0.44770271655724914  0.9482869187737187  1.0000
  H   H5        1.0  0.4652027741889533  0.3752252721920641  0.8039652101827499  1.0000
  H   H6        1.0  0.3860330996919106  0.18112515332394083  0.40779037482250674  1.0000
  H   H7        1.0  0.48962467963035666  0.11132601209098936  0.26171207827498644  1.0000
  H   H8        1.0  0.6200210430408674  0.20897945529050063  0.2867920492836724  1.0000
  C   C15       1.0  0.92591141931033  0.0681877621533693  0.4936067821945683  1.0000
  C   C16       1.0  0.9263277311839115  0.07682555520488599  0.3418726743088152  1.0000
  C   C17       1.0  0.9266150954491025  0.9640756513514227  0.26478891396120363  1.0000
  C   C18       1.0  0.9264804747474575  0.8415739248681982  0.3414901535448636  1.0000
  C   C19       1.0  0.9260599520976517  0.8309817076251912  0.4933184657312908  1.0000
  C   C20       1.0  0.9257792991782949  0.9447987113752618  0.5684421778411997  1.0000
  C   C21       1.0  0.9270546039205597  0.974258456220449  0.10426913662765293  1.0000
  C   C22       1.0  0.9735437892817635  0.8933775472066088  0.030941674523086608  1.0000
  C   C23       1.0  0.9738621685471461  0.90320870377656  0.8798369783144642  1.0000
  C   C24       1.0  0.927888846670949  0.9935427727620092  0.8003690999208111  1.0000
  C   C25       1.0  0.8815012340624961  0.07429872595594422  0.8718443740022281  1.0000
  C   C26       1.0  0.8809899940168165  0.06495391129963712  0.022932566499897167  1.0000
  H   H9        1.0  0.9274909041458509  0.17152747767276866  0.28337623743067364  1.0000
  H   H10       1.0  0.9256438777060403  0.7542892759367263  0.28253893407430963  1.0000
  H   H11       1.0  0.9254560884927618  0.9374205606528383  0.6854779867696303  1.0000
  H   H12       1.0  0.9247785235271896  0.603676233034693  0.7798422426286931  1.0000
  H   H13       1.0  0.01034606851609455  0.8238039768316093  0.0904597432538472  1.0000
  H   H14       1.0  0.009947273847351834  0.840924299922076  0.8243361253648691  1.0000
  H   H15       1.0  0.9282099982219868  0.000964626774492935  0.6834104910087504  1.0000
  H   H16       1.0  0.8457380119846428  0.144021535299766  0.8101245372412478  1.0000
  H   H17       1.0  0.8438787884984749  0.12738158308480216  0.07604586705860752  1.0000
  C   C27       1.0  0.9272415533179177  0.4462007435812867  0.07030245530271964  1.0000
  C   C28       1.0  0.9900656454321215  0.5038478958161596  0.1445477816105607  1.0000
  C   C29       1.0  0.04854091213607759  0.571000290286573  0.07001171967489328  1.0000
  C   C30       1.0  0.04440120612808518  0.5808402617104719  0.9181919869223978  1.0000
  C   C31       1.0  0.9831883840729386  0.5224782329904685  0.8427507925760694  1.0000
  C   C32       1.0  0.9247298076288833  0.45296867992209705  0.9166227513139065  1.0000
  O   O1        1.0  0.10927000823202684  0.62695532181103  0.15070073082186886  1.0000
  C   C33       1.0  0.1724450693193345  0.6981129135101718  0.08932245256494388  1.0000
  H   H18       1.0  0.7447854033748004  0.3583290952769256  0.16481646583565857  1.0000
  H   H19       1.0  0.08859494307452057  0.6323977613006775  0.8572552138229557  1.0000
  H   H20       1.0  0.8030546669621204  0.3887114544761392  0.6301767786872069  1.0000
  H   H21       1.0  0.15187318654070214  0.7850896354540828  0.0230278076894328  1.0000
  H   H22       1.0  0.20441384488564926  0.6350736385433813  0.021832405691316167  1.0000
  H   H23       1.0  0.21171391448642707  0.7309008094021241  0.177712389682468  1.0000
  Zn  Zn1       1.0  0.8419414260797723  0.44585478944106804  0.48584833355012935  1.0000
  Zn  Zn2       1.0  0.010022609897432313  0.4533137263689284  0.5010755698897971  1.0000
  C   C34       1.0  0.9252018754518473  0.44651523117884734  0.7566519137631111  1.0000
  C   C35       1.0  0.9267639958660234  0.4526550059751453  0.23027229677282238  1.0000
  C   C36       1.0  0.9260449757499275  0.6867513203914932  0.48763031396010925  1.0000
  C   C37       1.0  0.9259208376817122  0.2124173543938581  0.499293968795624  1.0000
  O   O2        1.0  0.9903896554155869  0.4576460768540558  0.28973829588804567  1.0000
  O   O3        1.0  0.9891459463263238  0.4471843377154827  0.708742620252887  1.0000
  O   O4        1.0  0.9898258961677294  0.6411779917787983  0.49150569662885163  1.0000
  O   O5        1.0  0.9897096485419272  0.2636524286725046  0.5069751062673464  1.0000
  O   O6        1.0  0.8622543300774415  0.6355160845934757  0.47994879196869117  1.0000
  O   O7        1.0  0.8615743807644308  0.44152399035478523  0.6971856381690387  1.0000
  O   O8        1.0  0.8628180950376533  0.4519856703809921  0.27817958132351506  1.0000
  O   O9        1.0  0.8621380878384117  0.25799201377366066  0.4954164997436623  1.0000
