data_image0
_chemical_formula_structural       NC6NC3H6C7NH5C9H9Zn2C4O8
_chemical_formula_sum              "N3 C29 H20 Zn2 O8"
_cell_length_a       14.934028789175542
_cell_length_b       9.275154477615127
_cell_length_c       9.273585224739813
_cell_angle_alpha    86.3668502262391
_cell_angle_beta     90.07756044377105
_cell_angle_gamma    89.3962875590186

_space_group_name_H-M_alt    "P 1"
_space_group_IT_number       1

loop_
  _space_group_symop_operation_xyz
  'x, y, z'

loop_
  _atom_site_type_symbol
  _atom_site_label
  _atom_site_symmetry_multiplicity
  _atom_site_fract_x
  _atom_site_fract_y
  _atom_site_fract_z
  _atom_site_occupancy
  N   N1        1.0  0.8318519017147468  0.5610028438388788  0.41584297035163265  1.0000
  C   C1        1.0  0.75437185557831  0.5598980324305152  0.41515983401551537  1.0000
  C   C2        1.0  0.6579828006715465  0.55851856924682  0.414307064134233  1.0000
  C   C3        1.0  0.609637409167396  0.6659509999884226  0.4806143561690883  1.0000
  C   C4        1.0  0.516131692676732  0.6648433973744319  0.4799306149436596  1.0000
  C   C5        1.0  0.4700585214205756  0.5563581917904181  0.4129736206429202  1.0000
  C   C6        1.0  0.3734001275902267  0.5586858645305735  0.41441154499282584  1.0000
  N   N2        1.0  0.2959099880519969  0.5605331696391116  0.41555304757069833  1.0000
  C   C7        1.0  0.5184064049266571  0.4474394512494593  0.3457484268620423  1.0000
  C   C8        1.0  0.4707300251825395  0.3294934947892585  0.27295348665234354  1.0000
  C   C9        1.0  0.6125370580346878  0.44967725497374933  0.3471296512939386  1.0000
  H   H1        1.0  0.6442224707194961  0.7505977959768402  0.5328589409893305  1.0000
  H   H2        1.0  0.4796403455040616  0.748838288842633  0.5317727010243212  1.0000
  H   H3        1.0  0.4275868922199583  0.3776565988791407  0.18454884686726358  1.0000
  H   H4        1.0  0.42845441860111444  0.2674714991697982  0.352811045536509  1.0000
  H   H5        1.0  0.5186033063675404  0.25309812596683146  0.22579585125136958  1.0000
  H   H6        1.0  0.6505154035613387  0.36679974883462574  0.29597750478674256  1.0000
  C   C10       1.0  0.06647468796714673  0.13735917889974192  0.41402846042605845  1.0000
  C   C11       1.0  0.041763185450022194  0.21927584086519  0.2869593338155141  1.0000
  C   C12       1.0  0.009775309846534068  0.1520505551383189  0.16662661232438447  1.0000
  C   C13       1.0  0.001972831767689472  0.0019917656688059906  0.17194593205429332  1.0000
  C   C14       1.0  0.027511222452769598  0.9188372457077735  0.2961177505570267  1.0000
  C   C15       1.0  0.06129589133895919  0.9841658587262274  0.4173799989136384  1.0000
  C   C16       1.0  0.9838709073731206  0.2375347198569273  0.03802653060630678  1.0000
  N   N3        1.0  0.9630509503602682  0.30624840872861764  0.9346650051777763  1.0000
  H   H7        1.0  0.08420678459488551  0.2175964864642781  0.7678188626439302  1.0000
  H   H8        1.0  0.04541561122153581  0.3361882192316057  0.28268035742231046  1.0000
  H   H9        1.0  0.9769110145909622  0.9489534958152697  0.07946297619536158  1.0000
  H   H10       1.0  0.022809075393518393  0.8023731238431802  0.29599384088337155  1.0000
  H   H11       1.0  0.0770340246521572  0.6877811983660725  0.654427221968062  1.0000
  C   C17       1.0  0.06344277308726687  0.5564750285108702  0.992436007147294  1.0000
  C   C18       1.0  0.14355057115892422  0.5242811290264524  0.06821575806692826  1.0000
  C   C19       1.0  0.2247908508772335  0.5050631959107943  0.9958289660394102  1.0000
  C   C20       1.0  0.22519019285198538  0.5188505519493121  0.8438240076692916  1.0000
  C   C21       1.0  0.14605592611176973  0.5483325714389513  0.7670292102250045  1.0000
  C   C22       1.0  0.06432780542003111  0.5650499786032219  0.8389724038161126  1.0000
  C   C23       1.0  0.30798895104926466  0.4719139469463802  0.08716145382011109  1.0000
  C   C24       1.0  0.3786126076074767  0.37291365172424684  0.026488223571117468  1.0000
  C   C25       1.0  0.3961915737649444  0.5341099130220306  0.031018564834714324  1.0000
  H   H12       1.0  0.9157571327721836  0.5377950616387105  0.2737380438357173  1.0000
  H   H13       1.0  0.14316660698189598  0.5173231883935647  0.1853579933702394  1.0000
  H   H14       1.0  0.28600259927974414  0.5057612844724577  0.782800175915118  1.0000
  H   H15       1.0  0.9305011564297931  0.667632788590671  0.550790972594982  1.0000
  H   H16       1.0  0.30216050715093434  0.462620927304193  0.20689017622453898  1.0000
  H   H17       1.0  0.366795666118223  0.3358231530006741  0.9167710669360853  1.0000
  H   H18       1.0  0.4161882277292812  0.30536847520366717  0.10971911884096873  1.0000
  H   H19       1.0  0.3950129048629869  0.5947598742496127  0.9240399575043554  1.0000
  H   H20       1.0  0.4440328212784009  0.560802990686087  0.11690190233547758  1.0000
  Zn  Zn1       1.0  0.9657690870632817  0.5608635265413331  0.4157676067764631  1.0000
  Zn  Zn2       1.0  0.16199291732016863  0.5606607954862268  0.41564014863617693  1.0000
  C   C26       1.0  0.06419364158387532  0.5576851408766133  0.6789361693101861  1.0000
  C   C27       1.0  0.06357049457963604  0.5638409996218992  0.15247173338147202  1.0000
  C   C28       1.0  0.062264176271900236  0.8240431748093422  0.4110027095859734  1.0000
  C   C29       1.0  0.06549990360868008  0.2974812342352311  0.4204052631386346  1.0000
  O   O1        1.0  0.13807931850211608  0.5662298611361234  0.20613279045431399  1.0000
  O   O2        1.0  0.13861417073437898  0.5551413192579613  0.6251779552342431  1.0000
  O   O3        1.0  0.1370551008241955  0.7702288164342979  0.4088197974189014  1.0000
  O   O4        1.0  0.13963832127833223  0.3511423732485701  0.4224908402811862  1.0000
  O   O5        1.0  0.9881236161435377  0.7703819488496644  0.40891691516737305  1.0000
  O   O6        1.0  0.9896826753750716  0.5552961831979418  0.6252750029856848  1.0000
  O   O7        1.0  0.9891478216979019  0.5663846572775211  0.20622810506210842  1.0000
  O   O8        1.0  0.9907068246465048  0.3512971601718595  0.4225862629133701  1.0000
