data_image0
_chemical_formula_structural       NC6NC3H6C7NH5C6NH7Zn2C4O8
_chemical_formula_sum              "N4 C26 H18 Zn2 O8"
_cell_length_a       14.934028789175542
_cell_length_b       9.275154477615127
_cell_length_c       9.274774538082516
_cell_angle_alpha    85.29330631285735
_cell_angle_beta     90.32448570792074
_cell_angle_gamma    89.3962875590186

_space_group_name_H-M_alt    "P 1"
_space_group_IT_number       1

loop_
  _space_group_symop_operation_xyz
  'x, y, z'

loop_
  _atom_site_type_symbol
  _atom_site_label
  _atom_site_symmetry_multiplicity
  _atom_site_fract_x
  _atom_site_fract_y
  _atom_site_fract_z
  _atom_site_occupancy
  N   N1        1.0  0.8274093718860965  0.5908565419287086  0.4138500128880645  1.0000
  C   C1        1.0  0.7499274099966803  0.5897646043362303  0.41316601712852297  1.0000
  C   C2        1.0  0.6535359636252045  0.5884012117402984  0.41231217441540124  1.0000
  C   C3        1.0  0.6053765209362343  0.6945840707282711  0.4787028847036723  1.0000
  C   C4        1.0  0.5118688869962693  0.6934893533294034  0.47801828329383467  1.0000
  C   C5        1.0  0.4656079449327684  0.5862659632443876  0.4109770533781705  1.0000
  C   C6        1.0  0.3689535835447188  0.5885665380651988  0.41241678671671284  1.0000
  N   N2        1.0  0.2914666451785678  0.5903923313711246  0.41355972536818086  1.0000
  C   C7        1.0  0.5137673055064517  0.4786140924654563  0.34366728657253653  1.0000
  C   C8        1.0  0.4658867833148342  0.3620399685488831  0.27078076628795555  1.0000
  C   C9        1.0  0.6079018320504004  0.48082586678962214  0.34505024866142625  1.0000
  H   H1        1.0  0.6401080945588583  0.7782463089784962  0.5310131961111784  1.0000
  H   H2        1.0  0.4755229231470208  0.7765072722139322  0.5299255895960069  1.0000
  H   H3        1.0  0.42249573285298636  0.4118690725216618  0.18226490855959332  1.0000
  H   H4        1.0  0.42383512523140926  0.2985130441827768  0.3507387904132695  1.0000
  H   H5        1.0  0.5136278180129048  0.28653329307158715  0.22356380396441167  1.0000
  H   H6        1.0  0.6457367290852635  0.39891233121016656  0.2938337499149941  1.0000
  C   C10       1.0  0.06202706961866086  0.16724707172562736  0.41203322020829924  1.0000
  C   C11       1.0  0.03695922087152057  0.2515583721463379  0.28480423358417783  1.0000
  C   C12       1.0  0.0046338902717275605  0.18660077621946144  0.16432012685098044  1.0000
  C   C13       1.0  0.9968463294240193  0.03644174330041184  0.16964613858033006  1.0000
  C   C14       1.0  0.022732941274837604  0.9509471851288559  0.2939741721222411  1.0000
  C   C15       1.0  0.05685767187544785  0.013990591261641813  0.4153889751173059  1.0000
  C   C16       1.0  0.9783688482352485  0.2745084304925054  0.03555825909283273  1.0000
  N   N3        1.0  0.9572590293897267  0.34516998420113865  0.9320666991287774  1.0000
  H   H7        1.0  0.08075131815149961  0.24081714134770027  0.766268710387429  1.0000
  H   H8        1.0  0.04059964689811865  0.3685513885221079  0.28051987400118983  1.0000
  H   H9        1.0  0.9715251577247573  0.9851463298626187  0.07704683403014934  1.0000
  H   H10       1.0  0.018030446729566878  0.8344853983623107  0.2938501065633392  1.0000
  H   H11       1.0  0.07326056842834272  0.7131387372472882  0.6527344167343865  1.0000
  C   C17       1.0  0.05781286219191138  0.5943079000109528  0.9899103802250471  1.0000
  C   C18       1.0  0.12074241756780711  0.679324430473716  0.05694437351265314  1.0000
  C   C19       1.0  0.18776168077678412  0.7524607061499591  0.9764273609140459  1.0000
  C   C20       1.0  0.19239577755992998  0.7409119102411785  0.8274013400268214  1.0000
  C   C21       1.0  0.12973411569210247  0.6590711082485733  0.7586771912432648  1.0000
  C   C22       1.0  0.061071866555939304  0.5869297012844494  0.8375117682945836  1.0000
  N   N4        1.0  0.251720429144193  0.8372756303486428  0.046465161336329386  1.0000
  H   H12       1.0  0.9256874875881186  0.3126063126006031  0.11479749458152066  1.0000
  H   H13       1.0  0.11908884154617565  0.6861638373563157  0.17299260993500765  1.0000
  H   H14       1.0  0.24414466290786307  0.7965629860451592  0.7640587377696355  1.0000
  H   H15       1.0  0.13375152913305532  0.6550567355192398  0.6424857502602146  1.0000
  H   H16       1.0  0.9693039299509848  0.40158561112242075  0.570753205124019  1.0000
  H   H17       1.0  0.24906497925946797  0.8463193524217589  0.1578725416065403  1.0000
  H   H18       1.0  0.30218379474428825  0.8917942384855995  0.9874075591084918  1.0000
  Zn  Zn1       1.0  0.961326345888835  0.5907186448700521  0.4137745545013347  1.0000
  Zn  Zn2       1.0  0.15754981870856122  0.5905183157844278  0.41364693601163416  1.0000
  C   C23       1.0  0.060488917012035945  0.5825808046401748  0.6772741976925065  1.0000
  C   C24       1.0  0.058389379778442246  0.5986579717097609  0.15014744028476582  1.0000
  C   C25       1.0  0.05780807266083674  0.8539880884042456  0.409003662805729  1.0000
  C   C26       1.0  0.06107016804310781  0.3272489551719686  0.41841804529259874  1.0000
  O   O1        1.0  0.1330486880545697  0.6000355818347277  0.20387600594557911  1.0000
  O   O2        1.0  0.1347586893467082  0.5810500653503801  0.6234483527996904  1.0000
  O   O3        1.0  0.13259287556468813  0.8002148673656977  0.40681800441399996  1.0000
  O   O4        1.0  0.1352144343997854  0.3808707911432536  0.42050624620694466  1.0000
  O   O5        1.0  0.9836616632361307  0.8003661695812243  0.406915244341989  1.0000
  O   O6        1.0  0.9858274661432047  0.5812031004096259  0.6235455226425897  1.0000
  O   O7        1.0  0.9841174585458201  0.600188581756766  0.2039714404644395  1.0000
  O   O8        1.0  0.9862832053663602  0.3810237798114462  0.42060178888609534  1.0000
