data_image0
_chemical_formula_structural       NC9NC4H8C9H10C6NO2H3Zn2C4O8
_chemical_formula_sum              "N3 C32 H21 O10 Zn2"
_cell_length_a       16.32274767691083
_cell_length_b       9.27267660452572
_cell_length_c       9.273395971720356
_cell_angle_alpha    85.21432368177585
_cell_angle_beta     89.35243876569035
_cell_angle_gamma    90.07922574154927

_space_group_name_H-M_alt    "P 1"
_space_group_IT_number       1

loop_
  _space_group_symop_operation_xyz
  'x, y, z'

loop_
  _atom_site_type_symbol
  _atom_site_label
  _atom_site_symmetry_multiplicity
  _atom_site_fract_x
  _atom_site_fract_y
  _atom_site_fract_z
  _atom_site_occupancy
  N   N1        1.0  0.7819227184875277  0.5844926628735742  0.40255664232391286  1.0000
  C   C1        1.0  0.7293772472741885  0.5324489591177887  0.3419795271371804  1.0000
  C   C2        1.0  0.664062882093707  0.4678102740039627  0.26674226572992077  1.0000
  C   C3        1.0  0.6752590099684319  0.3793961379090554  0.16382630979642543  1.0000
  C   C4        1.0  0.595719357368527  0.33624952937145847  0.11360672968102126  1.0000
  C   C5        1.0  0.5370410298154638  0.3993935094308332  0.18711025960761507  1.0000
  C   C6        1.0  0.4470362247167565  0.38270508218528576  0.16768785945068432  1.0000
  C   C7        1.0  0.3917371817908556  0.45630355461109917  0.25335275220102504  1.0000
  C   C8        1.0  0.3069711329751042  0.4420408257760162  0.23675313931708497  1.0000
  C   C9        1.0  0.251269292203075  0.5179018594942437  0.32505067519577935  1.0000
  N   N2        1.0  0.2065039037928332  0.5788816517941358  0.39602694072988176  1.0000
  C   C10       1.0  0.2764506078205203  0.3540605859042516  0.13435078442711612  1.0000
  C   C11       1.0  0.3304281251574849  0.28055959607922043  0.048799740456189504  1.0000
  C   C12       1.0  0.4150338284270579  0.29443815473742907  0.06495206241228146  1.0000
  C   C13       1.0  0.5751664411867066  0.49146447248009173  0.2942798946838836  1.0000
  H   H1        1.0  0.7340278790021816  0.34501607576063154  0.12380463786326423  1.0000
  H   H2        1.0  0.5871326710194046  0.2639887682743205  0.02949344182065338  1.0000
  H   H3        1.0  0.4141265842646547  0.5249869625188017  0.3332951720226418  1.0000
  H   H4        1.0  0.2110114693485217  0.3423110494122925  0.12067639615796  1.0000
  H   H5        1.0  0.306645185902622  0.2124986765281501  0.969582140522734  1.0000
  H   H6        1.0  0.4545779905989224  0.2356420895515781  0.9965171724962304  1.0000
  H   H7        1.0  0.558049016367737  0.451711714826988  0.40694262195248965  1.0000
  H   H8        1.0  0.5590479587536507  0.6072644548167103  0.2701378321958148  1.0000
  C   C14       1.0  0.9918980555601828  0.15824837135986602  0.39748332104526707  1.0000
  C   C15       1.0  0.9589611328997011  0.22154786448916755  0.5175432003086293  1.0000
  C   C16       1.0  0.9335157909535547  0.13647589902979407  0.6410158959179029  1.0000
  C   C17       1.0  0.9401860497439516  0.985559248538495  0.648582955632364  1.0000
  C   C18       1.0  0.971781995768275  0.9208392983424429  0.5274315094851518  1.0000
  C   C19       1.0  0.996536369590735  0.005114554914115389  0.40111260022033113  1.0000
  C   C20       1.0  0.9117928966962967  0.9008863449494133  0.7876889126491522  1.0000
  C   C21       1.0  0.8704036935151588  0.7554873144752934  0.7739525787217147  1.0000
  C   C22       1.0  0.9568398058710922  0.7611576969319571  0.8337034081227043  1.0000
  H   H9        1.0  0.010372817563890857  0.4592726609338096  0.1606486763664916  1.0000
  H   H10       1.0  0.9546384125693124  0.3381289513076262  0.5174709092032379  1.0000
  H   H11       1.0  0.9091374239882437  0.18930801445214504  0.7320921806742136  1.0000
  H   H12       1.0  0.9756888252090185  0.8043734870205127  0.5287119073094246  1.0000
  H   H13       1.0  0.018215762156681414  0.9316621636466349  0.047317834183292946  1.0000
  H   H14       1.0  0.8884928788231419  0.9603787311713193  0.8789365769319374  1.0000
  H   H15       1.0  0.8667326659593749  0.717421858543409  0.6639607491924011  1.0000
  H   H16       1.0  0.8228236668135048  0.7264739599532256  0.8579640087822642  1.0000
  H   H17       1.0  0.005649040474315244  0.7264076680409629  0.7600926369298384  1.0000
  H   H18       1.0  0.9597753978945307  0.7354521836429448  0.9526554259623294  1.0000
  C   C23       1.0  0.9947076769163627  0.5861050519236446  0.9753730527469662  1.0000
  C   C24       1.0  0.9218685039436589  0.619982152532175  0.047223772800457635  1.0000
  C   C25       1.0  0.8487253367364089  0.6402278525255997  0.9720034663756777  1.0000
  C   C26       1.0  0.846345411223722  0.6270111184996594  0.8226875426905993  1.0000
  C   C27       1.0  0.919154336324944  0.5956053496361626  0.7494104064273048  1.0000
  C   C28       1.0  0.9937266985636687  0.5772578856069996  0.8232228747601279  1.0000
  N   N3        1.0  0.7705000563829973  0.6468119576534308  0.7457986092656563  1.0000
  O   O1        1.0  0.6994730903508377  0.678741717804987  0.8178009489088955  1.0000
  O   O2        1.0  0.767825870988167  0.6349631913607527  0.6127922671363915  1.0000
  H   H19       1.0  0.17309148147875958  0.42219634135262796  0.08834573233394938  1.0000
  H   H20       1.0  0.7937201628051535  0.664866511186202  0.031336861315066855  1.0000
  H   H21       1.0  0.11538332792422668  0.47110072633032046  0.5494458082784979  1.0000
  Zn  Zn1       1.0  0.9044476524732518  0.5828694892064814  0.40068063180134916  1.0000
  Zn  Zn2       1.0  0.08397889748956922  0.5804928694877168  0.3979147269227046  1.0000
  C   C29       1.0  0.9938788511684026  0.5731858173107103  0.6629364953765531  1.0000
  C   C30       1.0  0.9945496690708399  0.5901783333320324  0.13565898263100196  1.0000
  C   C31       1.0  0.9956620457372037  0.845098915549282  0.39467398475362625  1.0000
  C   C32       1.0  0.9927664036630425  0.31826350267799364  0.40392156373819477  1.0000
  O   O3        1.0  0.06262777758880889  0.5906371582421135  0.18840273148421494  1.0000
  O   O4        1.0  0.062060798070513463  0.5709221095635861  0.6080930684947894  1.0000
  O   O5        1.0  0.06349983005888511  0.7904953716965876  0.39146921374030086  1.0000
  O   O6        1.0  0.06118868452031357  0.37106390836461056  0.40502647898626587  1.0000
  O   O7        1.0  0.9272378041773226  0.7922984511422597  0.3935688806740685  1.0000
  O   O8        1.0  0.9257987817627611  0.572726922237399  0.6101926658805723  1.0000
  O   O9        1.0  0.9263657630684511  0.5924419387779711  0.19050059302041067  1.0000
  O   O10       1.0  0.9249266698148938  0.3728686774576432  0.4071244487111805  1.0000
