data_image0
_chemical_formula_structural       NC8NC6H8C12H10C8H6Zn2C4O8
_chemical_formula_sum              "N2 C38 H24 Zn2 O8"
_cell_length_a       17.457602349358154
_cell_length_b       10.299137764757564
_cell_length_c       9.275144076552241
_cell_angle_alpha    85.93860642642608
_cell_angle_beta     93.32514331016303
_cell_angle_gamma    91.70779885892506

_space_group_name_H-M_alt    "P 1"
_space_group_IT_number       1

loop_
  _space_group_symop_operation_xyz
  'x, y, z'

loop_
  _atom_site_type_symbol
  _atom_site_label
  _atom_site_symmetry_multiplicity
  _atom_site_fract_x
  _atom_site_fract_y
  _atom_site_fract_z
  _atom_site_occupancy
  N   N1        1.0  0.7161910447905239  0.4430935126525139  0.4744063264274945  1.0000
  C   C1        1.0  0.6550539563648569  0.39708838089039666  0.4626366471892868  1.0000
  C   C2        1.0  0.5789968816737138  0.3398637803010447  0.4480057588652795  1.0000
  C   C3        1.0  0.5208311160324546  0.3805664044219625  0.5311523778402143  1.0000
  C   C4        1.0  0.4462154443508713  0.32546464818793464  0.5172029227172876  1.0000
  C   C5        1.0  0.3844801805036285  0.36844233663624726  0.6052583940682376  1.0000
  C   C6        1.0  0.3096726414961157  0.38651204997596833  0.5433350092453599  1.0000
  C   C7        1.0  0.25150734959715426  0.427031508416148  0.6266015629787085  1.0000
  C   C8        1.0  0.17525126624823492  0.4456912246954552  0.5622180363039236  1.0000
  N   N2        1.0  0.11395429123436991  0.46068725745263944  0.5104538509850385  1.0000
  C   C9        1.0  0.26765989198942197  0.4497280641432115  0.772356036467261  1.0000
  C   C10       1.0  0.3416846395953702  0.43205015070098307  0.8347096394351077  1.0000
  C   C11       1.0  0.3998405315817694  0.3917140460589594  0.7519512434006144  1.0000
  C   C12       1.0  0.4310472594196279  0.22897250996683383  0.4185160782954622  1.0000
  C   C13       1.0  0.4892032571680641  0.18855145911614235  0.3358134931725396  1.0000
  C   C14       1.0  0.5630367925357788  0.2437695468154195  0.3503735364813953  1.0000
  H   H1        1.0  0.5335055447497509  0.45624502602166345  0.6051066083252175  1.0000
  H   H2        1.0  0.2968409833297563  0.3708083771001398  0.43005891555988995  1.0000
  H   H3        1.0  0.22308383910458998  0.4810355802296384  0.8376720757660219  1.0000
  H   H4        1.0  0.3540011158639179  0.4493089318891212  0.9475706981582357  1.0000
  H   H5        1.0  0.4565418965466265  0.37705190100475994  0.8031507059338316  1.0000
  H   H6        1.0  0.3745033909727316  0.18355683507932308  0.4067060740012285  1.0000
  H   H7        1.0  0.4770371703661024  0.11398079005365112  0.2605282975771819  1.0000
  H   H8        1.0  0.6076151460190234  0.2115959301886896  0.28562534814168283  1.0000
  C   C15       1.0  0.9150031351603034  0.07048838189981788  0.4925809226736823  1.0000
  C   C16       1.0  0.9143206909159578  0.07935790892403549  0.34074348328233217  1.0000
  C   C17       1.0  0.9140498665546424  0.9667257302561942  0.26360722860022445  1.0000
  C   C18       1.0  0.9144706645220071  0.8441068627872846  0.34036070202028257  1.0000
  C   C19       1.0  0.9151495801541664  0.8332827676992653  0.4922924098657955  1.0000
  C   C20       1.0  0.9154129225133418  0.9469850397222785  0.5674672815098822  1.0000
  C   C21       1.0  0.9133269990128802  0.9771536868990495  0.1029781366867073  1.0000
  C   C22       1.0  0.9592851963271505  0.8963847663124543  0.02960073830106057  1.0000
  C   C23       1.0  0.958509377249654  0.9064466955941847  0.8783931392185909  1.0000
  C   C24       1.0  0.9119606025713121  0.9969021308790038  0.7988711428969686  1.0000
  C   C25       1.0  0.8660905657127796  0.07754892437612759  0.870395091912365  1.0000
  C   C26       1.0  0.8666734045012302  0.06797336221312267  0.021586176044792186  1.0000
  H   H9        1.0  0.9152264788187497  0.39455077979047376  0.5509840927378222  1.0000
  H   H10       1.0  0.9150602721173339  0.17414916932585722  0.2822072101077975  1.0000
  H   H11       1.0  0.9132071824910836  0.7569122463506409  0.28136933654465673  1.0000
  H   H12       1.0  0.9159372062565078  0.9394281475597848  0.6845827922701158  1.0000
  H   H13       1.0  0.9159429636163079  0.6055397033405938  0.7790113105469589  1.0000
  H   H14       1.0  0.9965184652911895  0.8267202977293551  0.0891593390633989  1.0000
  H   H15       1.0  0.9941925827886375  0.8442470547064557  0.8228544899766717  1.0000
  H   H16       1.0  0.9114348187241256  0.004502608428821557  0.6818328847266106  1.0000
  H   H17       1.0  0.8298804101854627  0.14736599455007116  0.8086332237073899  1.0000
  H   H18       1.0  0.8299468096992625  0.13031991739033932  0.07473564696355095  1.0000
  C   C27       1.0  0.9132679846026837  0.4491478494388603  0.06898832392237453  1.0000
  C   C28       1.0  0.8632416438190836  0.5316376666271032  0.1303948707643643  1.0000
  C   C29       1.0  0.8193751772454786  0.6208350239081835  0.043448223201641545  1.0000
  C   C30       1.0  0.8247416544448379  0.6293720299041914  0.8935008003536735  1.0000
  C   C31       1.0  0.8731745772764502  0.5467164880499786  0.8301940540427659  1.0000
  C   C32       1.0  0.9168847379585895  0.4546233370541228  0.9158850366194623  1.0000
  C   C33       1.0  0.7797611166311137  0.7220903908246433  0.8040818623677359  1.0000
  C   C34       1.0  0.7421035181189787  0.7997175241395995  0.7292012455653425  1.0000
  H   H19       1.0  0.07279284000988899  0.2857093099675583  0.20211684829426813  1.0000
  H   H20       1.0  0.8594020633651689  0.5292845287670587  0.24671789401121422  1.0000
  H   H21       1.0  0.7817839011581253  0.684112130856269  0.0934541880612969  1.0000
  H   H22       1.0  0.8753760278298902  0.5522107327299357  0.7133068154729743  1.0000
  H   H23       1.0  0.02262823359223786  0.340382983533158  0.6557009935857274  1.0000
  H   H24       1.0  0.7090479636261532  0.8678575771480289  0.6634701327403745  1.0000
  Zn  Zn1       1.0  0.8309769604750128  0.4481672581788303  0.4848171904961562  1.0000
  Zn  Zn2       1.0  0.9991684096728196  0.45560293950503744  0.5000547966417888  1.0000
  C   C35       1.0  0.9161983868130558  0.4484141186174624  0.755805188979061  1.0000
  C   C36       1.0  0.9139488208992247  0.4553577999413936  0.22906710546402517  1.0000
  C   C37       1.0  0.9150934140459764  0.6890610676224997  0.4866003844415847  1.0000
  C   C38       1.0  0.9150537363030395  0.21470928845741777  0.4982719822704826  1.0000
  O   O1        1.0  0.9780050931254429  0.4602580521348569  0.28857360115121916  1.0000
  O   O2        1.0  0.9797955308819287  0.44915639400893914  0.7078632690574158  1.0000
  O   O3        1.0  0.9789023973724806  0.6434818203812644  0.4904784062606901  1.0000
  O   O4        1.0  0.9788981687825948  0.26593263181724813  0.5059583506260896  1.0000
  O   O5        1.0  0.8512471439697181  0.6378375633305513  0.47891363130442294  1.0000
  O   O6        1.0  0.8521402774469111  0.44351369690109554  0.6962984166247346  1.0000
  O   O7        1.0  0.8503498323289279  0.45461529856055627  0.2770070150580297  1.0000
  O   O8        1.0  0.8512429084428562  0.26028986965216316  0.49439187264732287  1.0000
