data_image0
_chemical_formula_structural       NC12NC2H8C12H10C12H10Zn2C4O8
_chemical_formula_sum              "N2 C42 H28 Zn2 O8"
_cell_length_a       19.240039667572717
_cell_length_b       14.38812564980172
_cell_length_c       14.388129018870243
_cell_angle_alpha    85.39543532843052
_cell_angle_beta     90.89466623952734
_cell_angle_gamma    91.20505873494551

_space_group_name_H-M_alt    "P 1"
_space_group_IT_number       1

loop_
  _space_group_symop_operation_xyz
  'x, y, z'

loop_
  _atom_site_type_symbol
  _atom_site_label
  _atom_site_symmetry_multiplicity
  _atom_site_fract_x
  _atom_site_fract_y
  _atom_site_fract_z
  _atom_site_occupancy
  N   N1        1.0  0.6595101974962939  0.05497397513319902  0.010101206031428386  1.0000
  C   C1        1.0  0.5993618289979017  0.05497403739249629  0.010101149484809224  1.0000
  C   C2        1.0  0.5245437921207313  0.05497412499817147  0.010101054098044288  1.0000
  C   C3        1.0  0.4881465266594112  0.006020599429250824  0.08258321387073092  1.0000
  C   C4        1.0  0.4154751859533835  0.005939018661938801  0.08264234306219216  1.0000
  C   C5        1.0  0.3782115564457407  0.05497419756202615  0.0101008931887524  1.0000
  C   C6        1.0  0.41532360902419324  0.10400950426930257  0.9375595879480023  1.0000
  C   C7        1.0  0.4879937031371954  0.10392775199225904  0.9376187987275463  1.0000
  C   C8        1.0  0.3010064643424315  0.05497414418575519  0.010100822601749715  1.0000
  C   C9        1.0  0.2628444255296435  0.9729774699361148  0.037107608152741826  1.0000
  C   C10       1.0  0.1901742459171194  0.9730563480261832  0.037044939558612974  1.0000
  C   C11       1.0  0.15467417641245096  0.05497405029184943  0.010100862844887093  1.0000
  C   C12       1.0  0.07985613991725239  0.05497396201880878  0.010101038240887704  1.0000
  N   N2        1.0  0.0197078242468082  0.05497392691779179  0.010101186715987137  1.0000
  C   C13       1.0  0.19212161821954665  0.13689180816709406  0.9831567502106342  1.0000
  C   C14       1.0  0.26479282399718246  0.1369708194124391  0.9830939697682033  1.0000
  H   H1        1.0  0.5159259509035741  0.9681002835070048  0.13918656423368797  1.0000
  H   H2        1.0  0.3884644858923366  0.9685560207591773  0.14006766542537818  1.0000
  H   H3        1.0  0.3881477782059457  0.1413925229288917  0.8801342298201099  1.0000
  H   H4        1.0  0.5156440513864711  0.14184798847930005  0.8810156435956634  1.0000
  H   H5        1.0  0.2891566106748898  0.9084836190208246  0.05708067629506397  1.0000
  H   H6        1.0  0.1616968738018655  0.9091742999761641  0.057783460019575884  1.0000
  H   H7        1.0  0.165169166719398  0.20077383829612283  0.9624182395328044  1.0000
  H   H8        1.0  0.2926671182272942  0.20146472809342322  0.9631208716220286  1.0000
  C   C15       1.0  0.8352082709983517  0.7829206060262015  0.999874866501778  1.0000
  C   C16       1.0  0.7997983073737213  0.814930208806516  0.9176807474338657  1.0000
  C   C17       1.0  0.7735477630270443  0.7517887414387683  0.8565712710911186  1.0000
  C   C18       1.0  0.7822243077002444  0.6561645055785872  0.8765654262914657  1.0000
  C   C19       1.0  0.8173925192789724  0.6224146428486965  0.9583571791724619  1.0000
  C   C20       1.0  0.8265664993223951  0.5206463743325893  0.9797315328366465  1.0000
  C   C21       1.0  0.8435892667272009  0.46352723774180987  0.9089520667053896  1.0000
  C   C22       1.0  0.852251812790896  0.3677692661213259  0.9290542188049726  1.0000
  C   C23       1.0  0.8440163845198453  0.32701983862836387  0.020335274962985594  1.0000
  C   C24       1.0  0.8269474495936446  0.3840405320418244  0.09115743126880134  1.0000
  C   C25       1.0  0.8183407210914789  0.47980601848572757  0.07106713820962307  1.0000
  C   C26       1.0  0.8437617722982197  0.6864767573216395  0.01965442116593885  1.0000
  H   H9        1.0  0.9176491327969319  0.8624687711832856  0.19103030430946283  1.0000
  H   H10       1.0  0.7923582568480944  0.8887513640196134  0.9005652337209282  1.0000
  H   H11       1.0  0.7461867441206111  0.7770647824078815  0.7935539059066787  1.0000
  H   H12       1.0  0.7606177879885593  0.6085242658061217  0.8286708143774228  1.0000
  H   H13       1.0  0.851126729874415  0.49311234252258634  0.8381448310475795  1.0000
  H   H14       1.0  0.8655780574276761  0.32575478281554376  0.8730200188343589  1.0000
  H   H15       1.0  0.8764735810507921  0.100199535739256  0.9842073568713734  1.0000
  H   H16       1.0  0.8200461491540321  0.35465987841025537  0.1621649915218495  1.0000
  H   H17       1.0  0.8043185545581981  0.521743036712428  0.12685528052981543  1.0000
  H   H18       1.0  0.8717864766730973  0.6611307137845268  0.08215615833419199  1.0000
  C   C27       1.0  0.8365881180225687  0.06590838953159285  0.7364167465034936  1.0000
  C   C28       1.0  0.8122647943648005  0.15379524242409717  0.7552604804028021  1.0000
  C   C29       1.0  0.7942559609397816  0.21912289126288212  0.6823310949021916  1.0000
  C   C30       1.0  0.8002347914866056  0.19773212645224847  0.5899100033948907  1.0000
  C   C31       1.0  0.8243715262584222  0.11028840490408487  0.5692610111567828  1.0000
  C   C32       1.0  0.8306629343597396  0.08744001066486318  0.470916291170588  1.0000
  C   C33       1.0  0.8566270308372281  0.15418935974650494  0.40281996479000937  1.0000
  C   C34       1.0  0.8625780703039613  0.13269451313673342  0.3102820026340288  1.0000
  C   C35       1.0  0.8426365284908706  0.04403209145517839  0.28379343953489866  1.0000
  C   C36       1.0  0.8166213520563672  0.9772492594211125  0.35179760415819805  1.0000
  C   C37       1.0  0.8107238187214945  0.9987218946652912  0.4443453430375367  1.0000
  C   C38       1.0  0.8424732881904008  0.0447527999106874  0.6431414201766252  1.0000
  H   H19       1.0  0.8932441175647609  0.8614967461557773  0.8465848842003382  1.0000
  H   H20       1.0  0.8071341892249903  0.17210872615144845  0.8263395527889115  1.0000
  H   H21       1.0  0.775397683684471  0.2865447823916663  0.6975113928406221  1.0000
  H   H22       1.0  0.7851008538444932  0.2491268300205064  0.5345906769635824  1.0000
  H   H23       1.0  0.8732303335190265  0.22274934950092895  0.4213515554627685  1.0000
  H   H24       1.0  0.8829848360177788  0.18556644090130534  0.25957603600309764  1.0000
  H   H25       1.0  0.8793547102737033  0.07363480237631093  0.05155028220012722  1.0000
  H   H26       1.0  0.8006201109080221  0.9083717232235261  0.33350668558990243  1.0000
  H   H27       1.0  0.7896618641987482  0.9462239907785721  0.49492996301082726  1.0000
  H   H28       1.0  0.8620535457076157  0.9777157224421138  0.6278152962363894  1.0000
  Zn  Zn1       1.0  0.763455480393541  0.05497127307944827  0.010106481496396808  1.0000
  Zn  Zn2       1.0  0.9157625218332934  0.05496876802020867  0.010103233348177082  1.0000
  C   C39       1.0  0.8414319693903362  0.044476477435119184  0.180188716919186  1.0000
  C   C40       1.0  0.837787715958543  0.06546472890634547  0.8400211333223728  1.0000
  C   C41       1.0  0.8423068583927197  0.2243219525358211  0.012753889862597952  1.0000
  C   C42       1.0  0.8369127575147947  0.8856181387637676  0.007455968213344598  1.0000
  O   O1        1.0  0.8959899750268219  0.06531083997947396  0.8747903273358386  1.0000
  O   O2        1.0  0.8988272163511989  0.044627776907894434  0.14541676306543805  1.0000
  O   O3        1.0  0.8995329318254995  0.18985523379031813  0.01021199182841758  1.0000
  O   O4        1.0  0.8952842069155597  0.9200833925180062  0.009995028942522792  1.0000
  O   O5        1.0  0.783933743336319  0.18985664858371032  0.01021468589829521  1.0000
  O   O6        1.0  0.7832280453284273  0.0446303067452214  0.14541944929717593  1.0000
  O   O7        1.0  0.7803907911459037  0.06531338231601663  0.8747918918187398  1.0000
  O   O8        1.0  0.7796850236966469  0.9200859254356518  0.009996663052004527  1.0000
