data_image0
_chemical_formula_structural       NC9NC5H8C7F3H5C6NCOH6Zn2C4O8
_chemical_formula_sum              "N3 C32 H19 F3 O9 Zn2"
_cell_length_a       17.807436237873137
_cell_length_b       9.27228830945605
_cell_length_c       10.29962270195845
_cell_angle_alpha    85.28125625353759
_cell_angle_beta     89.41121966804023
_cell_angle_gamma    87.81380667828488

_space_group_name_H-M_alt    "P 1"
_space_group_IT_number       1

loop_
  _space_group_symop_operation_xyz
  'x, y, z'

loop_
  _atom_site_type_symbol
  _atom_site_label
  _atom_site_symmetry_multiplicity
  _atom_site_fract_x
  _atom_site_fract_y
  _atom_site_fract_z
  _atom_site_occupancy
  N   N1        1.0  0.6990961507744891  0.5421572954543588  0.5500339113403527  1.0000
  C   C1        1.0  0.6387106614346637  0.5030355927414439  0.5391915789917675  1.0000
  C   C2        1.0  0.5635977495755251  0.45437250286784825  0.5257048945177468  1.0000
  C   C3        1.0  0.5459010760066866  0.37494868509179224  0.42107344223477394  1.0000
  C   C4        1.0  0.4729709392812469  0.32757660348327655  0.4078966865926436  1.0000
  C   C5        1.0  0.4166909410706273  0.3592086563716677  0.499320876716278  1.0000
  C   C6        1.0  0.3391843546011929  0.30899210734326643  0.48539887795412845  1.0000
  C   C7        1.0  0.2765386625897441  0.39988353633659357  0.5109159025481205  1.0000
  C   C8        1.0  0.20346740103697603  0.35228575708385756  0.49775387304733804  1.0000
  C   C9        1.0  0.1397560783515725  0.4461690916096257  0.5236209293764564  1.0000
  N   N2        1.0  0.08854519695360001  0.5216447977293306  0.5444173462870596  1.0000
  C   C10       1.0  0.192459778086412  0.21350976263866464  0.45905079849121  1.0000
  C   C11       1.0  0.2542481790588728  0.12260293211565076  0.4335254558205177  1.0000
  C   C12       1.0  0.3272022592579863  0.16976205791178445  0.44648698558075134  1.0000
  C   C13       1.0  0.43507619264006947  0.43918210194575  0.604169005383533  1.0000
  C   C14       1.0  0.5080602760872859  0.4863424813635183  0.6171910960681961  1.0000
  H   H1        1.0  0.5884131322583834  0.34992827296988754  0.3494789628063208  1.0000
  H   H2        1.0  0.46035437424417924  0.2678727909917251  0.3252555393510046  1.0000
  H   H3        1.0  0.2844762293331953  0.5082382035044584  0.5392900495147002  1.0000
  H   H4        1.0  0.1361901828500882  0.17567067603466185  0.4486315499827771  1.0000
  H   H5        1.0  0.24560728948169488  0.015159486145307054  0.4039467162878562  1.0000
  H   H6        1.0  0.374220852515152  0.09667146465354426  0.42777779657514015  1.0000
  H   H7        1.0  0.393284382352097  0.46360374867335513  0.6770607139658085  1.0000
  H   H8        1.0  0.5211979192766466  0.547402761796056  0.6987843674679094  1.0000
  C   C15       1.0  0.8960359106262124  0.1079605022246415  0.549195168343392  1.0000
  C   C16       1.0  0.9317213862521211  0.1880527865750486  0.4461069343004306  1.0000
  C   C17       1.0  0.9599848428080767  0.12090839521246678  0.33859793462657284  1.0000
  C   C18       1.0  0.9522870347661345  0.9721060883894278  0.3304078741963148  1.0000
  C   C19       1.0  0.9193430611396333  0.8901875652345449  0.4351096078638272  1.0000
  C   C20       1.0  0.8916126930566156  0.9558301604093379  0.5452673317508916  1.0000
  C   C21       1.0  0.9847471029971752  0.8988130850095404  0.21586845695014611  1.0000
  F   F1        1.0  0.9840756764478092  0.9934073995148707  0.10462932924889357  1.0000
  F   F2        1.0  0.9433619727246061  0.7806306356506476  0.19170993480636178  1.0000
  F   F3        1.0  0.05803139769895595  0.8524062189609946  0.24293451408625422  1.0000
  H   H9        1.0  0.7697401449307661  0.19727533702472227  0.7846084721961344  1.0000
  H   H10       1.0  0.9364616819202373  0.30406787751619546  0.44738235475554133  1.0000
  H   H11       1.0  0.9873514189820692  0.18591585262785443  0.26114035337120994  1.0000
  H   H12       1.0  0.9169413479869855  0.7738741743828793  0.4322240870699569  1.0000
  H   H13       1.0  0.8566738375291859  0.8280990377931015  0.8602808762756354  1.0000
  C   C22       1.0  0.8937535184417419  0.531758354452918  0.16587613761776643  1.0000
  C   C23       1.0  0.8149546935827601  0.547042632880727  0.1648665822014752  1.0000
  C   C24       1.0  0.7753817539483927  0.557099434337786  0.04738248596393868  1.0000
  C   C25       1.0  0.815119238774619  0.547343307198542  0.9296905599155804  1.0000
  C   C26       1.0  0.893895065114952  0.5320322857732411  0.9285862970397978  1.0000
  C   C27       1.0  0.9327822617431251  0.5249049897402591  0.04718597342840635  1.0000
  N   N3        1.0  0.6946610960574917  0.5705034817846302  0.050386151486832  1.0000
  C   C28       1.0  0.6501641402693967  0.6516215514271317  0.9525833909410631  1.0000
  O   O1        1.0  0.6800002838450416  0.7334768285597173  0.8646502832783258  1.0000
  H   H14       1.0  0.783906950546796  0.5524335041196575  0.2554523200708853  1.0000
  H   H15       1.0  0.7846209818414219  0.5486772264037281  0.8392794534074257  1.0000
  H   H16       1.0  0.9935283282968815  0.5131411234506204  0.0470867199652143  1.0000
  H   H17       1.0  0.9240689561835381  0.5239697194080295  0.6008788900754571  1.0000
  H   H18       1.0  0.6663611172437318  0.5271195961499635  0.1331029214090531  1.0000
  H   H19       1.0  0.5896079154894855  0.6458096546388712  0.9563939386511722  1.0000
  Zn  Zn1       1.0  0.8114827532362583  0.5362339822936517  0.5484206203561235  1.0000
  Zn  Zn2       1.0  0.9761586396676869  0.5275563468369198  0.5460413680126894  1.0000
  C   C29       1.0  0.8938966364001741  0.5262293927536802  0.7844444478957586  1.0000
  C   C30       1.0  0.8937465452802481  0.537562663198591  0.31001763351504463  1.0000
  C   C31       1.0  0.8924439314391216  0.7955630774016692  0.5408348304429318  1.0000
  C   C32       1.0  0.8951992031103384  0.26822724706048434  0.5536273290510353  1.0000
  O   O2        1.0  0.9562378785656379  0.5362112266078327  0.357489951599397  1.0000
  O   O3        1.0  0.9563904961878622  0.5209936155983524  0.7351659635477236  1.0000
  O   O4        1.0  0.9552165763662833  0.7384840170187237  0.538449479093998  1.0000
  O   O5        1.0  0.9574117421225449  0.31872083844085  0.5542063394460175  1.0000
  O   O6        1.0  0.830229594585593  0.7450694936525419  0.5402556497278796  1.0000
  O   O7        1.0  0.8314035053423261  0.5275808266851083  0.7369720569035254  1.0000
  O   O8        1.0  0.8312508877427693  0.542798386823382  0.35929448384340157  1.0000
  O   O9        1.0  0.8324247513685405  0.3253079883658315  0.5560109691022117  1.0000
