data_image0
_chemical_formula_structural       NC8NH4C7NH5C6OCH6Zn2C4O8
_chemical_formula_sum              "N3 C26 H15 O9 Zn2"
_cell_length_a       13.859017124695912
_cell_length_b       9.275154477615127
_cell_length_c       9.27389158865715
_cell_angle_alpha    86.29931945807607
_cell_angle_beta     89.68011635111247
_cell_angle_gamma    89.43373790894346

_space_group_name_H-M_alt    "P 1"
_space_group_IT_number       1

loop_
  _space_group_symop_operation_xyz
  'x, y, z'

loop_
  _atom_site_type_symbol
  _atom_site_label
  _atom_site_symmetry_multiplicity
  _atom_site_fract_x
  _atom_site_fract_y
  _atom_site_fract_z
  _atom_site_occupancy
  N   N1        1.0  0.9041640947533407  0.5636014212154399  0.41628021304162166  1.0000
  C   C1        1.0  0.8321742696449338  0.5402405511593806  0.3600234308845913  1.0000
  C   C2        1.0  0.742623173557944  0.5111830383269409  0.29004722565674723  1.0000
  C   C3        1.0  0.6545657580734936  0.5395111584754473  0.3582652244704687  1.0000
  C   C4        1.0  0.5673928477725906  0.5111842586603637  0.29004665118659534  1.0000
  C   C5        1.0  0.5684598909542087  0.45452155192206317  0.1535891430729177  1.0000
  C   C6        1.0  0.6563330450180171  0.4263023129779853  0.08563373295613808  1.0000
  C   C7        1.0  0.7433252609278244  0.454519213600731  0.15359031217087882  1.0000
  C   C8        1.0  0.4769344266761177  0.5402414730204015  0.36002293651487216  1.0000
  N   N2        1.0  0.40421521902336427  0.5636017418072401  0.41627999829986195  1.0000
  H   H1        1.0  0.6538810385814705  0.583370288650688  0.46388660831390666  1.0000
  H   H2        1.0  0.501512534352287  0.4322262338185614  0.0998941182203672  1.0000
  H   H3        1.0  0.6570164388900579  0.3825327556921561  0.9802262532307675  1.0000
  H   H4        1.0  0.8109687722018908  0.4322218042362093  0.09989627827088256  1.0000
  C   C9        1.0  0.1569927614403448  0.14019725502436975  0.41461210902128476  1.0000
  C   C10       1.0  0.13098994396314478  0.22222980274205684  0.2875209612340941  1.0000
  C   C11       1.0  0.09711326227520445  0.15510556800127873  0.1671620245719723  1.0000
  C   C12       1.0  0.08867946228634449  0.0050329825547965595  0.1724767482990317  1.0000
  C   C13       1.0  0.11558755675665244  0.9217666264645749  0.2966709540077932  1.0000
  C   C14       1.0  0.1513958141013143  0.9869949765296875  0.417960587680154  1.0000
  C   C15       1.0  0.06983255886907647  0.24070610858989383  0.038539097411055115  1.0000
  N   N3        1.0  0.04790645088600187  0.3095133344059405  0.9351592104399616  1.0000
  H   H5        1.0  0.17435923655649344  0.22006021538339748  0.7684319345945874  1.0000
  H   H6        1.0  0.13494670130446984  0.33915062280396274  0.28324404348675736  1.0000
  H   H7        1.0  0.062128972461286125  0.9520718934501301  0.07997334652970989  1.0000
  H   H8        1.0  0.11052132873910958  0.8052978824508713  0.2965441018550379  1.0000
  H   H9        1.0  0.1671881345758457  0.6903633997727191  0.6550299335085952  1.0000
  C   C16       1.0  0.1558002225979751  0.5597775128601032  0.9929958943458028  1.0000
  C   C17       1.0  0.23441588608290553  0.6206772104298257  0.061810376743176805  1.0000
  C   C18       1.0  0.3074872651489233  0.6923433649708184  0.9822839882905364  1.0000
  C   C19       1.0  0.3022035816480313  0.7034711097614628  0.830887379107605  1.0000
  C   C20       1.0  0.22562083100039398  0.6416983856059693  0.7607272459168231  1.0000
  C   C21       1.0  0.15258832669663125  0.5674146418256363  0.8395767351851098  1.0000
  O   O1        1.0  0.3834795850425574  0.7514678368388779  0.05772435975249968  1.0000
  C   C22       1.0  0.4624344370743738  0.8273486609798264  0.9909480094838231  1.0000
  H   H10       1.0  0.9268784011589302  0.4712209530874407  0.10366304555721054  1.0000
  H   H11       1.0  0.35742248317459246  0.7585287198495977  0.766182933163547  1.0000
  H   H12       1.0  0.22479316245636882  0.6491293830687119  0.6436754539368961  1.0000
  H   H13       1.0  0.43588894031410286  0.924918600185415  0.9269382550314963  1.0000
  H   H14       1.0  0.5031393596781533  0.7557908119323571  0.9202523705425257  1.0000
  H   H15       1.0  0.511598571898058  0.8618121970134542  0.07592781293385986  1.0000
  Zn  Zn1       1.0  0.04846804437352369  0.5635977393542171  0.41628846433664357  1.0000
  Zn  Zn2       1.0  0.25991129465259544  0.5635937687023769  0.4162835230469859  1.0000
  C   C23       1.0  0.15323127186051644  0.5602271687434359  0.6795321345238481  1.0000
  C   C24       1.0  0.1551503635582523  0.5669661597786044  0.15304000147753727  1.0000
  C   C25       1.0  0.152470578269696  0.8268803440892014  0.41158357216227304  1.0000
  C   C26       1.0  0.15591099615632142  0.30031125284427485  0.42098863384055163  1.0000
  O   O2        1.0  0.23517391803875579  0.569370938277675  0.20675036578520078  1.0000
  O   O3        1.0  0.2336882606415862  0.5578182851581587  0.6258176006500016  1.0000
  O   O4        1.0  0.23307290356498256  0.7731441100810091  0.40944724671594157  1.0000
  O   O5        1.0  0.23578920330597142  0.354045122695396  0.42312061168327064  1.0000
  O   O6        1.0  0.07259006356496212  0.7731463853640538  0.40945137569446943  1.0000
  O   O7        1.0  0.07320540947913147  0.5578222920326235  0.6258216596212012  1.0000
  O   O8        1.0  0.07469107384759499  0.5693748792738675  0.20675269152195092  1.0000
  O   O9        1.0  0.07530635876901282  0.35404905435387346  0.423123045450122  1.0000
