data_image0
_chemical_formula_structural       NC8NH4C7NH5C7F3H5Zn2C4O8
_chemical_formula_sum              "N3 C26 H14 F3 Zn2 O8"
_cell_length_a       13.859017981522156
_cell_length_b       9.275154477615127
_cell_length_c       9.272721663655245
_cell_angle_alpha    86.10781498077147
_cell_angle_beta     90.5161758670597
_cell_angle_gamma    89.43373755438122

_space_group_name_H-M_alt    "P 1"
_space_group_IT_number       1

loop_
  _space_group_symop_operation_xyz
  'x, y, z'

loop_
  _atom_site_type_symbol
  _atom_site_label
  _atom_site_symmetry_multiplicity
  _atom_site_fract_x
  _atom_site_fract_y
  _atom_site_fract_z
  _atom_site_occupancy
  N   N1        1.0  0.888661233103079  0.5691389797747444  0.41567410474525923  1.0000
  C   C1        1.0  0.8159855047029679  0.5617711200205147  0.3543097969468041  1.0000
  C   C2        1.0  0.7255812126617737  0.5526068386481235  0.2779805843371359  1.0000
  C   C3        1.0  0.7246197730881608  0.5347356035061417  0.12913487343844432  1.0000
  C   C4        1.0  0.6367991948693269  0.5258367567988447  0.055009401696572986  1.0000
  C   C5        1.0  0.5497544842988724  0.5347373241549833  0.12913463187933805  1.0000
  C   C6        1.0  0.550350968257099  0.5526078107128134  0.2779804043397862  1.0000
  C   C7        1.0  0.638355584797485  0.5615414220724981  0.35239210106359775  1.0000
  C   C8        1.0  0.4607456805394306  0.5617720222735814  0.3543095600177233  1.0000
  N   N2        1.0  0.38871231481071333  0.5691392926805487  0.41567401235024737  1.0000
  H   H1        1.0  0.791608734712228  0.5277031394389853  0.07056565505332002  1.0000
  H   H2        1.0  0.6361974302287143  0.5120322554678252  0.9400324956661438  1.0000
  H   H3        1.0  0.4821524420551188  0.5277062342595802  0.07056524723106938  1.0000
  H   H4        1.0  0.638958566425152  0.5753737635852243  0.4676027618706624  1.0000
  C   C9        1.0  0.14147355564937425  0.14574064065869674  0.4140054095322889  1.0000
  C   C10       1.0  0.11422666264438175  0.22821757134783024  0.2868656039857338  1.0000
  C   C11       1.0  0.07917180655902323  0.16151418014095542  0.16646058530564845  1.0000
  C   C12       1.0  0.07079003215266155  0.011423011605401042  0.17177734202827755  1.0000
  C   C13       1.0  0.09891384434350783  0.9277224018687557  0.2960190966620835  1.0000
  C   C14       1.0  0.13590938642879968  0.9925266541153432  0.41735516900280256  1.0000
  C   C15       1.0  0.05063203333286471  0.24756445969454055  0.03778841375184583  1.0000
  N   N3        1.0  0.027693955722281505  0.3167331604388113  0.9343689469028201  1.0000
  H   H5        1.0  0.16230352147545715  0.2243664467828288  0.7679606872551779  1.0000
  H   H6        1.0  0.11814155360886948  0.34515334584165336  0.28258704969535064  1.0000
  H   H7        1.0  0.04333404134101859  0.9587853671982257  0.0792385232376791  1.0000
  H   H8        1.0  0.0938463748951075  0.8112541015131689  0.2958921949983453  1.0000
  H   H9        1.0  0.15402234392957542  0.6950661487447498  0.654515272402783  1.0000
  C   C16       1.0  0.13615387594339512  0.566795106823335  0.9922277920038886  1.0000
  C   C17       1.0  0.17799473522491294  0.448863278382017  0.0744836068913064  1.0000
  C   C18       1.0  0.22823623607666035  0.3395076584823098  0.008146002555792675  1.0000
  C   C19       1.0  0.2336933076823578  0.3461470512014475  0.8570224467309302  1.0000
  C   C20       1.0  0.19130032641908556  0.46107700315550065  0.7737864551591911  1.0000
  C   C21       1.0  0.1412290831107353  0.5714721860048377  0.8391327205817682  1.0000
  C   C22       1.0  0.27036803477710114  0.2120404227564472  0.09798911406772759  1.0000
  F   F1        1.0  0.3025872613974354  0.2539449143725998  0.23038782308508707  1.0000
  F   F2        1.0  0.3476727415524201  0.1524030823722371  0.02863326932424059  1.0000
  F   F3        1.0  0.2002111945884444  0.10825861705959759  0.12061429603161966  1.0000
  H   H10       1.0  0.07273569820352277  0.9101310865822241  0.06980536546126048  1.0000
  H   H11       1.0  0.1732105066914083  0.4437409567743891  0.1913089784923543  1.0000
  H   H12       1.0  0.2699135626225373  0.26145008314199153  0.8027795351200653  1.0000
  H   H13       1.0  0.1954319554483983  0.46153813900750973  0.6571336610361893  1.0000
  H   H14       1.0  0.9664776181884684  0.8146558738560457  0.7188038937637109  1.0000
  Zn  Zn1       1.0  0.03296525475651202  0.5691352658898741  0.4156823862466823  1.0000
  Zn  Zn2       1.0  0.24440844386327076  0.5691313078670814  0.4156774826973286  1.0000
  C   C23       1.0  0.14030533060714534  0.564844244495257  0.6790268507061497  1.0000
  C   C24       1.0  0.13707066585994632  0.573424149207443  0.15233316691294152  1.0000
  C   C25       1.0  0.13692172683757975  0.8324343192975141  0.4109757124446993  1.0000
  C   C26       1.0  0.14045420932199848  0.3058323425718583  0.42038437520261707  1.0000
  O   O1        1.0  0.2176199785836348  0.5756411241923474  0.20606410755909543  1.0000
  O   O2        1.0  0.22023651061276175  0.5626231754752058  0.6252917689773374  1.0000
  O   O3        1.0  0.21750313506764  0.7787055533171003  0.4088385842804614  1.0000
  O   O4        1.0  0.2203532812618243  0.3595587560687812  0.42251718417860973  1.0000
  O   O5        1.0  0.05702034520271981  0.778707817691052  0.4088426847594957  1.0000
  O   O6        1.0  0.059753708900115894  0.5626271716853644  0.625295799422241  1.0000
  O   O7        1.0  0.05713716687589821  0.5756450605845993  0.20606640410603694  1.0000
  O   O8        1.0  0.059870470265780656  0.3595626827455838  0.4225195887970079  1.0000
