data_image0
_chemical_formula_structural       NC9NC5H8C6SCOC6H10C7OC3NC3H11Zn2C4O8
_chemical_formula_sum              "N3 C44 H29 S1 O10 Zn2"
_cell_length_a       17.807436237873137
_cell_length_b       10.30203810924657
_cell_length_c       10.298749378158432
_cell_angle_alpha    85.56336078908822
_cell_angle_beta     89.40102399035862
_cell_angle_gamma    88.40854036149848

_space_group_name_H-M_alt    "P 1"
_space_group_IT_number       1

loop_
  _space_group_symop_operation_xyz
  'x, y, z'

loop_
  _atom_site_type_symbol
  _atom_site_label
  _atom_site_symmetry_multiplicity
  _atom_site_fract_x
  _atom_site_fract_y
  _atom_site_fract_z
  _atom_site_occupancy
  N   N1        1.0  0.7075397361718546  0.3875329504622347  0.5571713921257339  1.0000
  C   C1        1.0  0.6469446528021715  0.35235286895341345  0.54614240089692  1.0000
  C   C2        1.0  0.5715710290532074  0.30859272179111347  0.5324235333298146  1.0000
  C   C3        1.0  0.5534568307582929  0.23720418482148697  0.42740342673705634  1.0000
  C   C4        1.0  0.4802729033310695  0.1946049924044777  0.41400064208473486  1.0000
  C   C5        1.0  0.4241543824014285  0.2230169035592191  0.5055854651787504  1.0000
  C   C6        1.0  0.3463787618666959  0.17785981452289085  0.49142387084131667  1.0000
  C   C7        1.0  0.2842199879249233  0.2595935462256553  0.51737459831661  1.0000
  C   C8        1.0  0.21089371902723145  0.21679136486720862  0.5039854720258417  1.0000
  C   C9        1.0  0.1476853898308551  0.30121575124823186  0.5303004500421691  1.0000
  N   N2        1.0  0.0968788802953474  0.36908711699053676  0.5514569651305095  1.0000
  C   C10       1.0  0.1991426288468867  0.09199753789532816  0.4646202359881665  1.0000
  C   C11       1.0  0.2604440296276749  0.010249958032992893  0.43866111647616596  1.0000
  C   C12       1.0  0.33365077472198795  0.052657713129971244  0.4518476408360754  1.0000
  C   C13       1.0  0.44296009709977385  0.2948996659981713  0.6108248781184084  1.0000
  C   C14       1.0  0.5161968463372218  0.3373085242812645  0.6240719764567628  1.0000
  H   H1        1.0  0.5958410915917237  0.214730560939613  0.3556819740087873  1.0000
  H   H2        1.0  0.467342865665932  0.1409429927624406  0.33106687036844956  1.0000
  H   H3        1.0  0.2927382234976021  0.35703184044628944  0.5462655365080296  1.0000
  H   H4        1.0  0.1426703046435921  0.057970818231722884  0.4540204562058472  1.0000
  H   H5        1.0  0.2512274939477629  0.9136316608431625  0.40856976221508834  1.0000
  H   H6        1.0  0.3802776364479319  0.98693058191181  0.4327899011121603  1.0000
  H   H7        1.0  0.4012927328975414  0.31683426543348076  0.6838408750141127  1.0000
  H   H8        1.0  0.5296553670637661  0.3921908944879291  0.7059641771185876  1.0000
  C   C15       1.0  0.90214173969955  0.9970348149422202  0.5542750297616685  1.0000
  C   C16       1.0  0.8379114531229576  0.0048536220525690205  0.47569184211688953  1.0000
  C   C17       1.0  0.8063064610126353  0.8917687231684154  0.4361029671628857  1.0000
  C   C18       1.0  0.8381530829285796  0.7697095801678843  0.47563428522872053  1.0000
  C   C19       1.0  0.902284076737366  0.7595749618136988  0.5543645223392265  1.0000
  C   C20       1.0  0.9339863315567963  0.8739046339507228  0.5931910187394098  1.0000
  S   S1        1.0  0.7247771811374479  0.9031742824260707  0.3346823263699794  1.0000
  C   C21       1.0  0.7799959343414478  0.909064040657058  0.1874382370246792  1.0000
  O   O1        1.0  0.7981058986981118  0.8029419101142068  0.14081869588593565  1.0000
  C   C22       1.0  0.8047662998240488  0.03406176169550213  0.12157190800691176  1.0000
  C   C23       1.0  0.8578719051541288  0.03389292237782148  0.019277851310041335  1.0000
  C   C24       1.0  0.8820108336854979  0.15109026238345494  0.9571955494012716  1.0000
  C   C25       1.0  0.8534504329752725  0.26967729210797664  0.9961190695394156  1.0000
  C   C26       1.0  0.8005706359960366  0.271308121673824  0.09705666017844015  1.0000
  C   C27       1.0  0.7761813317630091  0.1544262565407819  0.1594628349731535  1.0000
  H   H9        1.0  0.02312131740354739  0.18960541491507166  0.7025651792828764  1.0000
  H   H10       1.0  0.812349503703977  0.09858918378698722  0.44478872873703174  1.0000
  H   H11       1.0  0.8128331143056631  0.6831601820761284  0.4442390502932283  1.0000
  H   H12       1.0  0.9835036805919665  0.8669565550980768  0.6537700888004719  1.0000
  H   H13       1.0  0.9267976529056485  0.42840107659027743  0.5839736980909891  1.0000
  H   H14       1.0  0.8811082853581607  0.9432300034165777  0.9876367394997704  1.0000
  H   H15       1.0  0.9229839788013282  0.14990865552764368  0.8788903883251508  1.0000
  H   H16       1.0  0.8722240726011504  0.36029604710535984  0.9479654259682805  1.0000
  H   H17       1.0  0.7783186775170866  0.36330742790669657  0.12692252924678238  1.0000
  H   H18       1.0  0.7347680083025879  0.15901651548474605  0.23664202843909576  1.0000
  C   C28       1.0  0.9021782520506595  0.37833452228761744  0.17291921785607367  1.0000
  C   C29       1.0  0.9432358446225424  0.4932262100400397  0.1623109554560737  1.0000
  C   C30       1.0  0.9632434137750793  0.5521598179901831  0.039719164657536776  1.0000
  C   C31       1.0  0.9432388394454958  0.49327491792522754  0.9270668879452804  1.0000
  C   C32       1.0  0.9022475171780274  0.3782752217243756  0.9357203042656929  1.0000
  C   C33       1.0  0.8818048051069238  0.32172349550566437  0.059067481085843365  1.0000
  C   C34       1.0  0.00720902196786444  0.6728155233553693  0.028408478269525746  1.0000
  O   O2        1.0  0.05415414727471534  0.688929818466669  0.936374746633327  1.0000
  C   C35       1.0  0.9979195302620893  0.7751821295821038  0.12144674624289786  1.0000
  C   C36       1.0  0.9276413567811392  0.8010803383365965  0.17918520608496874  1.0000
  C   C37       1.0  0.9192561381837344  0.898956378922241  0.2660202558091722  1.0000
  N   N3        1.0  0.8477351894721822  0.9241912627089516  0.32474475480598297  1.0000
  C   C38       1.0  0.9812613226659096  0.9722516674805594  0.2945170251922084  1.0000
  C   C39       1.0  0.05094785802493606  0.9483316748223345  0.23632814893853205  1.0000
  C   C40       1.0  0.059289841133673755  0.8507692787865773  0.1498705758356977  1.0000
  H   H19       1.0  0.8255950637445403  0.16018519119439056  0.4003892961663977  1.0000
  H   H20       1.0  0.960400817795229  0.5362483307847077  0.2496104367961005  1.0000
  H   H21       1.0  0.9590910296437316  0.5380349892322767  0.8324333750356159  1.0000
  H   H22       1.0  0.8501603862707391  0.23316017454740945  0.0664926941992241  1.0000
  H   H23       1.0  0.8250664521133864  0.1607330668128042  0.7447826132169035  1.0000
  H   H24       1.0  0.8791579121161472  0.7463837228109951  0.15584696362185443  1.0000
  H   H25       1.0  0.8011401404574467  0.8701401815973695  0.3041938777103397  1.0000
  H   H26       1.0  0.8408654427355865  0.9970178165074325  0.3893420113905736  1.0000
  H   H27       1.0  0.9755027834973168  0.048120795537788905  0.3613436861029642  1.0000
  H   H28       1.0  0.0986291956752623  0.005525521258423983  0.25827181531165583  1.0000
  H   H29       1.0  0.11386399327618957  0.8335425059967085  0.10606736330936406  1.0000
  Zn  Zn1       1.0  0.819894601820259  0.38220641635724645  0.555529842942141  1.0000
  Zn  Zn2       1.0  0.9845239954444246  0.3744030666970255  0.5531091905698233  1.0000
  C   C41       1.0  0.9022317995084312  0.37311412323445714  0.7915339853218246  1.0000
  C   C42       1.0  0.9021885958214271  0.38349691281388565  0.3171051494259187  1.0000
  C   C43       1.0  0.9022528140306696  0.6154392194972795  0.5491720403061919  1.0000
  C   C44       1.0  0.9021675248378489  0.14117025928983692  0.5594671643289046  1.0000
  O   O3        1.0  0.9646680631353389  0.3822624633579079  0.36457663959097664  1.0000
  O   O4        1.0  0.9647022324736352  0.36842503140321337  0.7422249020243012  1.0000
  O   O5        1.0  0.9647183598824534  0.5641056510697621  0.5465159292152828  1.0000
  O   O6        1.0  0.9646518795425486  0.1865818556496175  0.5602855158443456  1.0000
  O   O7        1.0  0.8397666615422025  0.570027630068969  0.5483535184868373  1.0000
  O   O8        1.0  0.8397505344147914  0.3743485703279614  0.7440624222277203  1.0000
  O   O9        1.0  0.8397163649761803  0.3881859571568076  0.3664125982581673  1.0000
  O   O10       1.0  0.8397001813874295  0.19250534015457307  0.5621215718864048  1.0000
