data_image0
_chemical_formula_structural       NC6NC3H6C6ClH5C6NCH8Zn2C4O8
_chemical_formula_sum              "N3 C26 H19 Cl1 Zn2 O8"
_cell_length_a       14.934028789175542
_cell_length_b       9.276545438789551
_cell_length_c       9.274690524155615
_cell_angle_alpha    86.08901854457557
_cell_angle_beta     89.66279847823098
_cell_angle_gamma    89.37211250715544

_space_group_name_H-M_alt    "P 1"
_space_group_IT_number       1

loop_
  _space_group_symop_operation_xyz
  'x, y, z'

loop_
  _atom_site_type_symbol
  _atom_site_label
  _atom_site_symmetry_multiplicity
  _atom_site_fract_x
  _atom_site_fract_y
  _atom_site_fract_z
  _atom_site_occupancy
  N   N1        1.0  0.8385662308100085  0.5633515232667952  0.4105826899257765  1.0000
  C   C1        1.0  0.7610895268087542  0.5622475840891281  0.4099032910544542  1.0000
  C   C2        1.0  0.6647046440199389  0.5608692097003061  0.4090551877554951  1.0000
  C   C3        1.0  0.6160348054392883  0.6682169945799983  0.4749990477592663  1.0000
  C   C4        1.0  0.5225324344986325  0.6671102648256717  0.4743190534320126  1.0000
  C   C5        1.0  0.4767868893946488  0.5587105344846092  0.4077290525826478  1.0000
  C   C6        1.0  0.3801214602042865  0.56103637144989  0.40915910266281785  1.0000
  N   N2        1.0  0.3026257357472235  0.5628822191786966  0.4102943560010328  1.0000
  C   C7        1.0  0.525463711122101  0.44987761164151197  0.3408723188589373  1.0000
  C   C8        1.0  0.47814352358379547  0.33202458281005964  0.26847637676460834  1.0000
  C   C9        1.0  0.6195876058056823  0.45211365213024846  0.34224597304792015  1.0000
  H   H1        1.0  0.6503642301454349  0.7527970966535862  0.5269572818259904  1.0000
  H   H2        1.0  0.48578741988137397  0.7510389762149892  0.5258769940811956  1.0000
  H   H3        1.0  0.4353848730145668  0.38031567618913226  0.17990975336623483  1.0000
  H   H4        1.0  0.4355252588818648  0.2698855079946325  0.3485428023061954  1.0000
  H   H5        1.0  0.526247548375826  0.25568941480541413  0.22157717849840197  1.0000
  H   H6        1.0  0.6578162429632013  0.3693014452771657  0.2913741919788986  1.0000
  C   C10       1.0  0.0733035975664997  0.1396769079145099  0.4101992384539155  1.0000
  C   C11       1.0  0.07409219249997327  0.2221672258908354  0.2771668253067039  1.0000
  C   C12       1.0  0.06672438609796444  0.15596018806886724  0.1470349436983862  1.0000
  C   C13       1.0  0.05838986783121555  0.006385266652668699  0.14793346841266697  1.0000
  C   C14       1.0  0.05899103263663916  0.9223338295415783  0.2785232153945363  1.0000
  C   C15       1.0  0.06789702234057413  0.9865458570000727  0.41069025522543345  1.0000
  Cl  Cl1       1.0  0.06658676087089607  0.2611465096915431  0.982489524756192  1.0000
  H   H7        1.0  0.11833421475445632  0.40456688370948174  0.6367722810117391  1.0000
  H   H8        1.0  0.07829762618327968  0.3388586483538314  0.27431062625580127  1.0000
  H   H9        1.0  0.05229808589237092  0.9547916491360864  0.0472559177554579  1.0000
  H   H10       1.0  0.05462227594769306  0.8060546652514924  0.27587560855249316  1.0000
  H   H11       1.0  0.03709193655095966  0.6898742975273597  0.6437716015341288  1.0000
  C   C16       1.0  0.07205764427214366  0.5594181041053583  0.9871944151057216  1.0000
  C   C17       1.0  0.14441002148828952  0.6217201418590499  0.05592274736452674  1.0000
  C   C18       1.0  0.2120878773511306  0.6949474202274488  0.975425103031359  1.0000
  C   C19       1.0  0.20671471666384134  0.7056039777040961  0.8245381139748553  1.0000
  C   C20       1.0  0.13627863923852945  0.642440924825268  0.7545974111480702  1.0000
  C   C21       1.0  0.06914292075388362  0.5668046111842425  0.833695024366091  1.0000
  N   N3        1.0  0.2861881394494292  0.7603091705402365  0.04413853067140905  1.0000
  C   C22       1.0  0.2983729147623207  0.7552209191986167  0.2004095845095739  1.0000
  H   H12       1.0  0.9709593309754437  0.385707975897287  0.2801559247985064  1.0000
  H   H13       1.0  0.25793199691751595  0.7619975092985892  0.7604802331207569  1.0000
  H   H14       1.0  0.13555235398615484  0.6498813747716407  0.6375294314460653  1.0000
  H   H15       1.0  0.9280689905267923  0.4993002758813313  0.558305546927985  1.0000
  H   H16       1.0  0.3345627349690736  0.8141979404687666  0.9795053843519678  1.0000
  H   H17       1.0  0.3606742190435677  0.8122922534599611  0.2260820878089902  1.0000
  H   H18       1.0  0.30411214736604886  0.6412210658444596  0.24456502945150163  1.0000
  H   H19       1.0  0.2409172123261668  0.8093363152613328  0.2516784280826194  1.0000
  Zn  Zn1       1.0  0.9724837892432077  0.5632123008150869  0.41050779756047007  1.0000
  Zn  Zn2       1.0  0.1687082422138072  0.5630097327679848  0.4103810252556166  1.0000
  C   C23       1.0  0.06972856764209712  0.5596639943996198  0.6736849871534902  1.0000
  C   C24       1.0  0.0714655944773927  0.5665598575913178  0.14720397679774466  1.0000
  C   C25       1.0  0.0689341298175925  0.8264194529591262  0.4048539328614813  1.0000
  C   C26       1.0  0.07225997613982704  0.29980266734258465  0.41603510697089363  1.0000
  O   O1        1.0  0.14573309458945483  0.568873531020575  0.2008565343306692  1.0000
  O   O2        1.0  0.14439089538330394  0.5571954850877734  0.6199357968425074  1.0000
  O   O3        1.0  0.1437483677932796  0.7726039055714582  0.4028528199952346  1.0000
  O   O4        1.0  0.14637555552761472  0.3534651199780979  0.4179394031589614  1.0000
  O   O5        1.0  0.9948164089676402  0.7727569136756041  0.4029494196928063  1.0000
  O   O6        1.0  0.9954589257579762  0.5573502249517756  0.6200323206946203  1.0000
  O   O7        1.0  0.9968011313111406  0.5690282055151572  0.20095132528204562  1.0000
  O   O8        1.0  0.9974435919394057  0.3536197851021022  0.41803430216499926  1.0000
