data_image0
_chemical_formula_structural       NC10NC5H10C7OC4NC3H8C7OC3OC4H12Zn2C4O8
_chemical_formula_sum              "N3 C47 H30 O11 Zn2"
_cell_length_a       19.4436361288709
_cell_length_b       10.299371701877257
_cell_length_c       10.299374482448636
_cell_angle_alpha    85.56746279880974
_cell_angle_beta     89.68637327173955
_cell_angle_gamma    89.42830201241743

_space_group_name_H-M_alt    "P 1"
_space_group_IT_number       1

loop_
  _space_group_symop_operation_xyz
  'x, y, z'

loop_
  _atom_site_type_symbol
  _atom_site_label
  _atom_site_symmetry_multiplicity
  _atom_site_fract_x
  _atom_site_fract_y
  _atom_site_fract_z
  _atom_site_occupancy
  N   N1        1.0  0.6480163049345875  0.4096481537006591  0.5625667410651313  1.0000
  C   C1        1.0  0.5891797251066557  0.41954408120682224  0.5769549940789278  1.0000
  C   C2        1.0  0.5158496316961901  0.43188560722562985  0.5949526488207176  1.0000
  C   C3        1.0  0.47367314931214927  0.3999279250013765  0.5002632063816042  1.0000
  C   C4        1.0  0.3977688413659152  0.41036398341857144  0.5055954119102738  1.0000
  C   C5        1.0  0.3580156030666681  0.38557187040981145  0.6126627270415828  1.0000
  C   C6        1.0  0.2818968296319009  0.38949383847873265  0.5997043132618022  1.0000
  C   C7        1.0  0.24132880257675854  0.4471162273579057  0.6935003071931117  1.0000
  C   C8        1.0  0.1696668891547082  0.4507583317145485  0.6829573612819229  1.0000
  C   C9        1.0  0.13757818002686192  0.3963819183168049  0.5789048105082806  1.0000
  C   C10       1.0  0.063787044494267  0.40008532999510393  0.5682065995407732  1.0000
  N   N2        1.0  0.0044639764991248  0.40306267859183137  0.5596059472209167  1.0000
  C   C11       1.0  0.1774212104062082  0.3380522823010194  0.48549180085093924  1.0000
  C   C12       1.0  0.2490995757177727  0.3343560582622282  0.49578293913667976  1.0000
  C   C13       1.0  0.38613032271507913  0.34505697762515597  0.7437472741496376  1.0000
  C   C14       1.0  0.44479257059154603  0.38815918175667363  0.791007816800583  1.0000
  C   C15       1.0  0.4890169767775543  0.48604786308225084  0.7166742521014566  1.0000
  H   H1        1.0  0.49577952669099923  0.37084828334893455  0.40994192384832306  1.0000
  H   H2        1.0  0.3730827239229848  0.4328971305439414  0.4124418773599061  1.0000
  H   H3        1.0  0.26519420691286283  0.4903735292704574  0.7743680548590615  1.0000
  H   H4        1.0  0.1393180845345578  0.49604263471891874  0.7558980944920214  1.0000
  H   H5        1.0  0.1530839041442221  0.2949904988695773  0.4049586227232217  1.0000
  H   H6        1.0  0.2787824856756827  0.28682808455060815  0.42353772313155  1.0000
  H   H7        1.0  0.3551519885268923  0.28081351420677914  0.8079725603113634  1.0000
  H   H8        1.0  0.45992862236263465  0.35405152595314093  0.8889332750462612  1.0000
  H   H9        1.0  0.4589189115355387  0.5767722999493625  0.6914554448902582  1.0000
  H   H10       1.0  0.5322973954436663  0.511607667991758  0.7797713083099096  1.0000
  C   C16       1.0  0.8262074755733784  0.02498561938580912  0.5609596428393953  1.0000
  C   C17       1.0  0.8295721791411222  0.03429678721980344  0.4242648252912294  1.0000
  C   C18       1.0  0.8304882804575994  0.921838613177237  0.3552638359373708  1.0000
  C   C19       1.0  0.8295806339654969  0.7990282399216379  0.424582155525562  1.0000
  C   C20       1.0  0.8262793821565063  0.7877150859166714  0.5612242614514014  1.0000
  C   C21       1.0  0.824430947962727  0.9012985603696028  0.6286080672412303  1.0000
  C   C22       1.0  0.8347634975983735  0.9315134473154392  0.2109762521290797  1.0000
  O   O1        1.0  0.8678757762455216  0.8451679101890747  0.1557545501642792  1.0000
  C   C23       1.0  0.801463318742661  0.0390613983393262  0.12933948307492196  1.0000
  C   C24       1.0  0.830940301849871  0.08318956982375501  0.00912263382700496  1.0000
  C   C25       1.0  0.7994535608425382  0.18369321613293296  0.9305922507121838  1.0000
  C   C26       1.0  0.8302652231969114  0.22898129911982568  0.8081781345253713  1.0000
  N   N3        1.0  0.855036425795841  0.26538330956746425  0.7097749111147835  1.0000
  C   C27       1.0  0.7379765117444269  0.23999791525027359  0.9712753170240882  1.0000
  C   C28       1.0  0.7079192143119433  0.19567025129998927  0.08975741153248107  1.0000
  C   C29       1.0  0.7392084786961114  0.09546773056748514  0.1682780371627508  1.0000
  H   H11       1.0  0.8322547027936825  0.12918351318932508  0.37135515443414474  1.0000
  H   H12       1.0  0.8307966130807067  0.7121808340581611  0.3715590280405787  1.0000
  H   H13       1.0  0.8218373836330302  0.8933164316645572  0.7339900251731084  1.0000
  H   H14       1.0  0.8255900790004265  0.4558979685671232  0.6137560167968195  1.0000
  H   H15       1.0  0.87864323327356  0.04022459236017715  0.9771490539817986  1.0000
  H   H16       1.0  0.7131922710241723  0.31768634016397507  0.9112408211090113  1.0000
  H   H17       1.0  0.6600990357961665  0.23865385392251268  0.12057894241137992  1.0000
  H   H18       1.0  0.7143450267258261  0.06119580311959116  0.2586421964877985  1.0000
  C   C30       1.0  0.826307151113486  0.40643667576905645  0.17970891937140657  1.0000
  C   C31       1.0  0.8981503476667055  0.41977371679905046  0.17674589647668904  1.0000
  C   C32       1.0  0.9342993251147691  0.4279735452944293  0.05796487416386542  1.0000
  C   C33       1.0  0.8979859407012954  0.4197128833053152  0.9415083891244056  1.0000
  C   C34       1.0  0.8261796952664517  0.40626403700044905  0.9424749446145794  1.0000
  C   C35       1.0  0.790736357630351  0.4000451411182268  0.06207827382441011  1.0000
  C   C36       1.0  0.010241371074098506  0.44069653090593564  0.05479997880375543  1.0000
  O   O2        1.0  0.04397985462212217  0.3865310358039972  0.9686539890403637  1.0000
  C   C37       1.0  0.04790589870620732  0.5148822368294035  0.1492809884688369  1.0000
  C   C38       1.0  0.11500578679139872  0.4769246170712355  0.18687515367252353  1.0000
  C   C39       1.0  0.15175005416097886  0.5465099850563375  0.2747977174924454  1.0000
  O   O3        1.0  0.21829084634594612  0.5033883259748553  0.309523682833778  1.0000
  C   C40       1.0  0.26138968396034357  0.5644629054478618  0.3975795331566319  1.0000
  C   C41       1.0  0.1210142205020619  0.656464710601053  0.3250057092776202  1.0000
  C   C42       1.0  0.05471748755314709  0.695740707947937  0.28689478217795505  1.0000
  C   C43       1.0  0.01837016948256909  0.625914996449539  0.19920987272064974  1.0000
  H   H19       1.0  0.690847586873771  0.3792783373213246  0.3927747681177754  1.0000
  H   H20       1.0  0.9261631596485463  0.4223481648501075  0.26710557025984616  1.0000
  H   H21       1.0  0.9258403527304616  0.425053858689135  0.8498854470046117  1.0000
  H   H22       1.0  0.7353505019581084  0.3897624054756834  0.06355883225897596  1.0000
  H   H23       1.0  0.7986596960346324  0.40001289689069286  0.6154724029470375  1.0000
  H   H24       1.0  0.1388502790979671  0.3921717996934317  0.14876926826018355  1.0000
  H   H25       1.0  0.31089308888236517  0.5101909939328333  0.4071084773242164  1.0000
  H   H26       1.0  0.23655340352968282  0.5631208210905004  0.49501990842123544  1.0000
  H   H27       1.0  0.2719733853323319  0.6662733430785377  0.3598655514244263  1.0000
  H   H28       1.0  0.14797185821198466  0.7124045154317588  0.3929923680060925  1.0000
  H   H29       1.0  0.03151899163549032  0.7809706411939334  0.3250244028519065  1.0000
  H   H30       1.0  0.967512966432671  0.6595814480720426  0.16941951626530138  1.0000
  Zn  Zn1       1.0  0.7508794029390937  0.40774425476123466  0.5617198311313699  1.0000
  Zn  Zn2       1.0  0.901600867225036  0.40495596740795725  0.560463535049717  1.0000
  C   C44       1.0  0.8262017714841641  0.4011230179115488  0.7982940869002679  1.0000
  C   C45       1.0  0.8262801446868475  0.41157881240388794  0.32388939360178326  1.0000
  C   C46       1.0  0.8262631130479176  0.6435442335610966  0.5559989126483103  1.0000
  C   C47       1.0  0.8262187515337298  0.16915603738418425  0.5661846369822846  1.0000
  O   O4        1.0  0.8834690907542382  0.41224075415965394  0.37180091807696014  1.0000
  O   O5        1.0  0.88340692932262  0.398343850931226  0.7494286885680446  1.0000
  O   O6        1.0  0.8834556921289479  0.5941020623615626  0.5537736279765448  1.0000
  O   O7        1.0  0.8834202765340303  0.21648255299305116  0.5674558817220983  1.0000
  O   O8        1.0  0.7690599421962617  0.5962176701290614  0.5547274848808699  1.0000
  O   O9        1.0  0.7690111795454606  0.40046101902180137  0.7503824767657075  1.0000
  O   O10       1.0  0.7690733412794528  0.41435787734670426  0.3727531448000432  1.0000
  O   O11       1.0  0.7690245270392874  0.21859966686928908  0.5684082058134243  1.0000
