data_image0
_chemical_formula_structural       NC8NC6H8C12ClH9C12ClH9Zn2C4O8
_chemical_formula_sum              "N2 C42 H26 Cl2 Zn2 O8"
_cell_length_a       17.457602349358154
_cell_length_b       10.299768534541528
_cell_length_c       10.299771906710086
_cell_angle_alpha    85.54593327708469
_cell_angle_beta     92.88560136090982
_cell_angle_gamma    91.7063886151948

_space_group_name_H-M_alt    "P 1"
_space_group_IT_number       1

loop_
  _space_group_symop_operation_xyz
  'x, y, z'

loop_
  _atom_site_type_symbol
  _atom_site_label
  _atom_site_symmetry_multiplicity
  _atom_site_fract_x
  _atom_site_fract_y
  _atom_site_fract_z
  _atom_site_occupancy
  N   N1        1.0  0.722569152842181  0.45320240843888415  0.6265444217599827  1.0000
  C   C1        1.0  0.6614814904421755  0.4072804497662384  0.6159269508605386  1.0000
  C   C2        1.0  0.585485857380996  0.3501592448771422  0.602728359319183  1.0000
  C   C3        1.0  0.5269720177739164  0.39030009229609175  0.6776282062292254  1.0000
  C   C4        1.0  0.4524149281692402  0.3352969653275293  0.6650441345267456  1.0000
  C   C5        1.0  0.3903110410812131  0.37767972222626756  0.744365908520317  1.0000
  C   C6        1.0  0.31576254355672556  0.39616342804562477  0.688602514890251  1.0000
  C   C7        1.0  0.2572486765446168  0.43612032139774937  0.7636103099565976  1.0000
  C   C8        1.0  0.1812619265788986  0.45521048918607576  0.7056314553988305  1.0000
  N   N2        1.0  0.12018149491781842  0.47055260439345714  0.6590166071554184  1.0000
  C   C9        1.0  0.2727912391604249  0.4578365079810934  0.8948900299168722  1.0000
  C   C10       1.0  0.3465551435773284  0.4397416788661841  0.9510410393643645  1.0000
  C   C11       1.0  0.4050574836448668  0.3999647119004826  0.8764909765204789  1.0000
  C   C12       1.0  0.43766005832001315  0.23947597279331265  0.5761272579919475  1.0000
  C   C13       1.0  0.4961622709426103  0.1996136927220562  0.5016274282758535  1.0000
  C   C14       1.0  0.5699346688512943  0.2547290423084325  0.5147614591680336  1.0000
  H   H1        1.0  0.5393367022733571  0.4654754631039764  0.7442622584353711  1.0000
  H   H2        1.0  0.3034049362933613  0.3812214936372293  0.5865765028789574  1.0000
  H   H3        1.0  0.2279417584483039  0.4887027794237342  0.9537275454026805  1.0000
  H   H4        1.0  0.3583992996178986  0.4562413662055269  0.0526938429292807  1.0000
  H   H5        1.0  0.46154466698664093  0.3849602445398746  0.9225973429153168  1.0000
  H   H6        1.0  0.38116578236383675  0.19414368817072525  0.565473690946719  1.0000
  H   H7        1.0  0.484311493357188  0.12555510740376952  0.4337950830848414  1.0000
  H   H8        1.0  0.6147840773925417  0.22299293747877935  0.4564350425147034  1.0000
  C   C15       1.0  0.9213066289003429  0.08050909964015673  0.6427727828032583  1.0000
  C   C16       1.0  0.926346673563194  0.09033396734254318  0.5067156627095544  1.0000
  C   C17       1.0  0.928974262822169  0.9781761551243308  0.437787850455928  1.0000
  C   C18       1.0  0.9264932072099463  0.8550526395609317  0.5067431197440637  1.0000
  C   C19       1.0  0.9214513576704533  0.8432361640814873  0.6428000303875943  1.0000
  C   C20       1.0  0.9188868681617254  0.9565229848055576  0.7100529884580742  1.0000
  C   C21       1.0  0.9343072300204149  0.989623758434112  0.29385084298242886  1.0000
  C   C22       1.0  0.8906530244218231  0.08128035989025073  0.21582199772134888  1.0000
  C   C23       1.0  0.89574092434543  0.0918623560677938  0.0803579633195246  1.0000
  C   C24       1.0  0.9444087786238503  0.011307132060618837  0.021224854840927735  1.0000
  C   C25       1.0  0.9880502673316355  0.9199626546849161  0.09774144319365563  1.0000
  C   C26       1.0  0.9830986153110598  0.9089943483524391  0.23323124792333716  1.0000
  Cl  Cl1       1.0  0.9507068192591933  0.02482613336613727  0.8512544502352959  1.0000
  H   H9        1.0  0.9193467577538126  0.4042173748695397  0.694610775089579  1.0000
  H   H10       1.0  0.9292995894309364  0.18549035256422042  0.45422430751222537  1.0000
  H   H11       1.0  0.9274438990169352  0.7682755618970576  0.4538746920602725  1.0000
  H   H12       1.0  0.914997928706517  0.9481753290178393  0.8150147300603309  1.0000
  H   H13       1.0  0.9195607250079821  0.5112811195038734  0.6946514782089767  1.0000
  H   H14       1.0  0.8518659738562209  0.1435503316420883  0.2593977386755848  1.0000
  H   H15       1.0  0.8616715557208712  0.1625057632066773  0.02146390946252486  1.0000
  H   H16       1.0  0.02598153092281397  0.857609210652177  0.0524063363403262  1.0000
  H   H17       1.0  0.018141404085043833  0.8386871560188148  0.29071049599098187  1.0000
  C   C27       1.0  0.921342493022962  0.46197737708782344  0.26141418282354323  1.0000
  C   C28       1.0  0.9909446986873454  0.5338969686337003  0.2607721584266227  1.0000
  C   C29       1.0  0.026250094940055257  0.5702326831465137  0.14331955413563113  1.0000
  C   C30       1.0  0.9910186670141702  0.5336850357075846  0.025508418628995104  1.0000
  C   C31       1.0  0.9214154753943062  0.46176796100982176  0.02415870659623232  1.0000
  C   C32       1.0  0.8869675161255073  0.42631605219628005  0.14261148085790196  1.0000
  C   C33       1.0  0.09988393407193755  0.6463162403981695  0.14369413488284533  1.0000
  C   C34       1.0  0.11202914162056254  0.7498505775097277  0.2244902008625973  1.0000
  C   C35       1.0  0.18136958729587008  0.8213631311410196  0.22465821495296656  1.0000
  C   C36       1.0  0.23935169089403385  0.7904226676322392  0.14440474869365258  1.0000
  C   C37       1.0  0.22793908429507997  0.6877797587018477  0.06379732534261183  1.0000
  C   C38       1.0  0.1586673687082567  0.6160698838103504  0.06325928900242062  1.0000
  Cl  Cl2       1.0  0.32630378429093587  0.8802665040737909  0.14484808887962017  1.0000
  H   H18       1.0  0.8948003368611671  0.4346288336365846  0.5891061135399277  1.0000
  H   H19       1.0  0.0183991537442374  0.5602942951067813  0.3519956238620818  1.0000
  H   H20       1.0  0.017463059561750427  0.5629798438480735  0.9345590827540247  1.0000
  H   H21       1.0  0.8332721522831  0.3708344974507065  0.14233853259487228  1.0000
  H   H22       1.0  0.8949080703636908  0.4343189653512747  0.6961957207614077  1.0000
  H   H23       1.0  0.06755738888669116  0.7765629345413854  0.28623280268795587  1.0000
  H   H24       1.0  0.18986795127212774  0.9010073377356806  0.2869874849670526  1.0000
  H   H25       1.0  0.27276136661755457  0.663229828549116  0.0017398190185014015  1.0000
  H   H26       1.0  0.15144232779161335  0.5359409658316299  0.0012535327519291922  1.0000
  Zn  Zn1       1.0  0.837311485954949  0.458205815448329  0.6359226914367013  1.0000
  Zn  Zn2       1.0  0.005439146552310479  0.4655385466547462  0.6496489697180323  1.0000
  C   C39       1.0  0.9213989941089399  0.4566337716094544  0.8799833086700748  1.0000
  C   C40       1.0  0.9213534746702572  0.46711230914981067  0.4055886299013897  1.0000
  C   C41       1.0  0.9214195501279083  0.6990657970924508  0.6376193770872602  1.0000
  C   C42       1.0  0.9213328609916418  0.2246787208445857  0.6479526259837878  1.0000
  O   O1        1.0  0.9851607301284151  0.47161270680005507  0.459183942260482  1.0000
  O   O2        1.0  0.985196742613254  0.45769776765813464  0.8368055500376954  1.0000
  O   O3        1.0  0.985212481885111  0.6534646563236854  0.6410948903463486  1.0000
  O   O4        1.0  0.9851449334784205  0.2758458249492921  0.654894499892793  1.0000
  O   O5        1.0  0.8576056416551192  0.6478985346528976  0.6306771565710039  1.0000
  O   O6        1.0  0.8575899026691899  0.45213320630869  0.8263877470718308  1.0000
  O   O7        1.0  0.8575538900773676  0.4660481006256738  0.44876457788283836  1.0000
  O   O8        1.0  0.8575380934317913  0.2702812094592373  0.6444752328832486  1.0000
