data_image0
_chemical_formula_structural       NC6NC2H4C7NH3C8H8Zn2C4O8
_chemical_formula_sum              "N3 C27 H15 Zn2 O8"
_cell_length_a       14.927258858638513
_cell_length_b       9.275154477615127
_cell_length_c       9.275657083861812
_cell_angle_alpha    86.07548322511155
_cell_angle_beta     89.50283401398404
_cell_angle_gamma    89.43371000992973

_space_group_name_H-M_alt    "P 1"
_space_group_IT_number       1

loop_
  _space_group_symop_operation_xyz
  'x, y, z'

loop_
  _atom_site_type_symbol
  _atom_site_label
  _atom_site_symmetry_multiplicity
  _atom_site_fract_x
  _atom_site_fract_y
  _atom_site_fract_z
  _atom_site_occupancy
  N   N1        1.0  0.8424683615297821  0.5697558031306371  0.4161381584438395  1.0000
  C   C1        1.0  0.7649418704803428  0.5697557746811026  0.4161381689196437  1.0000
  C   C2        1.0  0.6685093624973167  0.5697558895000061  0.41613811951528534  1.0000
  C   C3        1.0  0.6222900282907011  0.5454194502052038  0.2893565021924571  1.0000
  C   C4        1.0  0.5285787175130156  0.545419475150656  0.28935636883412386  1.0000
  C   C5        1.0  0.4806932994985204  0.5697557120815828  0.41613813744070316  1.0000
  C   C6        1.0  0.38426072452397236  0.5697558269034197  0.41613808803043284  1.0000
  N   N2        1.0  0.30673423347453294  0.569755798453885  0.41613809850623684  1.0000
  C   C7        1.0  0.5269125667136138  0.5940921513793188  0.5429197547576188  1.0000
  C   C8        1.0  0.6206238774912993  0.5940921264338666  0.5429198881159529  1.0000
  H   H1        1.0  0.6586343781993687  0.5264843276661384  0.1907131276636067  1.0000
  H   H2        1.0  0.49353072149795013  0.5264845251383854  0.19071312351169034  1.0000
  H   H3        1.0  0.4905682832701576  0.6130272641578818  0.6415632373321909  1.0000
  H   H4        1.0  0.655671872307747  0.6130271743201889  0.641563243854832  1.0000
  C   C9        1.0  0.0772069814143994  0.1463579305873337  0.41446998358109033  1.0000
  C   C10       1.0  0.05330648321594736  0.2288844320840957  0.2873674052970483  1.0000
  C   C11       1.0  0.022082808010959853  0.16222799256964063  0.16699764073526557  1.0000
  C   C12       1.0  0.014242459249574022  0.012134757993861987  0.17231283948717824  1.0000
  C   C13       1.0  0.038988954213847744  0.9283857062878429  0.29651821561220437  1.0000
  C   C14       1.0  0.0720042070909617  0.9931426425658219  0.41781876143511654  1.0000
  C   C15       1.0  0.9969987838394438  0.24832844108939625  0.03836314500856664  1.0000
  N   N3        1.0  0.9768382010883061  0.31753746483137396  0.9349739598740294  1.0000
  H   H5        1.0  0.09265839213688937  0.22484577233941083  0.7683216142734992  1.0000
  H   H6        1.0  0.9897677644577867  0.9595331992848138  0.0798011156361298  1.0000
  H   H7        1.0  0.08621594287099216  0.6955896941205628  0.6549094188978939  1.0000
  C   C16       1.0  0.07690086359684473  0.5675767826786708  0.9928158756198764  1.0000
  C   C17       1.0  0.122630939134931  0.6774850627341646  0.05819089871307948  1.0000
  C   C18       1.0  0.1604128872251599  0.7935642940634802  0.9749113600387127  1.0000
  C   C19       1.0  0.15380036878944656  0.7987515937336014  0.8242929879649323  1.0000
  C   C20       1.0  0.1100012160670803  0.6894888477967178  0.7574679137144167  1.0000
  C   C21       1.0  0.0723103161888281  0.5719237508401791  0.8394728531881657  1.0000
  C   C22       1.0  0.21024960683492477  0.9091842999075384  0.04656848859427321  1.0000
  C   C23       1.0  0.3089023313930934  0.8680421132736518  0.06425039131014398  1.0000
  H   H8        1.0  0.12727923237691458  0.6748119982146061  0.17490535322929213  1.0000
  H   H9        1.0  0.18346023204853304  0.8868741378922648  0.7582552460421224  1.0000
  H   H10       1.0  0.9675587545502078  0.40575450843828414  0.5709813297486335  1.0000
  H   H11       1.0  0.20470040064491477  0.013855063597004948  0.981142114623347  1.0000
  H   H12       1.0  0.1803533544755836  0.9255134899914507  0.1545095618727701  1.0000
  H   H13       1.0  0.31590991420227144  0.7654739609694845  0.13259295682144168  1.0000
  H   H14       1.0  0.34050957395062403  0.8547724869166141  0.9570230990259218  1.0000
  H   H15       1.0  0.3443964794027983  0.9545920884895578  0.11715926962057543  1.0000
  Zn  Zn1       1.0  0.9764454500319399  0.5697519811183644  0.4161464556154406  1.0000
  Zn  Zn2       1.0  0.17275716429976282  0.5697478713009789  0.4161415800163184  1.0000
  C   C24       1.0  0.07321132257082553  0.5653582467899556  0.6794138176921076  1.0000
  C   C25       1.0  0.07599342353405386  0.574143425515518  0.15287436657148268  1.0000
  C   C26       1.0  0.0730141742043138  0.8330527933180554  0.4114411731167762  1.0000
  C   C27       1.0  0.07619051513964364  0.30644714712684173  0.4208470811545253  1.0000
  O   O1        1.0  0.15018818948455448  0.576339401046746  0.20658958314748666  1.0000
  O   O2        1.0  0.14801261433869162  0.5631580621784504  0.6256944813698406  1.0000
  O   O3        1.0  0.1478524021263481  0.7793248016765899  0.4093046808779808  1.0000
  O   O4        1.0  0.15034833523168661  0.3601726713091091  0.42297927559362414  1.0000
  O   O5        1.0  0.9988542121084936  0.7793271811131681  0.4093087600322225  1.0000
  O   O6        1.0  0.9990144140902367  0.5631621734785373  0.6256984905104588  1.0000
  O   O7        1.0  0.001189999001685704  0.5763434532046972  0.20659185889788256  1.0000
  O   O8        1.0  0.0013501442225070084  0.36017671370949045  0.42298165938383026  1.0000
