data_image0
_chemical_formula_structural       NC8NC6H8C8H6C12H10Zn2C4O8
_chemical_formula_sum              "N2 C38 H24 Zn2 O8"
_cell_length_a       17.457602349358154
_cell_length_b       9.27514070457351
_cell_length_c       10.299141136925904
_cell_angle_alpha    85.68100498211918
_cell_angle_beta     92.89850146643516
_cell_angle_gamma    92.27341969939751

_space_group_name_H-M_alt    "P 1"
_space_group_IT_number       1

loop_
  _space_group_symop_operation_xyz
  'x, y, z'

loop_
  _atom_site_type_symbol
  _atom_site_label
  _atom_site_symmetry_multiplicity
  _atom_site_fract_x
  _atom_site_fract_y
  _atom_site_fract_z
  _atom_site_occupancy
  N   N1        1.0  0.7309949505176856  0.6139569176670105  0.6306009260249078  1.0000
  C   C1        1.0  0.6696338505432744  0.5629553949074972  0.619851320570822  1.0000
  C   C2        1.0  0.5932980962417346  0.4995158440271726  0.6064883706788872  1.0000
  C   C3        1.0  0.5350319904492159  0.5440963490099646  0.6815085121462638  1.0000
  C   C4        1.0  0.4601474080649027  0.4830091620946136  0.6687661857099996  1.0000
  C   C5        1.0  0.3983051227077749  0.5300795346018765  0.7482149902809874  1.0000
  C   C6        1.0  0.32385870696257923  0.5506081811287467  0.692500394586453  1.0000
  C   C7        1.0  0.2655914984247935  0.5949843833291131  0.7676279659005603  1.0000
  C   C8        1.0  0.18971012833761214  0.6161865902018179  0.7096994821788181  1.0000
  N   N2        1.0  0.1287143843276803  0.6332260791451934  0.6631251138496081  1.0000
  C   C9        1.0  0.2812801447552352  0.6191018138613951  0.8989793964222363  1.0000
  C   C10       1.0  0.3549443224773381  0.5990050568457443  0.9550827486287196  1.0000
  C   C11       1.0  0.4132011307181623  0.5548286804287135  0.8804134576566193  1.0000
  C   C12       1.0  0.44481311077859514  0.3765895736357118  0.5795687185897916  1.0000
  C   C13       1.0  0.5030692928822141  0.3323184469076243  0.5049494203793907  1.0000
  C   C14       1.0  0.577169921417892  0.3935302661985396  0.5182420671982004  1.0000
  H   H1        1.0  0.547850843554462  0.6275867598556757  0.7483624704915057  1.0000
  H   H2        1.0  0.311399031603785  0.5340141369702248  0.5904241870225265  1.0000
  H   H3        1.0  0.23662132396663205  0.6533819479684659  0.957909503152305  1.0000
  H   H4        1.0  0.3668997246443847  0.6173291665332046  0.05679017639750407  1.0000
  H   H5        1.0  0.469605558959208  0.5381641915010454  0.9264802728199197  1.0000
  H   H6        1.0  0.38804888548903144  0.32624295168028894  0.5687847011027869  1.0000
  H   H7        1.0  0.4907708029393212  0.2500683622886719  0.4369002760381735  1.0000
  H   H8        1.0  0.6218235853388083  0.3582840790701989  0.4598206085036192  1.0000
  C   C15       1.0  0.9275268689536911  0.20003820866305388  0.6457643914185196  1.0000
  C   C16       1.0  0.938458491454909  0.2840420748200654  0.5281864850216422  1.0000
  C   C17       1.0  0.9560837325971228  0.2196124845212204  0.41581079802655596  1.0000
  C   C18       1.0  0.9631991090181923  0.07002662738646115  0.4188616775679053  1.0000
  C   C19       1.0  0.9512841354620616  0.9843948612287903  0.5342306377088264  1.0000
  C   C20       1.0  0.9321897219785389  0.047134009189929056  0.6479734819910388  1.0000
  C   C21       1.0  0.9818705443959561  0.0038978194195180543  0.30294132078770414  1.0000
  C   C22       1.0  0.9975038459413637  0.948516208343646  0.20589122906689242  1.0000
  H   H9        1.0  0.9401512988873268  0.2770679983929374  0.9659161722551958  1.0000
  H   H10       1.0  0.9351576524582831  0.4007081124765452  0.5239385372809935  1.0000
  H   H11       1.0  0.9649138821288731  0.2868057472693357  0.32674879424886916  1.0000
  H   H12       1.0  0.9551527158834343  0.8679751025225124  0.5343865609973951  1.0000
  H   H13       1.0  0.9377442241480428  0.7488181314689055  0.8634374509228813  1.0000
  H   H14       1.0  0.011226529293712826  0.899901086307153  0.12070162341965918  1.0000
  C   C23       1.0  0.9297717532666512  0.6237049772420518  0.26546910969960447  1.0000
  C   C24       1.0  0.010017760580006922  0.6431223270987223  0.2702496297745369  1.0000
  C   C25       1.0  0.05079480016788621  0.6528455766930439  0.1555468412617036  1.0000
  C   C26       1.0  0.010241152823177616  0.642889312693586  0.03500166720191378  1.0000
  C   C27       1.0  0.9299448795948572  0.6234672361735158  0.028268764526667715  1.0000
  C   C28       1.0  0.8902045855779647  0.6139922810046607  0.14398899539929078  1.0000
  C   C29       1.0  0.13568701189540922  0.6733889960848853  0.1616489188651058  1.0000
  C   C30       1.0  0.1809249764466454  0.596730429180744  0.08295476939530455  1.0000
  C   C31       1.0  0.26082471080997927  0.6162460560177054  0.08893625469648936  1.0000
  C   C32       1.0  0.29640743073650627  0.7122780943655638  0.17320772794450084  1.0000
  C   C33       1.0  0.25216241829281766  0.7889943337193454  0.2517384175912026  1.0000
  C   C34       1.0  0.17224456443702962  0.7698393527015477  0.24622604719756172  1.0000
  H   H15       1.0  0.8989002693009255  0.6163090239067668  0.5911006984767491  1.0000
  H   H16       1.0  0.04109404558345429  0.6487442355205235  0.3635522187823179  1.0000
  H   H17       1.0  0.04127880356509842  0.6522890060555666  0.9461310319149515  1.0000
  H   H18       1.0  0.8283088250353194  0.5990192328462598  0.13958575055742695  1.0000
  H   H19       1.0  0.7783450287168191  0.5877216457344767  0.8082037736300585  1.0000
  H   H20       1.0  0.15460571891706962  0.5204005667660956  0.018129113980561492  1.0000
  H   H21       1.0  0.2951901423497787  0.5565548023653921  0.028385510336179882  1.0000
  H   H22       1.0  0.35826208583946206  0.727244723731667  0.17765639460969365  1.0000
  H   H23       1.0  0.2797903258580194  0.8636856233787813  0.31674762778793153  1.0000
  H   H24       1.0  0.13899775071814732  0.8317556406952626  0.306768828538828  1.0000
  Zn  Zn1       1.0  0.8457681683454731  0.619513711159426  0.6399941930591865  1.0000
  Zn  Zn2       1.0  0.013941089568477503  0.6276574567268132  0.6537424493653121  1.0000
  C   C35       1.0  0.9298787943207109  0.6177661374883007  0.8840681456235339  1.0000
  C   C36       1.0  0.9298323100828011  0.6294069391605941  0.4096687791541452  1.0000
  C   C37       1.0  0.9313032341989553  0.8870162925150287  0.6423799775841164  1.0000
  C   C38       1.0  0.9284078032958288  0.36015504844037394  0.6513570072274385  1.0000
  O   O1        1.0  0.9936733460300498  0.634404786221276  0.46328088071240137  1.0000
  O   O2        1.0  0.993677108250912  0.6189481169033624  0.840890275774775  1.0000
  O   O3        1.0  0.9948265014393659  0.8363709801379654  0.6457253036760888  1.0000
  O   O4        1.0  0.9925238954902659  0.41698193055596056  0.6584457507640897  1.0000
  O   O5        1.0  0.8671853050345281  0.8301892345527904  0.6352908869619758  1.0000
  O   O6        1.0  0.8660359213656442  0.612768104234191  0.830455794328354  1.0000
  O   O7        1.0  0.8660321585647948  0.6282247237793641  0.45284483761189726  1.0000
  O   O8        1.0  0.8648827079871833  0.41080185776727296  0.6480098050121513  1.0000
