data_image0
_chemical_formula_structural       NC9NC4H8C6NCOCH7C7NC2NH8Zn2C4O8
_chemical_formula_sum              "N5 C34 H23 O9 Zn2"
_cell_length_a       16.32274767691083
_cell_length_b       10.300268703208216
_cell_length_c       9.27399911348925
_cell_angle_alpha    85.0628393421283
_cell_angle_beta     89.127461349941
_cell_angle_gamma    89.50441699892957

_space_group_name_H-M_alt    "P 1"
_space_group_IT_number       1

loop_
  _space_group_symop_operation_xyz
  'x, y, z'

loop_
  _atom_site_type_symbol
  _atom_site_label
  _atom_site_symmetry_multiplicity
  _atom_site_fract_x
  _atom_site_fract_y
  _atom_site_fract_z
  _atom_site_occupancy
  N   N1        1.0  0.7765239831738426  0.4244309477331161  0.3960303683856241  1.0000
  C   C1        1.0  0.7244088846055056  0.3774640082529763  0.3356864906960022  1.0000
  C   C2        1.0  0.6596290456284849  0.3191307038607005  0.260738912077561  1.0000
  C   C3        1.0  0.6715563204414392  0.23934119071033333  0.1582191910923043  1.0000
  C   C4        1.0  0.5923734628117219  0.20040345432063858  0.10819297524980453  1.0000
  C   C5        1.0  0.5331729558860182  0.25738786896373833  0.18141352000169153  1.0000
  C   C6        1.0  0.4433061495540254  0.24232736982155106  0.1620659098031485  1.0000
  C   C7        1.0  0.3873984907569062  0.308746449311051  0.2474009660615977  1.0000
  C   C8        1.0  0.3027503829648368  0.29587502528647613  0.23086527230653656  1.0000
  C   C9        1.0  0.2464212182099093  0.364335956078824  0.31882283201732164  1.0000
  N   N2        1.0  0.2011515654692179  0.41936728222615804  0.38952581270862163  1.0000
  C   C10       1.0  0.2729573975045432  0.21647709628188205  0.1288572063990192  1.0000
  C   C11       1.0  0.3275427237297298  0.15014599076162183  0.043635561981048454  1.0000
  C   C12       1.0  0.4120336631410605  0.1626707194717647  0.059725686515445416  1.0000
  C   C13       1.0  0.5705369865250884  0.34047748817400425  0.2881705322622845  1.0000
  H   H1        1.0  0.7306095035115409  0.20831483111676555  0.11835159655277927  1.0000
  H   H2        1.0  0.5843843423914921  0.13519158626621808  0.024403529743907804  1.0000
  H   H3        1.0  0.40921992559043424  0.3707299170722844  0.327035576847706  1.0000
  H   H4        1.0  0.20761541744961473  0.20587370739507915  0.11523547421930248  1.0000
  H   H5        1.0  0.3043226038887798  0.08872428922466091  0.9647229813138495  1.0000
  H   H6        1.0  0.45206403234361126  0.10961010136017289  0.9915542949847658  1.0000
  H   H7        1.0  0.553392530986495  0.3048564001222791  0.40098487375741937  1.0000
  H   H8        1.0  0.5538166567864876  0.44472754564587397  0.26353604388171825  1.0000
  C   C14       1.0  0.9889249127529893  0.040550344219306034  0.3927852878181013  1.0000
  C   C15       1.0  0.00323880299583279  0.05094237287661474  0.2425309393322619  1.0000
  C   C16       1.0  0.011568248246931923  0.9388628056511499  0.16710888798594506  1.0000
  C   C17       1.0  0.003053326791666365  0.8157847834497034  0.24256978777579444  1.0000
  C   C18       1.0  0.9887584337881687  0.8032376858620335  0.39278324658243857  1.0000
  C   C19       1.0  0.9820778516536406  0.9162241494236614  0.46718093055826904  1.0000
  N   N3        1.0  0.024948623424550384  0.9479302027890367  0.012931721490110569  1.0000
  C   C20       1.0  0.07330832212789407  0.04706939376838924  0.934636393812646  1.0000
  O   O1        1.0  0.11935025967011903  0.11899306770878627  0.0005815334342855794  1.0000
  C   C21       1.0  0.0738817410894656  0.059216535375212986  0.7729426750608953  1.0000
  H   H9        1.0  0.0062882305063971505  0.1462157337527459  0.18376709179177042  1.0000
  H   H10       1.0  0.008336681220863175  0.7298228849818514  0.1834075628967009  1.0000
  H   H11       1.0  0.9710602851597746  0.9073994584026791  0.5830735524973132  1.0000
  H   H12       1.0  0.0025736265100986255  0.8732278006108389  0.9552814073657389  1.0000
  H   H13       1.0  0.011308926613180946  0.04324857356443057  0.732980938305249  1.0000
  H   H14       1.0  0.0943355107713395  0.15796261616897087  0.7305432534176726  1.0000
  H   H15       1.0  0.1163053346206104  0.9852967116519917  0.7325612757260469  1.0000
  C   C22       1.0  0.9902560358441332  0.4252007156254498  0.9689112021439588  1.0000
  C   C23       1.0  0.05458754313416336  0.36225063828197834  0.04641065723817418  1.0000
  C   C24       1.0  0.11349740904491702  0.2901200812199951  0.97685652404923  1.0000
  C   C25       1.0  0.10965920075408864  0.2784545464232264  0.8276189943301291  1.0000
  C   C26       1.0  0.0465603476806995  0.343582962643648  0.7485419999799348  1.0000
  C   C27       1.0  0.9874273240224268  0.41858729505615844  0.8166573041618967  1.0000
  C   C28       1.0  0.17255682661990446  0.2000377947195515  0.7559604281737231  1.0000
  N   N4        1.0  0.24117954580989875  0.15384550583168458  0.8229483394151829  1.0000
  C   C29       1.0  0.28085790758276574  0.08839501876931188  0.7230179283385629  1.0000
  C   C30       1.0  0.23610088643198957  0.09540069754111101  0.5981614107446385  1.0000
  N   N5        1.0  0.16798728312715672  0.16555495755951055  0.6190374372331235  1.0000
  H   H16       1.0  0.9030023832667541  0.590153434124995  0.23682397160908364  1.0000
  H   H17       1.0  0.05829827189881032  0.3660708480379263  0.16250494417441796  1.0000
  H   H18       1.0  0.16155783198098694  0.24170729081785816  0.04084833578091996  1.0000
  H   H19       1.0  0.044534362795894074  0.3400933766507058  0.632468059483434  1.0000
  H   H20       1.0  0.8595716180109879  0.49340543859869973  0.5328532456844629  1.0000
  H   H21       1.0  0.3388295825469232  0.03827815546382408  0.7404986445127157  1.0000
  H   H22       1.0  0.2518374935854786  0.051850782600344036  0.4992279373480351  1.0000
  H   H23       1.0  0.1216300279366236  0.18579140166413177  0.5440420277142448  1.0000
  Zn  Zn1       1.0  0.8990623101168834  0.42296613282693274  0.39416163000687265  1.0000
  Zn  Zn2       1.0  0.07861320756776413  0.42082134847901376  0.3914063760488187  1.0000
  C   C31       1.0  0.9879613116648407  0.4146639883538288  0.6564152149355456  1.0000
  C   C32       1.0  0.9897161658796707  0.4291251069584374  0.1291529027012901  1.0000
  C   C33       1.0  0.9888048885366457  0.6591184471158508  0.3870317566458539  1.0000
  C   C34       1.0  0.9888725278234489  0.184669088108266  0.39853643889068513  1.0000
  O   O2        1.0  0.057673611669612115  0.4296225686167843  0.1818858767314382  1.0000
  O   O3        1.0  0.056278844115432936  0.41253770857338296  0.601590651394318  1.0000
  O   O4        1.0  0.0569591195585184  0.609937774835859  0.38406161698459784  1.0000
  O   O5        1.0  0.056993275317067  0.2322225132202076  0.39941480385408945  1.0000
  O   O6        1.0  0.920682181095696  0.611564968819122  0.38615320313424234  1.0000
  O   O7        1.0  0.9200019055651433  0.4141664633781784  0.6036821605769  1.0000
  O   O8        1.0  0.9213966789743487  0.4312512917057094  0.18397565049208664  1.0000
  O   O9        1.0  0.9207163422593786  0.2338512261766162  0.40150468583444754  1.0000
