data_image0
_chemical_formula_structural       NC6NC3H6C6NH5C6NH7Zn2C4O8
_chemical_formula_sum              "N4 C25 H18 Zn2 O8"
_cell_length_a       14.934028789175542
_cell_length_b       9.274771166103582
_cell_length_c       9.274774538082516
_cell_angle_alpha    84.9550519661537
_cell_angle_beta     90.32448570792074
_cell_angle_gamma    90.55950156128424

_space_group_name_H-M_alt    "P 1"
_space_group_IT_number       1

loop_
  _space_group_symop_operation_xyz
  'x, y, z'

loop_
  _atom_site_type_symbol
  _atom_site_label
  _atom_site_symmetry_multiplicity
  _atom_site_fract_x
  _atom_site_fract_y
  _atom_site_fract_z
  _atom_site_occupancy
  N   N1        1.0  0.8474403379118893  0.5916956015858683  0.40460642464065644  1.0000
  C   C1        1.0  0.7699446270990215  0.5906030880767326  0.4039287735270529  1.0000
  C   C2        1.0  0.6735360138303115  0.5892389763916217  0.40308285273488664  1.0000
  C   C3        1.0  0.6267135523114539  0.6954778390172016  0.46885659310692146  1.0000
  C   C4        1.0  0.5331921344466372  0.6943825442355329  0.46817835249494055  1.0000
  C   C5        1.0  0.4855811095646319  0.5871026017093932  0.40176013844671354  1.0000
  C   C6        1.0  0.3889557154246409  0.5894043899139816  0.4031865044162848  1.0000
  N   N2        1.0  0.3114917661858667  0.5912311461914046  0.40431883439179717  1.0000
  C   C7        1.0  0.5323849921870655  0.47939395249732986  0.3350758771730473  1.0000
  C   C8        1.0  0.4830366491994707  0.3627583443162299  0.2628667047029216  1.0000
  C   C9        1.0  0.6265473678645952  0.48160689336955165  0.33644598786357993  1.0000
  H   H1        1.0  0.6624985430134086  0.7791842029362681  0.5206807894802556  1.0000
  H   H2        1.0  0.4978914748525997  0.7774442489578928  0.5196032875467205  1.0000
  H   H3        1.0  0.44027301237453326  0.41261372947137454  0.1740613175872625  1.0000
  H   H4        1.0  0.4401851039922465  0.2991979141763641  0.3431938486803323  1.0000
  H   H5        1.0  0.5298269560277784  0.2872118446287877  0.21608846994509268  1.0000
  H   H6        1.0  0.66335086627551  0.39965015443311946  0.2857054434064441  1.0000
  C   C10       1.0  0.07672423798124339  0.16786270858665753  0.40525099250287444  1.0000
  C   C11       1.0  0.05563732948918186  0.2523160932976152  0.27619909990015956  1.0000
  C   C12       1.0  0.04290761614330662  0.18841010436918526  0.14632316645716936  1.0000
  C   C13       1.0  0.05130824060791969  0.038681403701187334  0.14455833803582285  1.0000
  C   C14       1.0  0.07073273213530548  0.9529256888084029  0.27183828574708513  1.0000
  C   C15       1.0  0.08221645772983294  0.015052837227944591  0.4036867755631637  1.0000
  N   N3        1.0  0.022365553834637897  0.2759747899323668  0.01585243745462828  1.0000
  H   H7        1.0  0.17867662742524398  0.24467136244867096  0.7210494732338584  1.0000
  H   H8        1.0  0.04193781165167797  0.9880734852865943  0.04463164780482187  1.0000
  H   H9        1.0  0.14726429200882585  0.7160507049262138  0.6185442313769347  1.0000
  H   H10       1.0  0.016196003606432134  0.3880552743854748  0.01580938437763413  1.0000
  H   H11       1.0  0.013088286897318335  0.22936332423961914  0.9182992052085961  1.0000
  C   C16       1.0  0.07788728533320466  0.5951487800053035  0.9806467380430663  1.0000
  C   C17       1.0  0.14188731009992694  0.6802101504263052  0.04718674725284422  1.0000
  C   C18       1.0  0.2098274547427179  0.7533850001013824  0.9662447801718667  1.0000
  C   C19       1.0  0.2143161370699459  0.7418301130533445  0.8172858629557291  1.0000
  C   C20       1.0  0.15062399238922475  0.6599461460653728  0.7490372458467878  1.0000
  C   C21       1.0  0.08105338851844851  0.5877666898223858  0.8282909967481609  1.0000
  N   N4        1.0  0.27485413401421954  0.8382446579258489  0.03578976793891475  1.0000
  H   H12       1.0  0.9422149190440482  0.31329861575529283  0.10717066465384018  1.0000
  H   H13       1.0  0.1403198511625774  0.6870531645923033  0.16319524366130556  1.0000
  H   H14       1.0  0.26676574230012384  0.7975105407010358  0.7536199030501942  1.0000
  H   H15       1.0  0.15459085962337826  0.655929656050088  0.6328691301652989  1.0000
  H   H16       1.0  0.9869517272341986  0.402324844303636  0.5626093656631714  1.0000
  H   H17       1.0  0.2723125564271023  0.8472931498962761  0.14714460013777875  1.0000
  H   H18       1.0  0.3260039602464224  0.8927920206132294  0.976415388206533  1.0000
  Zn  Zn1       1.0  0.9813555756101748  0.5915576317966695  0.40453176749753195  1.0000
  Zn  Zn2       1.0  0.17757652602451612  0.5913571970522065  0.40440531300944427  1.0000
  C   C22       1.0  0.08041568067382145  0.5834154994554333  0.6680786951812561  1.0000
  C   C23       1.0  0.07851857601593393  0.5995011460465436  0.1408585222400216  1.0000
  C   C24       1.0  0.0811522092515724  0.8549659305721805  0.3982311625499666  1.0000
  C   C25       1.0  0.07778196953375976  0.32794898124216454  0.4107061350605561  1.0000
  O   O1        1.0  0.1531952302065942  0.6008794827593888  0.19457908336967455  1.0000
  O   O2        1.0  0.1546661789973552  0.5818839528134039  0.6142617445685559  1.0000
  O   O3        1.0  0.15525993692247114  0.8011643481200048  0.3963579506302588  1.0000
  O   O4        1.0  0.15260140498725616  0.38159909878260456  0.41248276911785053  1.0000
  O   O5        1.0  0.00633062968683662  0.8013157301363067  0.3964543114246841  1.0000
  O   O6        1.0  0.005736882705545509  0.5820370685873726  0.614358025209294  1.0000
  O   O7        1.0  0.004265927167114157  0.6010325633776172  0.19467362889053685  1.0000
  O   O8        1.0  0.003672102281400136  0.3817521681410516  0.41257742286439303  1.0000
