data_image0
_chemical_formula_structural       NC6NC3H6C7NH3C8H8Zn2C4O8
_chemical_formula_sum              "N3 C28 H17 Zn2 O8"
_cell_length_a       14.934028789175542
_cell_length_b       9.275154477615127
_cell_length_c       9.275657083861812
_cell_angle_alpha    86.07548322511155
_cell_angle_beta     89.47814586950791
_cell_angle_gamma    89.3962875590186

_space_group_name_H-M_alt    "P 1"
_space_group_IT_number       1

loop_
  _space_group_symop_operation_xyz
  'x, y, z'

loop_
  _atom_site_type_symbol
  _atom_site_label
  _atom_site_symmetry_multiplicity
  _atom_site_fract_x
  _atom_site_fract_y
  _atom_site_fract_z
  _atom_site_occupancy
  N   N1        1.0  0.8420947454934951  0.5689061523764802  0.4156120178224032  1.0000
  C   C1        1.0  0.7646191163805228  0.5678047491133551  0.4149287818925833  1.0000
  C   C2        1.0  0.6682355753139337  0.5664295403712063  0.4140758876869082  1.0000
  C   C3        1.0  0.619461454068354  0.673531166162646  0.48039284658970294  1.0000
  C   C4        1.0  0.5259601585122476  0.6724269747116665  0.47970900568238534  1.0000
  C   C5        1.0  0.4803199178429467  0.5642758154215526  0.4127422497943196  1.0000
  C   C6        1.0  0.38365222668019555  0.5665963144033124  0.41418038377765143  1.0000
  N   N2        1.0  0.30615470641369236  0.5684379245921547  0.4153220527739421  1.0000
  C   C7        1.0  0.529102466060295  0.4556924592130853  0.3455072553256051  1.0000
  C   C8        1.0  0.48189676389832126  0.3381096743714085  0.2727017024208003  1.0000
  C   C9        1.0  0.6232241884462981  0.4579233720530496  0.34688868112470866  1.0000
  H   H1        1.0  0.6537087125424861  0.7579173155954969  0.5326450480911056  1.0000
  H   H2        1.0  0.4891336107382791  0.756163227677586  0.5315586497643543  1.0000
  H   H3        1.0  0.43932523772577936  0.3867138263696106  0.18428417421950094  1.0000
  H   H4        1.0  0.4391048142493257  0.27568927195570914  0.35257090365156185  1.0000
  H   H5        1.0  0.5300749569597007  0.2619495734772883  0.2255371919594853  1.0000
  H   H6        1.0  0.6615332735624059  0.37530106232983695  0.2957290772017447  1.0000
  C   C10       1.0  0.07672926400561163  0.1452715399690796  0.41379724336140167  1.0000
  C   C11       1.0  0.05283936514810783  0.22782214572571213  0.2867095914811852  1.0000
  C   C12       1.0  0.021629536950677375  0.16119719608125901  0.1663593268135537  1.0000
  C   C13       1.0  0.013792665210104131  0.011111868696470623  0.17167942204129671  1.0000
  C   C14       1.0  0.038528185652624274  0.9273378595213413  0.29586934341830684  1.0000
  C   C15       1.0  0.0715287969972127  0.9920614990777024  0.4171492704661304  1.0000
  C   C16       1.0  0.996556636987633  0.24732294247690853  0.03774049662952517  1.0000
  N   N3        1.0  0.9764049950078765  0.3165522986789773  0.9343639022366963  1.0000
  H   H7        1.0  0.09217382237008673  0.2237437985807413  0.7676392242969641  1.0000
  H   H8        1.0  0.9893288244027207  0.9585349933391506  0.07918298319288473  1.0000
  H   H9        1.0  0.08573423018757542  0.6944942177357143  0.654231052377212  1.0000
  C   C17       1.0  0.07642328194452026  0.5664907007880156  0.9921433265777154  1.0000
  C   C18       1.0  0.12213307720818717  0.6763528609000873  0.057489790200367034  1.0000
  C   C19       1.0  0.1598982698422673  0.7923939881745159  0.9741866558415139  1.0000
  C   C20       1.0  0.1532886839118447  0.7975879567375381  0.8235724134356461  1.0000
  C   C21       1.0  0.10950895514244818  0.6883693833593423  0.7567746927505388  1.0000
  C   C22       1.0  0.0718347703424822  0.5708422986332551  0.8388031710470969  1.0000
  C   C23       1.0  0.2097128879720327  0.9079637324202344  0.04581266023405272  1.0000
  C   C24       1.0  0.3083218622345211  0.8667220520063453  0.06343295208336142  1.0000
  H   H10       1.0  0.12677930903519585  0.6736751084586569  0.17420134175190213  1.0000
  H   H11       1.0  0.18293539367929468  0.885680588170291  0.7575161482547537  1.0000
  H   H12       1.0  0.9671296636985424  0.4047787008435608  0.5703770673363686  1.0000
  H   H13       1.0  0.20416614273191247  0.012640092625177972  0.980389751868396  1.0000
  H   H14       1.0  0.1798298939376525  0.924323073634472  0.1537724044009925  1.0000
  H   H15       1.0  0.3153263373361188  0.7641468323768155  0.1317711412000755  1.0000
  H   H16       1.0  0.33991508768087997  0.8534205489418828  0.9561859203584651  1.0000
  H   H17       1.0  0.34380026937667973  0.9532362304718905  0.11631966349240597  1.0000
  Zn  Zn1       1.0  0.976012418127895  0.5687672110653903  0.4155366432600598  1.0000
  Zn  Zn2       1.0  0.17223707250372583  0.5685651158948519  0.41540916653779036  1.0000
  C   C25       1.0  0.07273537714812933  0.5642758858951957  0.6787435728520943  1.0000
  C   C26       1.0  0.07551624431127513  0.573058258801229  0.1522023842462461  1.0000
  C   C27       1.0  0.07253831621254674  0.831970631252434  0.410771051400395  1.0000
  C   C28       1.0  0.075713248511108  0.3053617816406594  0.4201749757411052  1.0000
  O   O1        1.0  0.14967810652837318  0.5751794070253164  0.2058712645061962  1.0000
  O   O2        1.0  0.1475034962018431  0.5620002622798481  0.6249775214246294  1.0000
  O   O3        1.0  0.14734335504006335  0.7781671633560758  0.408587820988934  1.0000
  O   O4        1.0  0.14983818125441783  0.3590125157766235  0.4222608569376789  1.0000
  O   O5        1.0  0.9984112424153899  0.778319811254115  0.4086849528960963  1.0000
  O   O6        1.0  0.9985713733511072  0.5621546420517138  0.6250745833245576  1.0000
  O   O7        1.0  0.0007459934388926991  0.575333727645197  0.20596659300980336  1.0000
  O   O8        1.0  0.0009060676388601449  0.35916682663946564  0.4223562934814242  1.0000
