data_image0
_chemical_formula_structural       NC4NC6H6C12H9C6NH5Zn2C4O8
_chemical_formula_sum              "N3 C32 H20 Zn2 O8"
_cell_length_a       11.002025771509814
_cell_length_b       14.994056859933256
_cell_length_c       9.274774538082516
_cell_angle_alpha    85.07848573505835
_cell_angle_beta     90.35916991174172
_cell_angle_gamma    89.93048505129264

_space_group_name_H-M_alt    "P 1"
_space_group_IT_number       1

loop_
  _space_group_symop_operation_xyz
  'x, y, z'

loop_
  _atom_site_type_symbol
  _atom_site_label
  _atom_site_symmetry_multiplicity
  _atom_site_fract_x
  _atom_site_fract_y
  _atom_site_fract_z
  _atom_site_occupancy
  N   N1        1.0  0.1358768514177917  0.984118712474837  0.4088029968577525  1.0000
  C   C1        1.0  0.08128031039763028  0.04230343066774944  0.4514568352118373  1.0000
  C   C2        1.0  0.013003164853431453  0.1151742072200379  0.50486696266809  1.0000
  C   C3        1.0  0.8907522802769223  0.11347920408098422  0.5052930458709273  1.0000
  C   C4        1.0  0.821412987368384  0.04144385600011091  0.45183209212349046  1.0000
  N   N2        1.0  0.7657819499676911  0.9837099615752812  0.40898361162805824  1.0000
  C   C5        1.0  0.0807826058119745  0.19094951285497452  0.5607476367802016  1.0000
  C   C6        1.0  0.19134053827580358  0.17530341853313303  0.6361674766752807  1.0000
  C   C7        1.0  0.25583560971282626  0.24625981960067647  0.6883006566212322  1.0000
  C   C8        1.0  0.21128939317534035  0.3335906236384698  0.6653475846316805  1.0000
  C   C9        1.0  0.1022518575039626  0.35020761187714555  0.5899132950548114  1.0000
  C   C10       1.0  0.03728379129654002  0.2795290852189434  0.5375923120415559  1.0000
  H   H1        1.0  0.8398363172711198  0.1665911414388026  0.5492116127859994  1.0000
  H   H2        1.0  0.22729029191990868  0.10808430277442714  0.6561260490122673  1.0000
  H   H3        1.0  0.34042884232189086  0.23347252185188827  0.7466805578738189  1.0000
  H   H4        1.0  0.2614245334396761  0.3884202462589399  0.705697766965439  1.0000
  H   H5        1.0  0.0682191189358703  0.4180115579156536  0.5713964705150711  1.0000
  H   H6        1.0  0.9541577079998721  0.2944423348679732  0.4771988770648928  1.0000
  C   C11       1.0  0.450949000313964  0.7219508114866714  0.40879008471087586  1.0000
  C   C12       1.0  0.5067782403694565  0.680232267498363  0.29634574223824833  1.0000
  C   C13       1.0  0.5067666776126647  0.5870071364014245  0.29642629957346944  1.0000
  C   C14       1.0  0.45085564921481436  0.5334503897363558  0.408850380982322  1.0000
  C   C15       1.0  0.3950060569545035  0.5752725909898667  0.5212161681130276  1.0000
  C   C16       1.0  0.3951052953292742  0.6684977952388533  0.5211999323347187  1.0000
  C   C17       1.0  0.45079060794755765  0.4343732880092319  0.4089128924774126  1.0000
  C   C18       1.0  0.34665677585418364  0.3846192899221094  0.4504869203520479  1.0000
  C   C19       1.0  0.3465880662999601  0.29139866134535847  0.45048357313286247  1.0000
  C   C20       1.0  0.45072152695964585  0.2458709447133346  0.40900902410602386  1.0000
  C   C21       1.0  0.5548296131233941  0.2955179301383832  0.3675101823000626  1.0000
  C   C22       1.0  0.5548637365937181  0.38874826805710294  0.3673982411608092  1.0000
  H   H7        1.0  0.39451007317966164  0.9288082847605628  0.5223471438228706  1.0000
  H   H8        1.0  0.5502872055673027  0.7196165594932682  0.2079419654371839  1.0000
  H   H9        1.0  0.5491570713579281  0.5568626408988488  0.2073660574061591  1.0000
  H   H10       1.0  0.3525725717352499  0.5358169441365863  0.6103168117703852  1.0000
  H   H11       1.0  0.35163425573723806  0.6986145470179468  0.6095754257807688  1.0000
  H   H12       1.0  0.26456041713654677  0.41789493998767685  0.4812100331099627  1.0000
  H   H13       1.0  0.26479833496295213  0.2550331125091942  0.48264447691360535  1.0000
  H   H14       1.0  0.6365880147129155  0.2623818498011382  0.3353876289815648  1.0000
  H   H15       1.0  0.6370022701094997  0.4250727918665189  0.3366332097783041  1.0000
  C   C23       1.0  0.4486529520624763  0.9861938929896347  0.9850835532005888  1.0000
  C   C24       1.0  0.5347548697876967  0.03878101278335411  0.05186674957043436  1.0000
  C   C25       1.0  0.626312875144615  0.08401620714502545  0.9711470126495096  1.0000
  C   C26       1.0  0.6325105710643011  0.07686922786160899  0.8221683889126488  1.0000
  C   C27       1.0  0.5467977543918365  0.02624700571053506  0.7536835628734737  1.0000
  C   C28       1.0  0.45301754613787276  0.9816278121371133  0.8327155236812613  1.0000
  N   N3        1.0  0.713810197223173  0.13647831446691194  0.04093580235271465  1.0000
  H   H16       1.0  0.2670479350206234  0.811926892779781  0.11087891775776004  1.0000
  H   H17       1.0  0.7032004485106338  0.11128953157894794  0.7586722897637415  1.0000
  H   H18       1.0  0.32696611427283484  0.8669710147898413  0.5665496487282917  1.0000
  H   H19       1.0  0.7102782193023414  0.1420747724005469  0.15230705071764072  1.0000
  H   H20       1.0  0.7827460368117422  0.17019824549616439  0.9817275917752815  1.0000
  Zn  Zn1       1.0  0.3176539074590201  0.983998322712472  0.4088634475300275  1.0000
  Zn  Zn2       1.0  0.5840049606739091  0.983822988263119  0.40893496505555876  1.0000
  C   C29       1.0  0.4521913829682238  0.9789371044306762  0.6724934475244468  1.0000
  C   C30       1.0  0.44947039395058885  0.9888853294400385  0.14530510796611296  1.0000
  C   C31       1.0  0.45072863946117336  0.14686984971338402  0.40321643647178174  1.0000
  C   C32       1.0  0.45093304743222057  0.8209515120260245  0.41458219549157116  1.0000
  O   O1        1.0  0.5508235732004001  0.9897181697743829  0.19910406428950125  1.0000
  O   O2        1.0  0.5529924883176178  0.9779705185698268  0.6187483556111483  1.0000
  O   O3        1.0  0.5518099495729591  0.11357832699808945  0.4013052640282855  1.0000
  O   O4        1.0  0.5520060204975095  0.8541103683703563  0.416547047637976  1.0000
  O   O5        1.0  0.3496527567428376  0.11371094266607985  0.40125136491561375  1.0000
  O   O6        1.0  0.3508352946203317  0.9781042064299681  0.6186943799936875  1.0000
  O   O7        1.0  0.34866637066266715  0.9898518358951853  0.19904835347157657  1.0000
  O   O8        1.0  0.3498488185147437  0.8542440275277676  0.4164914450224438  1.0000
