data_image0
_chemical_formula_structural       NC5NC3H4C6NH7C6IH3Zn2C4O8
_chemical_formula_sum              "N3 C24 H14 I1 Zn2 O8"
_cell_length_a       13.859018345313864
_cell_length_b       9.274771166103582
_cell_length_c       9.275433903346869
_cell_angle_alpha    86.06373460888793
_cell_angle_beta     89.96562363921994
_cell_angle_gamma    90.59704768766964

_space_group_name_H-M_alt    "P 1"
_space_group_IT_number       1

loop_
  _space_group_symop_operation_xyz
  'x, y, z'

loop_
  _atom_site_type_symbol
  _atom_site_label
  _atom_site_symmetry_multiplicity
  _atom_site_fract_x
  _atom_site_fract_y
  _atom_site_fract_z
  _atom_site_occupancy
  N   N1        1.0  0.920120098180186  0.5617183045598751  0.40768694808745964  1.0000
  C   C1        1.0  0.8474729627284141  0.5227121621880957  0.45899458483537603  1.0000
  C   C2        1.0  0.7571042139361246  0.47419374613856125  0.5228144601235638  1.0000
  C   C3        1.0  0.6698438771713524  0.5214935229359283  0.46059789692560543  1.0000
  C   C4        1.0  0.581873907480797  0.4741934542899249  0.5228143351497945  1.0000
  C   C5        1.0  0.4922330823491933  0.5227120484395602  0.4589944877646263  1.0000
  N   N2        1.0  0.42017119540880427  0.5617182699193262  0.40768687914830526  1.0000
  C   C6        1.0  0.5813466491206213  0.37957962187777694  0.6472659512013608  1.0000
  C   C7        1.0  0.6684258104791516  0.33246192414423964  0.7092430900268369  1.0000
  C   C8        1.0  0.7562119946661331  0.37957991927508505  0.6472661542441716  1.0000
  H   H1        1.0  0.6703931961315671  0.5947272102571148  0.36426899857773065  1.0000
  H   H2        1.0  0.5137718946226947  0.3423498540562675  0.6962362139525964  1.0000
  H   H3        1.0  0.6678775438863813  0.2593769164929747  0.8053766147826469  1.0000
  H   H4        1.0  0.8232281598473019  0.3423503886619266  0.69623663813359  1.0000
  C   C9        1.0  0.1671876814026385  0.1381300716329672  0.40847234421246337  1.0000
  C   C10       1.0  0.14502638312496963  0.22006780585545926  0.27961417674992395  1.0000
  C   C11       1.0  0.13187416648467676  0.15363870305941374  0.1499384594653108  1.0000
  C   C12       1.0  0.14093413908885166  0.0038843995960626846  0.1481816562984137  1.0000
  C   C13       1.0  0.1613117683375327  0.9206084037380305  0.2752696893879718  1.0000
  C   C14       1.0  0.17311275976641058  0.9852955294473189  0.40691403163091244  1.0000
  N   N3        1.0  0.11030615262062793  0.23866086686191748  0.01966406602066506  1.0000
  H   H5        1.0  0.2756751318519217  0.22114568007418364  0.7238279198108615  1.0000
  H   H6        1.0  0.14016146723148837  0.3366546254590177  0.27906066820366  1.0000
  H   H7        1.0  0.13127151360092726  0.9513356237360532  0.04840927483371572  1.0000
  H   H8        1.0  0.16556538934480192  0.8044004795224108  0.27114288208103754  1.0000
  H   H9        1.0  0.24227193666779565  0.6905120048248645  0.6214674805523688  1.0000
  H   H10       1.0  0.10365819251240668  0.35073427112253924  0.019617264741758515  1.0000
  H   H11       1.0  0.1007335909791711  0.19015451190376  0.9222613973360998  1.0000
  C   C15       1.0  0.17028808477124402  0.5572106349186401  0.9845491265685982  1.0000
  C   C16       1.0  0.25915162417018855  0.5545101884731125  0.05800895069575951  1.0000
  C   C17       1.0  0.3461502217068655  0.5651018816514248  0.9818707177936408  1.0000
  C   C18       1.0  0.34568000427493106  0.5787307848565313  0.8313000041320402  1.0000
  C   C19       1.0  0.25843605995331215  0.579250895207817  0.7563236690848159  1.0000
  C   C20       1.0  0.1700123314441295  0.5662148829257165  0.830837186912361  1.0000
  I   I1        1.0  0.47830346823835934  0.5631869930949627  0.09465862061720198  1.0000
  H   H12       1.0  0.9408762889003424  0.6426667853992045  0.08188156483381359  1.0000
  H   H13       1.0  0.4130371469134866  0.5875484086731264  0.7720728459622181  1.0000
  H   H14       1.0  0.015034700657918783  0.6176833855109938  0.5462670005962666  1.0000
  Zn  Zn1       1.0  0.06442401177048707  0.5617145113665891  0.4076952657106734  1.0000
  Zn  Zn2       1.0  0.275867171635676  0.561710350755483  0.4076904183580041  1.0000
  C   C21       1.0  0.1700221187444415  0.5587664944979502  0.6708812182093005  1.0000
  C   C22       1.0  0.17027138629758465  0.5646601891059642  0.14450460388767003  1.0000
  C   C23       1.0  0.1719896864616044  0.8251020997460012  0.40146650134538486  1.0000
  C   C24       1.0  0.16830373428379206  0.29832285164127037  0.413919400764148  1.0000
  O   O1        1.0  0.25050731534791226  0.5671524556477814  0.1981852953179848  1.0000
  O   O2        1.0  0.25026664809452615  0.5562699775528286  0.6171964349550486  1.0000
  O   O3        1.0  0.25185440172639684  0.7713393630269121  0.39964214219947936  1.0000
  O   O4        1.0  0.24891948967218558  0.35208307934428174  0.4157394800151435  1.0000
  O   O5        1.0  0.0913716215788174  0.7713417827807002  0.3996462040476061  1.0000
  O   O6        1.0  0.08978388008841671  0.5562741295261686  0.617200416784685  1.0000
  O   O7        1.0  0.09002454761889034  0.5671565389224169  0.19818754480364564  1.0000
  O   O8        1.0  0.0884367218318598  0.3520871534512431  0.41574183755328775  1.0000
