data_image0
_chemical_formula_structural       NC5NC4H6C6NCH9C7ONH5Zn2C4O8
_chemical_formula_sum              "N4 C27 H20 O9 Zn2"
_cell_length_a       13.854160002989762
_cell_length_b       9.273386996610926
_cell_length_c       9.273042158839658
_cell_angle_alpha    86.06883900085258
_cell_angle_beta     90.09323775389821
_cell_angle_gamma    89.39858485477477

_space_group_name_H-M_alt    "P 1"
_space_group_IT_number       1

loop_
  _space_group_symop_operation_xyz
  'x, y, z'

loop_
  _atom_site_type_symbol
  _atom_site_label
  _atom_site_symmetry_multiplicity
  _atom_site_fract_x
  _atom_site_fract_y
  _atom_site_fract_z
  _atom_site_occupancy
  N   N1        1.0  0.8961991432561269  0.5620991951626604  0.4075483494769943  1.0000
  C   C1        1.0  0.8236292895480258  0.5866971511950732  0.34846993170107066  1.0000
  C   C2        1.0  0.7333513662015727  0.6172976687293672  0.27497411835688723  1.0000
  C   C3        1.0  0.6460602189879384  0.5885605406598526  0.3467343704833541  1.0000
  C   C4        1.0  0.5582089537060665  0.6172976828192336  0.27497409516444704  1.0000
  C   C5        1.0  0.4685211493122792  0.5866970047948339  0.34847002355033774  1.0000
  N   N2        1.0  0.3964255731045884  0.5620991316451323  0.40754834949460683  1.0000
  C   C6        1.0  0.5576772264434191  0.6753787306802295  0.13147156381553415  1.0000
  C   C7        1.0  0.644920420831308  0.7062655605061483  0.05960435831684929  1.0000
  C   C8        1.0  0.6443426888650788  0.7644668430922463  0.9046142552704958  1.0000
  C   C9        1.0  0.7327543153967676  0.6753787284038795  0.13147147355380606  1.0000
  H   H1        1.0  0.6464978527496242  0.5434956110238105  0.457802877407002  1.0000
  H   H2        1.0  0.48959461495909257  0.6965859710999581  0.07579504213987409  1.0000
  H   H3        1.0  0.7086936524732969  0.8323981282728311  0.880719477403384  1.0000
  H   H4        1.0  0.5789851748674936  0.8323981308356002  0.8807195424748114  1.0000
  H   H5        1.0  0.6449064739694729  0.6731609721167375  0.83322007728979  1.0000
  H   H6        1.0  0.8004175731636335  0.6965860827188737  0.07579495654238988  1.0000
  C   C10       1.0  0.1492858744425023  0.13845263114489703  0.40825663878828156  1.0000
  C   C11       1.0  0.1661014517542773  0.22055541198640854  0.2779345979235466  1.0000
  C   C12       1.0  0.17382885407648177  0.1546796207106746  0.1476045004408577  1.0000
  C   C13       1.0  0.16485618996144955  0.0043437707117124314  0.144264205985549  1.0000
  C   C14       1.0  0.14974113986524484  0.9212733063829052  0.27413353740039814  1.0000
  C   C15       1.0  0.14334815559216044  0.9857346983929807  0.40685260714410926  1.0000
  N   N3        1.0  0.17176489436504155  0.933403210003297  0.011243314653510245  1.0000
  C   C16       1.0  0.18770143168690695  0.009818068520783166  0.8705909360222249  1.0000
  H   H7        1.0  0.1692462848834726  0.40309005338521087  0.644890277962239  1.0000
  H   H8        1.0  0.1710227914046458  0.33718267716663  0.2761662863180008  1.0000
  H   H9        1.0  0.1859017817646306  0.22225040993614797  0.04970012191231943  1.0000
  H   H10       1.0  0.14518289382325592  0.804848285479375  0.2718597629100632  1.0000
  H   H11       1.0  0.17924410811900385  0.8580707662927161  0.7579076827019973  1.0000
  H   H12       1.0  0.16494390873102405  0.821067572866718  0.014232147090651688  1.0000
  H   H13       1.0  0.1278388199532103  0.08812783740526385  0.8455481281603268  1.0000
  H   H14       1.0  0.2575649654472969  0.06737225665545489  0.8708235240911305  1.0000
  H   H15       1.0  0.19004792212645039  0.9314826224351015  0.7852625387603918  1.0000
  C   C17       1.0  0.14588671466657877  0.5576350508305687  0.9842970920908584  1.0000
  C   C18       1.0  0.05716841134302907  0.5668217184148827  0.05696267088360086  1.0000
  C   C19       1.0  0.9700953476219981  0.5899627140382087  0.9806681564856046  1.0000
  C   C20       1.0  0.9722879237761681  0.6021745210039731  0.8291492195947687  1.0000
  C   C21       1.0  0.059440923507859206  0.5908697443108573  0.7554777200571823  1.0000
  C   C22       1.0  0.1467473647925623  0.5665522585008653  0.8308121538084241  1.0000
  C   C23       1.0  0.87778994378615  0.5999219858551101  0.06051166771961892  1.0000
  O   O1        1.0  0.8717327501970429  0.5440942060473803  0.18797480345158668  1.0000
  N   N4        1.0  0.7951738517458597  0.6731115439895663  0.9968539156737505  1.0000
  H   H16       1.0  0.37968398511452817  0.6127400811933253  0.08416584487572898  1.0000
  H   H17       1.0  0.9065497783733731  0.6164384883954543  0.7665024456533844  1.0000
  H   H18       1.0  0.3043813806842024  0.5969746448165181  0.5478399651047527  1.0000
  H   H19       1.0  0.7993856837301435  0.7354091368917112  0.8990848520183884  1.0000
  H   H20       1.0  0.7299357368829882  0.6729491738238791  0.05309664239775281  1.0000
  Zn  Zn1       1.0  0.04055372651680389  0.5620954021859206  0.40755668823438285  1.0000
  Zn  Zn2       1.0  0.25207108578521864  0.5620912438613881  0.40755186756903106  1.0000
  C   C24       1.0  0.14662278097409098  0.5591195250974794  0.6708121814989318  1.0000
  C   C25       1.0  0.14600432847838407  0.565068942667788  0.14429651270244803  1.0000
  C   C26       1.0  0.1444597194505115  0.8255198626511063  0.4013743762655204  1.0000
  C   C27       1.0  0.14816733005067118  0.29866687265095615  0.4137343976533996  1.0000
  O   O2        1.0  0.22631358036519822  0.5675559527829578  0.19799196088480198  1.0000
  O   O3        1.0  0.22685031779860274  0.5566282662072717  0.6171126614382885  1.0000
  O   O4        1.0  0.22510253771191224  0.7717499236826338  0.39953972493400713  1.0000
  O   O5        1.0  0.22806128809314852  0.35243430449071167  0.415564789303571  1.0000
  O   O6        1.0  0.064563452028362  0.7717523415595063  0.3995437664939039  1.0000
  O   O7        1.0  0.06631121988583132  0.5566324165502587  0.6171166232747067  1.0000
  O   O8        1.0  0.06577448110715589  0.5675600345985137  0.19799418990352047  1.0000
  O   O9        1.0  0.06752218901333372  0.3524383771260611  0.41556712640186344  1.0000
