data_image0
_chemical_formula_structural       NC8NC6H8C6ClH3C6OCH6Zn2C4O8
_chemical_formula_sum              "N2 C31 H17 Cl1 O9 Zn2"
_cell_length_a       17.457602349358154
_cell_length_b       10.30297070629231
_cell_length_c       9.273891588657152
_cell_angle_alpha    86.0762958320409
_cell_angle_beta     92.54290593679646
_cell_angle_gamma    91.68807172504815

_space_group_name_H-M_alt    "P 1"
_space_group_IT_number       1

loop_
  _space_group_symop_operation_xyz
  'x, y, z'

loop_
  _atom_site_type_symbol
  _atom_site_label
  _atom_site_symmetry_multiplicity
  _atom_site_fract_x
  _atom_site_fract_y
  _atom_site_fract_z
  _atom_site_occupancy
  N   N1        1.0  0.7269503321605899  0.44018143935019083  0.47598921971283564  1.0000
  C   C1        1.0  0.6659073744621371  0.39417699065112827  0.46421015169809626  1.0000
  C   C2        1.0  0.5899673206138759  0.33695325360907336  0.4495675787197908  1.0000
  C   C3        1.0  0.5311919234959173  0.3777662341365602  0.5326730482108641  1.0000
  C   C4        1.0  0.4566879280175292  0.32266552097540835  0.5187122476016668  1.0000
  C   C5        1.0  0.3943070658736931  0.3657601329491544  0.606724091691544  1.0000
  C   C6        1.0  0.3199441293613354  0.3837280564284311  0.5448496435576429  1.0000
  C   C7        1.0  0.2611683737165661  0.4243581284534341  0.6280748970121395  1.0000
  C   C8        1.0  0.1853745812860833  0.44291206269487904  0.5637422028767823  1.0000
  N   N2        1.0  0.1244492881814891  0.45782304953762404  0.5120188843923573  1.0000
  C   C9        1.0  0.2762617164469996  0.4472678488751644  0.7737388429737797  1.0000
  C   C10       1.0  0.3498386719172917  0.42969222289049086  0.8360433648356453  1.0000
  C   C11       1.0  0.4086013145684451  0.38924620561416207  0.7533259928662301  1.0000
  C   C12       1.0  0.44225269659150596  0.22606192121409016  0.42005602884382576  1.0000
  C   C13       1.0  0.5010150576570854  0.18553107728841575  0.337394397723636  1.0000
  C   C14       1.0  0.5747324755315333  0.2407490062847999  0.35196541531896  1.0000
  H   H1        1.0  0.5433164334600159  0.4535270181521857  0.6066056019859654  1.0000
  H   H2        1.0  0.3079352732219579  0.36785793409325096  0.4316446368710778  1.0000
  H   H3        1.0  0.23120689576918932  0.4786623257607461  0.8390223052142745  1.0000
  H   H4        1.0  0.3613350468624127  0.44711619032831873  0.9488342066598263  1.0000
  H   H5        1.0  0.4649350193430143  0.37466810967271286  0.8044850987783381  1.0000
  H   H6        1.0  0.3858031359253498  0.18064662905638812  0.40823688603022784  1.0000
  H   H7        1.0  0.489408305679723  0.11087576643797648  0.2621322026948535  1.0000
  H   H8        1.0  0.61978565607239  0.20848964605504314  0.2872490904999844  1.0000
  C   C15       1.0  0.9257034443294506  0.06775499364864812  0.49401059867956126  1.0000
  C   C16       1.0  0.004821502877095931  0.06834887272532363  0.5289448313162022  1.0000
  C   C17       1.0  0.04407777213323927  0.9516866949569887  0.5462781644132773  1.0000
  C   C18       1.0  0.004821502465996781  0.8332409034863977  0.5289447634900473  1.0000
  C   C19       1.0  0.9257034522700414  0.8302399364841447  0.4940106819111627  1.0000
  C   C20       1.0  0.8865300879010425  0.9481075611248639  0.47671382256651856  1.0000
  Cl  Cl1       1.0  0.1429150779074544  0.9539321075662979  0.5899192449035875  1.0000
  H   H9        1.0  0.036288677923687944  0.15911033638688332  0.5428389009237384  1.0000
  H   H10       1.0  0.03628864789890087  0.7439091413848337  0.5428387946435214  1.0000
  H   H11       1.0  0.825511840280177  0.9467212160639759  0.44977144578810646  1.0000
  C   C21       1.0  0.9269599796258657  0.4456148258657859  0.07084917538467428  1.0000
  C   C22       1.0  0.9897728479030169  0.503238622776101  0.1451162945562896  1.0000
  C   C23       1.0  0.04823504010972602  0.5703638109421796  0.07060561883534387  1.0000
  C   C24       1.0  0.044093418270134015  0.5801997957732055  0.9187896059744388  1.0000
  C   C25       1.0  0.9828919592377041  0.52186141200477  0.8433263485132452  1.0000
  C   C26       1.0  0.9244469162270794  0.4523800202263998  0.9171720299388064  1.0000
  O   O1        1.0  0.10895324182266114  0.6262961726924805  0.15131578315870686  1.0000
  C   C27       1.0  0.1721144486052324  0.6974249354107536  0.089964405236703  1.0000
  H   H12       1.0  0.7445209381958984  0.3577787781207937  0.165329967019769  1.0000
  H   H13       1.0  0.0882771170281802  0.6317364072173423  0.8578723236134196  1.0000
  H   H14       1.0  0.8027842863713431  0.3881488281280975  0.6307017655837859  1.0000
  H   H15       1.0  0.15152563155462606  0.7843664193682031  0.023702640942094167  1.0000
  H   H16       1.0  0.20409549784895645  0.6344112003478386  0.022450527067366267  1.0000
  H   H17       1.0  0.21137691000510428  0.7301995475250956  0.1783667374530462  1.0000
  Zn  Zn1       1.0  0.8416599197446106  0.4452690118863716  0.4863949228479747  1.0000
  Zn  Zn2       1.0  0.009739651315465283  0.4527249268801721  0.5016249789556628  1.0000
  C   C28       1.0  0.924920240529406  0.4459291860509831  0.7571987527335986  1.0000
  C   C29       1.0  0.9264811655361915  0.4520664733621666  0.23082145681678123  1.0000
  C   C30       1.0  0.9257165671254927  0.6860679453589135  0.48826797150814616  1.0000
  C   C31       1.0  0.9256847813580655  0.21192615231857737  0.4997523096713974  1.0000
  O   O2        1.0  0.9901058533297517  0.45705552214500184  0.29028934275075485  1.0000
  O   O3        1.0  0.9888641811295771  0.4465980215039706  0.7092897121716473  1.0000
  O   O4        1.0  0.9895063606201847  0.640513080448929  0.4921261256876452  1.0000
  O   O5        1.0  0.9894636168057446  0.2631404690794255  0.5074528159922462  1.0000
  O   O6        1.0  0.8619358968969907  0.634853467144133  0.48056708060654135  1.0000
  O   O7        1.0  0.8612937176310818  0.4409399673918481  0.6977305902565298  1.0000
  O   O8        1.0  0.8625353950267244  0.4513974089444628  0.2787284883326081  1.0000
  O   O9        1.0  0.8618931581787757  0.2574823474565195  0.4958920696117605  1.0000
