data_image0
_chemical_formula_structural       NC10NC3NH7C12ClH9C13OH12Zn2C4O8
_chemical_formula_sum              "N3 C42 H28 Cl1 O9 Zn2"
_cell_length_a       19.210446455230148
_cell_length_b       10.299768534541528
_cell_length_c       10.29915348156089
_cell_angle_alpha    85.58394017871096
_cell_angle_beta     90.00736926035154
_cell_angle_gamma    89.96529235611058

_space_group_name_H-M_alt    "P 1"
_space_group_IT_number       1

loop_
  _space_group_symop_operation_xyz
  'x, y, z'

loop_
  _atom_site_type_symbol
  _atom_site_label
  _atom_site_symmetry_multiplicity
  _atom_site_fract_x
  _atom_site_fract_y
  _atom_site_fract_z
  _atom_site_occupancy
  N   N1        1.0  0.655484723008645  0.4196309795923179  0.5674076135860988  1.0000
  C   C1        1.0  0.5952564107760071  0.42183852192692695  0.5676389124422738  1.0000
  C   C2        1.0  0.5204522651434402  0.42457547009921415  0.5679254630048454  1.0000
  C   C3        1.0  0.4848543199792348  0.5408084526953678  0.5830451928550158  1.0000
  C   C4        1.0  0.41218884429824487  0.5409599669842675  0.5829926054944867  1.0000
  C   C5        1.0  0.3752855882684116  0.42528444998311493  0.5680119945956024  1.0000
  C   C6        1.0  0.2979633146254647  0.42392795459706795  0.5678613100031747  1.0000
  C   C7        1.0  0.260206860073782  0.5274729843150543  0.5045062503423403  1.0000
  C   C8        1.0  0.18742836371265173  0.5260707499502721  0.5043970805936657  1.0000
  C   C9        1.0  0.15140492415796084  0.42138097062350277  0.5675919908950107  1.0000
  C   C10       1.0  0.0764752669313687  0.4200788728467426  0.5674550733392525  1.0000
  N   N2        1.0  0.016237304329581207  0.41903194203918304  0.5673450264974829  1.0000
  C   C11       1.0  0.1884377276760111  0.317961621169105  0.6309220504895741  1.0000
  C   C12       1.0  0.2612180581138877  0.3190896126829017  0.6310814477487392  1.0000
  C   C13       1.0  0.4134936044083209  0.310871780539848  0.5531805539072374  1.0000
  N   N3        1.0  0.48426379258982033  0.31331675218024513  0.5533462829736772  1.0000
  H   H1        1.0  0.5129651560232612  0.6302440997860459  0.5950997285821119  1.0000
  H   H2        1.0  0.38493016266024555  0.630977965736395  0.5964419101806968  1.0000
  H   H3        1.0  0.2869318532578395  0.608705914038324  0.4535208956389817  1.0000
  H   H4        1.0  0.1592798337083944  0.6064764742495872  0.45474206919676785  1.0000
  H   H5        1.0  0.1610728253093382  0.23659248903402458  0.6804775115844348  1.0000
  H   H6        1.0  0.2887219855184849  0.23880358795162726  0.6821741998385404  1.0000
  H   H7        1.0  0.3872180097673482  0.21999086655793754  0.5396849435837301  1.0000
  C   C14       1.0  0.8357986852558482  0.0379661859980478  0.5673742104026225  1.0000
  C   C15       1.0  0.8403619511835378  0.04747274951166936  0.4309035120332828  1.0000
  C   C16       1.0  0.8427411157617024  0.9351503253083745  0.36176010112281753  1.0000
  C   C17       1.0  0.8404949018402578  0.8121848171564966  0.4309189790337149  1.0000
  C   C18       1.0  0.8359299983486393  0.8006867273009732  0.5673896156370162  1.0000
  C   C19       1.0  0.8336079664007539  0.9141341939276203  0.6348529947420261  1.0000
  C   C20       1.0  0.8475695962379397  0.9462611432716678  0.2173854788409273  1.0000
  C   C21       1.0  0.807957043855072  0.03983886333957143  0.14292801333206562  1.0000
  C   C22       1.0  0.8125637699702482  0.050100786972653515  0.007046489953128617  1.0000
  C   C23       1.0  0.8567155620922068  0.9673065981962508  0.9439305738145185  1.0000
  C   C24       1.0  0.8963164706916485  0.874040570955535  0.01687680996924645  1.0000
  C   C25       1.0  0.891833362947093  0.8633861963536934  0.15277295526928913  1.0000
  Cl  Cl1       1.0  0.862417823203674  0.9804278775322499  0.773443362129111  1.0000
  H   H8        1.0  0.8340241393893492  0.3617975257044861  0.6193730174819727  1.0000
  H   H9        1.0  0.8430374323676465  0.14246075325592988  0.3781700794848011  1.0000
  H   H10       1.0  0.8413537557228273  0.7253296011164003  0.37797230485162614  1.0000
  H   H11       1.0  0.8300869118227924  0.9060321302449651  0.7401338565244938  1.0000
  H   H12       1.0  0.8342182729132988  0.46885162679972897  0.6193962128551598  1.0000
  H   H13       1.0  0.7727689321319422  0.1038908706215642  0.18967792081276924  1.0000
  H   H14       1.0  0.7816487982862957  0.12224483884531279  0.950939691165776  1.0000
  H   H15       1.0  0.930728010998295  0.8099425997485866  0.9684375471165939  1.0000
  H   H16       1.0  0.9236314114409975  0.791533422709236  0.2073852849553279  1.0000
  C   C26       1.0  0.8358045298013376  0.4191791472278867  0.18600939274080863  1.0000
  C   C27       1.0  0.7638324602152008  0.39491870358058484  0.1866928663924199  1.0000
  C   C28       1.0  0.7274673954149905  0.38278070377918194  0.06987182569805928  1.0000
  C   C29       1.0  0.7639967465560018  0.3952357262151558  0.9513848767223191  1.0000
  C   C30       1.0  0.8359241617632244  0.41947381005154205  0.9487544629871673  1.0000
  C   C31       1.0  0.8714080646943475  0.43130038674752114  0.06660026138451469  1.0000
  C   C32       1.0  0.6513751706012337  0.3571445230882874  0.07156749891925296  1.0000
  C   C33       1.0  0.6073615656997903  0.4224536421417171  0.9789088299986335  1.0000
  C   C34       1.0  0.5357542978344951  0.3983724251683592  0.9805825143399741  1.0000
  C   C35       1.0  0.5069552353889625  0.3077090150412005  0.07404567747115241  1.0000
  C   C36       1.0  0.5505020525209452  0.2434969386775765  0.16762297990459385  1.0000
  C   C37       1.0  0.6221126175092647  0.26754850311820255  0.1661274440498932  1.0000
  C   C38       1.0  0.4298114204888374  0.2845506873156045  0.07797499229712468  1.0000
  O   O1        1.0  0.3985612487946478  0.37218965364970535  0.15748936714065695  1.0000
  H   H17       1.0  0.971566993599244  0.4658017096704596  0.3919477034414738  1.0000
  H   H18       1.0  0.7357671725468684  0.38720168502981833  0.2781731589600646  1.0000
  H   H19       1.0  0.7363767079020274  0.38422944153703176  0.8612103257965038  1.0000
  H   H20       1.0  0.9268874563027145  0.44999959227820713  0.06528716542266765  1.0000
  H   H21       1.0  0.8635807811312365  0.42888255987371404  0.6202606647347313  1.0000
  H   H22       1.0  0.6281818425721691  0.49367448142392467  0.9063489963039566  1.0000
  H   H23       1.0  0.5027364698484846  0.4507069718696855  0.9091084690022474  1.0000
  H   H24       1.0  0.5290402846788526  0.17448353619343182  0.24162285010940465  1.0000
  H   H25       1.0  0.6547120599763282  0.21501415310702907  0.23812477137927357  1.0000
  H   H26       1.0  0.4187459699337948  0.18278278603924814  0.11679373541470683  1.0000
  H   H27       1.0  0.4077806260368732  0.29795239846885346  0.9778482244384084  1.0000
  H   H28       1.0  0.3479558867382156  0.35292029656160007  0.15679437213780775  1.0000
  Zn  Zn1       1.0  0.7595901250333202  0.41945464917096614  0.567397051372668  1.0000
  Zn  Zn2       1.0  0.9121318862110586  0.4191976941225999  0.5673662243749524  1.0000
  C   C39       1.0  0.8358990918934671  0.41424448546941783  0.804579220500613  1.0000
  C   C40       1.0  0.835824585404284  0.4244094936714322  0.33018418241123476  1.0000
  C   C41       1.0  0.8359007769952433  0.6565143515266536  0.5622115204229411  1.0000
  C   C42       1.0  0.835822847992914  0.18213806744090144  0.5725519517071076  1.0000
  O   O2        1.0  0.8937201186613498  0.4260616669284942  0.37855886007784867  1.0000
  O   O3        1.0  0.8937792255669216  0.41239630941858163  0.7561807719865832  1.0000
  O   O4        1.0  0.8937798061509322  0.6080322920166399  0.5604671395672352  1.0000
  O   O5        1.0  0.8937194860114979  0.23042569367063326  0.5742723951323095  1.0000
  O   O6        1.0  0.7780024731778635  0.6082266497120303  0.560490880618999  1.0000
  O   O7        1.0  0.778001892848429  0.4125922273763645  0.7562044438238356  1.0000
  O   O8        1.0  0.7779427857364957  0.42625753902746033  0.3785809704986338  1.0000
  O   O9        1.0  0.7779421530974675  0.23062155651849944  0.5742946029216709  1.0000
