data_image0
_chemical_formula_structural       NC8NH4C10H6C9H9Zn2C4O8
_chemical_formula_sum              "N2 C31 H19 Zn2 O8"
_cell_length_a       14.927258825633057
_cell_length_b       9.275150299802176
_cell_length_c       9.273585224739813
_cell_angle_alpha    85.81607574140205
_cell_angle_beta     90.102070233187
_cell_angle_gamma    89.48389196497259

_space_group_name_H-M_alt    "P 1"
_space_group_IT_number       1

loop_
  _space_group_symop_operation_xyz
  'x, y, z'

loop_
  _atom_site_type_symbol
  _atom_site_label
  _atom_site_symmetry_multiplicity
  _atom_site_fract_x
  _atom_site_fract_y
  _atom_site_fract_z
  _atom_site_occupancy
  N   N1        1.0  0.8330519538541643  0.5628587579723916  0.40130977599298423  1.0000
  C   C1        1.0  0.7555255296650292  0.5628587316066507  0.40130978579386134  1.0000
  C   C2        1.0  0.6590928879787123  0.5628587318751168  0.4013098408693929  1.0000
  C   C3        1.0  0.6124414365320702  0.47359441215811104  0.3120843537648723  1.0000
  C   C4        1.0  0.5187301254498291  0.4735943219973029  0.3120843258138921  1.0000
  C   C5        1.0  0.4712768901804085  0.5628587840520243  0.4013097527627214  1.0000
  C   C6        1.0  0.5179283414594715  0.6521231129929488  0.49053513175390373  1.0000
  C   C7        1.0  0.6116397195332715  0.6521232031508497  0.49053515971082434  1.0000
  C   C8        1.0  0.37484424892640794  0.5628586858310292  0.40130969838607  1.0000
  N   N2        1.0  0.2973178241373775  0.562858767178668  0.40130970952579226  1.0000
  H   H1        1.0  0.64844946322327  0.40414153799155894  0.24266193737788647  1.0000
  H   H2        1.0  0.4833458075752239  0.4041415152923442  0.24266203472949258  1.0000
  H   H3        1.0  0.4819203147682717  0.7215759871595009  0.5599575481408903  1.0000
  H   H4        1.0  0.6470239705838972  0.7215760006347971  0.5599575589026224  1.0000
  C   C9        1.0  0.06755542321824559  0.1391776515207528  0.4037225784977416  1.0000
  C   C10       1.0  0.11455183701596883  0.22012502228760877  0.29468458980981027  1.0000
  C   C11       1.0  0.15385964498275206  0.15281463259808303  0.18010543351952957  1.0000
  C   C12       1.0  0.1465695774080722  0.0035760291611852636  0.17308843422367448  1.0000
  C   C13       1.0  0.10152827722257673  0.921178255156072  0.2814786817070871  1.0000
  C   C14       1.0  0.0628229929252806  0.9865288228358382  0.39890947285241785  1.0000
  C   C15       1.0  0.20086431863640208  0.237478882964955  0.06857440227539958  1.0000
  C   C16       1.0  0.24021911479618363  0.3083878504240687  0.9751996829420456  1.0000
  C   C17       1.0  0.28630175457607177  0.39142723429861737  0.865861958875112  1.0000
  C   C18       1.0  0.3256489625126635  0.4623309009504372  0.7725051388191289  1.0000
  H   H5        1.0  0.02531654739164301  0.40382014086517665  0.6325891336655178  1.0000
  H   H6        1.0  0.11885842988603224  0.33659594366813494  0.29691110583727554  1.0000
  H   H7        1.0  0.17650637422870807  0.9505326412322391  0.08442824108519775  1.0000
  H   H8        1.0  0.0987820491364031  0.8051151548205239  0.27525629404788843  1.0000
  H   H9        1.0  0.004972057900364926  0.8595272652717355  0.7413432224705969  1.0000
  H   H10       1.0  0.36019909344046397  0.5245903415740725  0.6905301400280148  1.0000
  C   C19       1.0  0.06474423755759594  0.558562540655311  0.9780888725581116  1.0000
  C   C20       1.0  0.14487088484024357  0.5264288664618872  0.05422816822775767  1.0000
  C   C21       1.0  0.2261373973367373  0.5072807301456226  0.982076556588992  1.0000
  C   C22       1.0  0.22654422419872317  0.5210774420171433  0.8299389629233627  1.0000
  C   C23       1.0  0.14739010761969573  0.5504984614525963  0.7528113561938259  1.0000
  C   C24       1.0  0.0656342104514134  0.5671439543082883  0.8245431691572911  1.0000
  C   C25       1.0  0.3093552257240552  0.4741942158375014  0.07377969710334309  1.0000
  C   C26       1.0  0.37995807966816997  0.3752011671852611  0.014104051153767118  1.0000
  C   C27       1.0  0.39763034311017864  0.5365198874357755  0.017091612768538763  1.0000
  H   H11       1.0  0.9169824980561196  0.5397208810318941  0.25948012241393453  1.0000
  H   H12       1.0  0.14448306155680601  0.5194660195519651  0.17143722719954413  1.0000
  H   H13       1.0  0.2873769540846945  0.5080412625599176  0.769078681705079  1.0000
  H   H14       1.0  0.9318019314255394  0.6696578364641788  0.535290757903025  1.0000
  H   H15       1.0  0.30351924485611215  0.464889260117032  0.1935944001999561  1.0000
  H   H16       1.0  0.3681161870348817  0.3380746202364499  0.9047371012284877  1.0000
  H   H17       1.0  0.4175147512282571  0.30765019085226775  0.09800904655265907  1.0000
  H   H18       1.0  0.39648328410552386  0.5972080318469117  0.9095277435648429  1.0000
  H   H19       1.0  0.4455071802546344  0.5632787455102248  0.10274710648773258  1.0000
  Zn  Zn1       1.0  0.9670290943349765  0.5628549714006066  0.40131811007235846  1.0000
  Zn  Zn2       1.0  0.1633407753437719  0.562850829348446  0.4013132774222386  1.0000
  C   C28       1.0  0.06549608386932414  0.5597741991064825  0.6645778335645595  1.0000
  C   C29       1.0  0.06487591950866767  0.5659334234530664  0.13805368499383097  1.0000
  C   C30       1.0  0.06370689602539992  0.8263032113738233  0.3940760605982634  1.0000
  C   C31       1.0  0.06666505012693902  0.29940267855064473  0.40855554464600874  1.0000
  O   O1        1.0  0.13941940818381005  0.568399292820883  0.1917375391313736  1.0000
  O   O2        1.0  0.13994862437931532  0.5573040933898052  0.6108899028612518  1.0000
  O   O3        1.0  0.13850282985795626  0.7725296567291644  0.39245779884949733  1.0000
  O   O4        1.0  0.14086513554603086  0.3531737387083494  0.4101695350238497  1.0000
  O   O5        1.0  0.9895046671411587  0.7725320620436109  0.39246185246480647  1.0000
  O   O6        1.0  0.9909504518966114  0.5573082313422391  0.6108938697847386  1.0000
  O   O7        1.0  0.9904212342196256  0.568403362929252  0.191739773563759  1.0000
  O   O8        1.0  0.9918669617494258  0.3531777995928007  0.4101718775695735  1.0000
