data_image0
_chemical_formula_structural       NC6NCNCH5C7NH5C6NCH7Zn2C4O8
_chemical_formula_sum              "N5 C26 H17 Zn2 O8"
_cell_length_a       14.933214217465613
_cell_length_b       9.275154477615127
_cell_length_c       9.273390368590327
_cell_angle_alpha    86.39388611738053
_cell_angle_beta     89.95654164007166
_cell_angle_gamma    89.46799387830556

_space_group_name_H-M_alt    "P 1"
_space_group_IT_number       1

loop_
  _space_group_symop_operation_xyz
  'x, y, z'

loop_
  _atom_site_type_symbol
  _atom_site_label
  _atom_site_symmetry_multiplicity
  _atom_site_fract_x
  _atom_site_fract_y
  _atom_site_fract_z
  _atom_site_occupancy
  N   N1        1.0  0.833801565477229  0.5619226470075307  0.41552339963689877  1.0000
  C   C1        1.0  0.7563053482733509  0.5629086539156962  0.41453692810563236  1.0000
  C   C2        1.0  0.6598994804674371  0.5641379512722551  0.41330691950177445  1.0000
  C   C3        1.0  0.612647462914077  0.4694008540903003  0.5081081452456055  1.0000
  C   C4        1.0  0.5191075657810545  0.4704721268100905  0.5070361772070171  1.0000
  C   C5        1.0  0.4719176601812317  0.5662262171692329  0.4112173069012106  1.0000
  C   C6        1.0  0.3753547365785343  0.5641400856162306  0.4133048573882805  1.0000
  N   N2        1.0  0.29787960936128416  0.5623997870511486  0.4150459625282199  1.0000
  C   C7        1.0  0.5192612160999129  0.6621595869150932  0.3152191281987282  1.0000
  N   N3        1.0  0.4733482340397709  0.7616848738742295  0.2156267457960488  1.0000
  C   C8        1.0  0.6132872458160381  0.6601325331978718  0.31724767156269973  1.0000
  H   H1        1.0  0.6480963291891529  0.3947070237988802  0.5828524932179477  1.0000
  H   H2        1.0  0.48347163000804577  0.3964066312974628  0.5811516359806326  1.0000
  H   H3        1.0  0.5092791118916986  0.8319791930729941  0.14528480244840258  1.0000
  H   H4        1.0  0.40357476364347583  0.7669804685526864  0.21032763862416237  1.0000
  H   H5        1.0  0.6500521204476869  0.7334528062374153  0.24387777372648878  1.0000
  C   C9        1.0  0.06843643532875543  0.13875685370332658  0.41361412826605326  1.0000
  C   C10       1.0  0.04387746560038488  0.22056071371894226  0.2865563055613476  1.0000
  C   C11       1.0  0.012033674494078994  0.15321108496583125  0.16623775736144575  1.0000
  C   C12       1.0  0.004224438621150744  0.003138985241084362  0.17156017374123933  1.0000
  C   C13       1.0  0.029613833033609094  0.9200975322953169  0.29572038442636894  1.0000
  C   C14       1.0  0.0632533697498967  0.9855546111009523  0.4169677239781784  1.0000
  C   C15       1.0  0.986283604819782  0.2385792620221037  0.03764947736212143  1.0000
  N   N4        1.0  0.9655876918689102  0.3071997276397236  0.9342974372714289  1.0000
  H   H6        1.0  0.08574169182061421  0.21920401585718863  0.7673936886606472  1.0000
  H   H7        1.0  0.04753521687033826  0.3374784445924621  0.28227589819319854  1.0000
  H   H8        1.0  0.979273338956058  0.9500041765040986  0.07908830368765263  1.0000
  H   H9        1.0  0.02491163750984106  0.8036237545822049  0.2955983755623277  1.0000
  H   H10       1.0  0.07870567354161784  0.6893184288031642  0.6540061245694038  1.0000
  C   C16       1.0  0.06591392517499721  0.5576595622057181  0.9920272833796999  1.0000
  C   C17       1.0  0.1481765550815961  0.5548792903715789  0.06553381973773442  1.0000
  C   C18       1.0  0.22892260667754988  0.5655008124307453  0.9900776381958397  1.0000
  C   C19       1.0  0.2294568429329208  0.5792953238206978  0.8385036405789443  1.0000
  C   C20       1.0  0.14775490577817818  0.5796445927244149  0.7641773111275043  1.0000
  C   C21       1.0  0.0657758962868631  0.5666519055206347  0.8385545156722225  1.0000
  N   N5        1.0  0.3117062310326126  0.5915785291595448  0.7576789935774997  1.0000
  C   C22       1.0  0.4001192426061577  0.5918393588536794  0.8245769144580555  1.0000
  H   H11       1.0  0.9249976543221874  0.4882553937080589  0.2777383892802441  1.0000
  H   H12       1.0  0.29062862845372406  0.5642375095439025  0.05112992091570079  1.0000
  H   H13       1.0  0.8577731729349543  0.4544224393176433  0.7428344963177351  1.0000
  H   H14       1.0  0.3087422513494386  0.6011311634213714  0.644843991797825  1.0000
  H   H15       1.0  0.40536472418398684  0.6843369136558517  0.8944057619913414  1.0000
  H   H16       1.0  0.4116730121211656  0.4887863176175003  0.8897114552267563  1.0000
  H   H17       1.0  0.4525303435881787  0.6027933268936743  0.7396755316845534  1.0000
  Zn  Zn1       1.0  0.9677244872320774  0.562056559041678  0.415393938465495  1.0000
  Zn  Zn2       1.0  0.16395674341320077  0.5622541723209808  0.41518721332300146  1.0000
  C   C23       1.0  0.06583512790748161  0.5592082008414392  0.6785200041903712  1.0000
  C   C24       1.0  0.06584823442972224  0.5651043534144995  0.15206129401443946  1.0000
  C   C25       1.0  0.06422940303104376  0.8254307725004715  0.41059010980266053  1.0000
  C   C26       1.0  0.06745390293621556  0.29888005022105757  0.41999125845710794  1.0000
  O   O1        1.0  0.14029534506445285  0.5676715963283345  0.20569169388692154  1.0000
  O   O2        1.0  0.14032376593420048  0.5567898497165529  0.6247322854960731  1.0000
  O   O3        1.0  0.13902611866556702  0.7717679580845652  0.4083770071243422  1.0000
  O   O4        1.0  0.14159292532680273  0.35269349705910424  0.4220468642984261  1.0000
  O   O5        1.0  0.9900882383540286  0.7716172342376075  0.4085342875530398  1.0000
  O   O6        1.0  0.9913858750281602  0.5566408573380589  0.6248894959327829  1.0000
  O   O7        1.0  0.9913574548081049  0.5675225352975314  0.20584717119858786  1.0000
  O   O8        1.0  0.9926550351122921  0.352544426863572  0.42220244963328923  1.0000
