data_image0
_chemical_formula_structural       NC8NH4C10H6C6OCH7Zn2C4O8
_chemical_formula_sum              "N2 C29 H17 O9 Zn2"
_cell_length_a       13.859017124695912
_cell_length_b       9.275150299802176
_cell_length_c       9.273891588657152
_cell_angle_alpha    85.74891997062389
_cell_angle_beta     89.68011635111247
_cell_angle_gamma    89.4839206584006

_space_group_name_H-M_alt    "P 1"
_space_group_IT_number       1

loop_
  _space_group_symop_operation_xyz
  'x, y, z'

loop_
  _atom_site_type_symbol
  _atom_site_label
  _atom_site_symmetry_multiplicity
  _atom_site_fract_x
  _atom_site_fract_y
  _atom_site_fract_z
  _atom_site_occupancy
  N   N1        1.0  0.9051306706340237  0.5646333075662978  0.40120946765624477  1.0000
  C   C1        1.0  0.8331264044709841  0.541257020689412  0.34517784884315805  1.0000
  C   C2        1.0  0.7435573458197017  0.5121803315819478  0.2754817139526058  1.0000
  C   C3        1.0  0.6555174420088202  0.5405271466485644  0.34342667266786514  1.0000
  C   C4        1.0  0.5683270207887254  0.5121815527207196  0.2754811277202915  1.0000
  C   C5        1.0  0.5693590366258264  0.4554814518787226  0.139569762130221  1.0000
  C   C6        1.0  0.6572147463234659  0.427243589871821  0.0718863426622891  1.0000
  C   C7        1.0  0.7442244051539556  0.4554791120142339  0.1395709537660519  1.0000
  C   C8        1.0  0.4778865620720373  0.5412579431588074  0.34517734558809665  1.0000
  N   N2        1.0  0.40518179510222857  0.56463362836967  0.4012092498244666  1.0000
  H   H1        1.0  0.6548598350384413  0.5844152213087448  0.4486253210400204  1.0000
  H   H2        1.0  0.5023978976645145  0.4331714201569501  0.08608963031746031  1.0000
  H   H3        1.0  0.6578710830453873  0.383445147213969  0.9669007350614488  1.0000
  H   H4        1.0  0.8118541327758708  0.4331669876513302  0.08609183306242894  1.0000
  C   C9        1.0  0.15769760037881975  0.14094971915543386  0.403622337404026  1.0000
  C   C10       1.0  0.2088530761451688  0.2220181141488682  0.2945775107339652  1.0000
  C   C11       1.0  0.25175458483519697  0.15483489058999567  0.17999117256084518  1.0000
  C   C12       1.0  0.24393713814010187  0.00560406692511872  0.17297373689682183  1.0000
  C   C13       1.0  0.19489066231486496  0.9230859890341035  0.28137078114310565  1.0000
  C   C14       1.0  0.1526240853542391  0.9883062270009044  0.3988089323490629  1.0000
  C   C15       1.0  0.3029312263219355  0.2396229313915215  0.06845314737165074  1.0000
  C   C16       1.0  0.34577898999420853  0.3106355372475625  0.9750725726478006  1.0000
  C   C17       1.0  0.3959517339031285  0.39379627716492743  0.8657279921740018  1.0000
  C   C18       1.0  0.43879123636911826  0.46480356234688586  0.7723653178499749  1.0000
  H   H5        1.0  0.11107664818490504  0.40533823024481896  0.6325032251023696  1.0000
  H   H6        1.0  0.2134806601301544  0.3384865686425864  0.2968041645109458  1.0000
  H   H7        1.0  0.27661776886501266  0.952659078463967  0.08430798666101613  1.0000
  H   H8        1.0  0.19196337993847654  0.807029790577102  0.27514800520337257  1.0000
  H   H9        1.0  0.08862880232479609  0.8609246676172704  0.7412641246169303  1.0000
  H   H10       1.0  0.47640789284296275  0.5271539885983536  0.6903851785279741  1.0000
  C   C19       1.0  0.1567644346424939  0.5608068756529843  0.9779620056352906  1.0000
  C   C20       1.0  0.23541774466445897  0.6217467634948826  0.04618950734585647  1.0000
  C   C21       1.0  0.30853342579844734  0.6934602135458988  0.9659723658962047  1.0000
  C   C22       1.0  0.30325662116679575  0.7045953020034197  0.8144685021366413  1.0000
  C   C23       1.0  0.22663568430082748  0.6427818114287821  0.7449037642843885  1.0000
  C   C24       1.0  0.15355725980660548  0.5684490446811782  0.8244692361385149  1.0000
  O   O1        1.0  0.38456229483285975  0.7526237041400186  0.04084286715372909  1.0000
  C   C25       1.0  0.4635640543267862  0.82855460522875  0.9733351408676452  1.0000
  H   H11       1.0  0.9277878699462535  0.47219187368139043  0.08948270772381493  1.0000
  H   H12       1.0  0.35850955781077043  0.7596892469244535  0.7492333843654103  1.0000
  H   H13       1.0  0.22581260939736802  0.650217712919336  0.6277803487633205  1.0000
  H   H14       1.0  0.0008979136953803891  0.5030688055469577  0.5493980374364407  1.0000
  H   H15       1.0  0.4370788726497814  0.926188934941506  0.9083849602356784  1.0000
  H   H16       1.0  0.5042247418141066  0.7569495321466087  0.9033292110227243  1.0000
  H   H17       1.0  0.5127494935713042  0.8630408851995172  0.057982768118814976  1.0000
  Zn  Zn1       1.0  0.04943461797818017  0.5646296232752595  0.4012177544388227  1.0000
  Zn  Zn2       1.0  0.2608778658027031  0.5646256500030191  0.4012128514202244  1.0000
  C   C26       1.0  0.15419576187007533  0.5612568282831495  0.6644939118128446  1.0000
  C   C27       1.0  0.15611901942882045  0.5680002666619781  0.13793682511743377  1.0000
  C   C28       1.0  0.15359990602134155  0.828085979276109  0.39397521741038477  1.0000
  C   C29       1.0  0.1567148132143814  0.30116938293770557  0.408455606211219  1.0000
  O   O2        1.0  0.2361440604780003  0.5704066321755372  0.1916240110089258  1.0000
  O   O3        1.0  0.23465126154481533  0.5588463549742639  0.6108025959219723  1.0000
  O   O4        1.0  0.23416901303797516  0.774314282466676  0.39235682773062286  1.0000
  O   O5        1.0  0.23662623718122622  0.35493871402986077  0.4100696710742564  1.0000
  O   O6        1.0  0.07368617444447323  0.7743165592512763  0.3923609347788741  1.0000
  O   O7        1.0  0.07416841285930142  0.5588503644930342  0.6108066162729812  1.0000
  O   O8        1.0  0.07566121872305631  0.5704105757725589  0.191626298760452  1.0000
  O   O9        1.0  0.07614339507471213  0.35494264828300515  0.4100720669458848  1.0000
