data_image0
_chemical_formula_structural       NC8NH4C9H8C6SCH8Zn2C4O8
_chemical_formula_sum              "N2 C28 H20 S1 Zn2 O8"
_cell_length_a       13.859017124695912
_cell_length_b       9.275152443626249
_cell_length_c       10.302812801239593
_cell_angle_alpha    85.3632325581603
_cell_angle_beta     89.99985351461923
_cell_angle_gamma    90.57357307376715

_space_group_name_H-M_alt    "P 1"
_space_group_IT_number       1

loop_
  _space_group_symop_operation_xyz
  'x, y, z'

loop_
  _atom_site_type_symbol
  _atom_site_label
  _atom_site_symmetry_multiplicity
  _atom_site_fract_x
  _atom_site_fract_y
  _atom_site_fract_z
  _atom_site_occupancy
  N   N1        1.0  0.9191693954377165  0.5787941382761366  0.5630394624041188  1.0000
  C   C1        1.0  0.8466617869390795  0.555927656891446  0.5125228425595032  1.0000
  C   C2        1.0  0.7564666402888879  0.5274851002461259  0.4496866586389476  1.0000
  C   C3        1.0  0.6690371024182834  0.555213715860214  0.5109440300425991  1.0000
  C   C4        1.0  0.5812363286450294  0.5274863264653529  0.4496861330410302  1.0000
  C   C5        1.0  0.5810474514576497  0.47202281924687695  0.32715205810101033  1.0000
  C   C6        1.0  0.6682951426259587  0.44440077709699155  0.26613048321721755  1.0000
  C   C7        1.0  0.7559127945853286  0.4720204690307266  0.3271531267700598  1.0000
  C   C8        1.0  0.49142195443108233  0.5559285837439452  0.5125223911046122  1.0000
  N   N2        1.0  0.41922052318835856  0.5787944609902846  0.5630392668367387  1.0000
  H   H1        1.0  0.6693245065486849  0.5981446373275261  0.6057883371084789  1.0000
  H   H2        1.0  0.5136059132848706  0.4501993779228244  0.27893579475386665  1.0000
  H   H3        1.0  0.6680083915991493  0.4015575491437018  0.1714782495590583  1.0000
  H   H4        1.0  0.823062100078399  0.4501949263006468  0.2789377699794404  1.0000
  C   C9        1.0  0.16635319641547874  0.1551620185730653  0.5643648397215109  1.0000
  C   C10       1.0  0.13154556115163032  0.2379013935496932  0.45406781849401945  1.0000
  C   C11       1.0  0.10570700671657529  0.17246002902102067  0.3417057584507812  1.0000
  C   C12       1.0  0.11427037381381822  0.0231180958542525  0.33741598397046824  1.0000
  C   C13       1.0  0.14719118214170646  0.9386905727176401  0.44678085304012755  1.0000
  C   C14       1.0  0.17204588649799812  0.0024155412294231127  0.5617251366221712  1.0000
  C   C15       1.0  0.08812871807417123  0.9559685679763321  0.22105800394992475  1.0000
  C   C16       1.0  0.06624119008748419  0.8997131978470613  0.12362643931961202  1.0000
  C   C17       1.0  0.03968500126938546  0.8314452568175602  0.00541032321051271  1.0000
  H   H5        1.0  0.30499952749096093  0.23681356500734083  0.8236506213222267  1.0000
  H   H6        1.0  0.12646282091800098  0.3544188759500677  0.45365943648154283  1.0000
  H   H7        1.0  0.07990929245201085  0.23869977501275175  0.25762121977020813  1.0000
  H   H8        1.0  0.15125369119346144  0.8223805456270833  0.4431590724784486  1.0000
  H   H9        1.0  0.26229917567422145  0.7071162059075681  0.7390679075633725  1.0000
  H   H10       1.0  0.05732421033255397  0.714723440157279  0.01753924124675477  1.0000
  H   H11       1.0  0.9611515118147533  0.8440277667285185  0.9876367096037972  1.0000
  H   H12       1.0  0.08043300728334457  0.8837938185821523  0.9213731682453674  1.0000
  C   C18       1.0  0.16919956655091872  0.5787887710104695  0.1817965442066698  1.0000
  C   C19       1.0  0.13762584999076724  0.7226514470589163  0.17015106248149503  1.0000
  C   C20       1.0  0.12166558010422635  0.7940201973960077  0.04738171621116694  1.0000
  C   C21       1.0  0.13762576198648183  0.7226512956238378  0.9349998932640852  1.0000
  C   C22       1.0  0.16919950389968896  0.5787887612885991  0.9442934478665203  1.0000
  C   C23       1.0  0.1848022615867373  0.5075478457875291  0.06822954781819202  1.0000
  S   S1        1.0  0.0815243724641288  0.977932852156317  0.03399741298479153  1.0000
  C   C24       1.0  0.954266177062921  0.9275301428562689  0.037666627562082056  1.0000
  H   H13       1.0  0.18106219535209234  0.5245554078182613  0.5134995848918323  1.0000
  H   H14       1.0  0.12508345498510298  0.7797941124692255  0.256092086581696  1.0000
  H   H15       1.0  0.1250832604095684  0.779793904660407  0.8407417742471108  1.0000
  H   H16       1.0  0.20913890745656816  0.39657062358801953  0.07630583494863519  1.0000
  H   H17       1.0  0.18106039372338922  0.5245546588579333  0.620484001711858  1.0000
  H   H18       1.0  0.9367251999628878  0.8633537669590537  0.9542202570982017  1.0000
  H   H19       1.0  0.9367256230133961  0.863355224887471  0.13045494458927687  1.0000
  H   H20       1.0  0.9102781559106733  0.027103033348350625  0.030419913206787493  1.0000
  Zn  Zn1       1.0  0.0634733263372671  0.578790379822196  0.5630469192537781  1.0000
  Zn  Zn2       1.0  0.27491650558373726  0.5787864514935052  0.563042494964083  1.0000
  C   C25       1.0  0.16915875141373962  0.573041730641624  0.8001831246688966  1.0000
  C   C26       1.0  0.16923340169017065  0.5845369208428861  0.3259064112558603  1.0000
  C   C27       1.0  0.17096487451567222  0.842266562425104  0.557050586001094  1.0000
  C   C28       1.0  0.16742719479200674  0.31531035584514444  0.5690390245418739  1.0000
  O   O1        1.0  0.24948629936390732  0.5864582680364467  0.374269339710741  1.0000
  O   O2        1.0  0.2493863270137291  0.5711163136419593  0.7518164679432044  1.0000
  O   O3        1.0  0.25084371256504046  0.7885187701398888  0.5554852181151894  1.0000
  O   O4        1.0  0.24802884173070797  0.36905582185962604  0.570600492164201  1.0000
  O   O5        1.0  0.09036091803512769  0.7885210094589865  0.5554889220483358  1.0000
  O   O6        1.0  0.08890354412487822  0.571120286178229  0.7518200972528162  1.0000
  O   O7        1.0  0.08900351620157632  0.5864621903015101  0.37427140826945265  1.0000
  O   O8        1.0  0.0875460584950958  0.3690597338064918  0.5706026580921442  1.0000
