data_image0
_chemical_formula_structural       NC9NC4H8C6SCNH4C9H10Zn2C4O8
_chemical_formula_sum              "N3 C33 H22 S1 Zn2 O8"
_cell_length_a       16.32274767691083
_cell_length_b       10.302215558581764
_cell_length_c       9.272679976505534
_cell_angle_alpha    86.02649692228
_cell_angle_beta     89.86705810092191
_cell_angle_gamma    89.54366289277024

_space_group_name_H-M_alt    "P 1"
_space_group_IT_number       1

loop_
  _space_group_symop_operation_xyz
  'x, y, z'

loop_
  _atom_site_type_symbol
  _atom_site_label
  _atom_site_symmetry_multiplicity
  _atom_site_fract_x
  _atom_site_fract_y
  _atom_site_fract_z
  _atom_site_occupancy
  N   N1        1.0  0.7654942624576222  0.40010754336236465  0.3982257469390287  1.0000
  C   C1        1.0  0.7129207544115855  0.35224584537458825  0.3379524152984261  1.0000
  C   C2        1.0  0.647571567202003  0.2928012437590448  0.26309245543817283  1.0000
  C   C3        1.0  0.6587200403430953  0.21149160226532482  0.16069258735207237  1.0000
  C   C4        1.0  0.5791571520443511  0.17181209440466172  0.11072485536799559  1.0000
  C   C5        1.0  0.5205128717001253  0.2298821993503548  0.18385979981701195  1.0000
  C   C6        1.0  0.43049908814126264  0.21453482079178166  0.1645348080550888  1.0000
  C   C7        1.0  0.3752396877142943  0.2822192192947104  0.24977010201291724  1.0000
  C   C8        1.0  0.2904659639706955  0.26910260989393997  0.23325373943505537  1.0000
  C   C9        1.0  0.2348049800494359  0.3388677451479478  0.3211084710463268  1.0000
  N   N2        1.0  0.1900724316735393  0.39494743072286537  0.39172879540144123  1.0000
  C   C10       1.0  0.2598980608146347  0.18819214053740874  0.1313649274710238  1.0000
  C   C11       1.0  0.3138359900879643  0.12059739769595845  0.046242912732036734  1.0000
  C   C12       1.0  0.3984491606745577  0.1333607050129646  0.06231422700167988  1.0000
  C   C13       1.0  0.5586878940214545  0.31455477558799494  0.29049200575545386  1.0000
  H   H1        1.0  0.717470365957174  0.17987409883389582  0.12087160112332972  1.0000
  H   H2        1.0  0.5705315164983772  0.10535782427278861  0.027033365746571333  1.0000
  H   H3        1.0  0.3976660773073848  0.34538348156543064  0.3293116148422226  1.0000
  H   H4        1.0  0.1944526010810869  0.17738677349890453  0.11775911985588827  1.0000
  H   H5        1.0  0.2900164003867836  0.058005607708210956  0.9674225858952963  1.0000
  H   H6        1.0  0.4379616571691652  0.07928926495316602  0.9942225322473579  1.0000
  H   H7        1.0  0.5423471089855169  0.28063140980943  0.40315967202145875  1.0000
  H   H8        1.0  0.5418337611414842  0.41841461234547445  0.2659011040322694  1.0000
  C   C14       1.0  0.9777057435028461  0.01625591011383487  0.39493877026280266  1.0000
  C   C15       1.0  0.05999071331452563  0.011514672144496089  0.43904395483932923  1.0000
  C   C16       1.0  0.1009410414111338  0.892117818875024  0.46144846595069394  1.0000
  C   C17       1.0  0.060204135282160294  0.7763377588290004  0.4391627613346849  1.0000
  C   C18       1.0  0.9778688208422276  0.7787889993718857  0.39502808659308264  1.0000
  C   C19       1.0  0.937062793605681  0.8992630114335359  0.37321441240079456  1.0000
  S   S1        1.0  0.2060660634445747  0.887579220957827  0.517155501738819  1.0000
  C   C20       1.0  0.17976252748567287  0.8764117323220788  0.7023005341889943  1.0000
  N   N3        1.0  0.16249330090739056  0.8690911850279692  0.8236793225413925  1.0000
  H   H9        1.0  0.0925881149565122  0.10022211394498592  0.4564341816120099  1.0000
  H   H10       1.0  0.0929478290608663  0.6847622797571559  0.45663449777572246  1.0000
  H   H11       1.0  0.873601347053149  0.9020701297209349  0.33921895443742356  1.0000
  H   H12       1.0  0.8227013662962073  0.5762006595901359  0.3116906161766475  1.0000
  C   C21       1.0  0.976125643321628  0.39447677908917234  0.9716458328350517  1.0000
  C   C22       1.0  0.03178260281329326  0.31348764438190413  0.05105070701565517  1.0000
  C   C23       1.0  0.09147616322287888  0.24297069728175535  0.9815278483122118  1.0000
  C   C24       1.0  0.09753134006151765  0.25112314788479884  0.830573931469615  1.0000
  C   C25       1.0  0.040890653361580265  0.33036212451101377  0.7497996214447173  1.0000
  C   C26       1.0  0.9794489363235586  0.40056817911841236  0.8183211129338046  1.0000
  C   C27       1.0  0.16486271624582116  0.1720929597116958  0.7633859517491084  1.0000
  C   C28       1.0  0.14534290335035216  0.11291186770019856  0.621577618561167  1.0000
  C   C29       1.0  0.20299023720595044  0.22846627660893182  0.6228910281014346  1.0000
  H   H13       1.0  0.8527923579151674  0.48376021777936984  0.2464945623122794  1.0000
  H   H14       1.0  0.03048428517921087  0.3069541790813046  0.1681443869206094  1.0000
  H   H15       1.0  0.13387382955313298  0.18245351229080176  0.04650424683874088  1.0000
  H   H16       1.0  0.04272439913910975  0.33595265075173186  0.6329933338938902  1.0000
  H   H17       1.0  0.7934839886755818  0.5249722987395851  0.7064787680430573  1.0000
  H   H18       1.0  0.2076675986337666  0.11316604483155702  0.8349101816355327  1.0000
  H   H19       1.0  0.08449581765552705  0.13580772171592947  0.5728297756976599  1.0000
  H   H20       1.0  0.1771435849374583  0.01905502946645909  0.6067857401928767  1.0000
  H   H21       1.0  0.17720011588850615  0.32149515316631394  0.5748237037863313  1.0000
  H   H22       1.0  0.2684928288941817  0.2021373062050027  0.6088628036196115  1.0000
  Zn  Zn1       1.0  0.8880183888398926  0.3986150215279196  0.3963591920027507  1.0000
  Zn  Zn2       1.0  0.06754835554050675  0.39642938327365207  0.3936071590845236  1.0000
  C   C30       1.0  0.9788178370179597  0.3942444226804336  0.6582807350210336  1.0000
  C   C31       1.0  0.9767508687298824  0.40080159747324506  0.13168572769990727  1.0000
  C   C32       1.0  0.9778112521281456  0.6346127588181592  0.3892666120253243  1.0000
  C   C33       1.0  0.9777573923266846  0.16043170273005258  0.40069992831007273  1.0000
  O   O1        1.0  0.04509138561141368  0.4020891616790004  0.18435219558517968  1.0000
  O   O2        1.0  0.04673640898315301  0.3912970271539311  0.6035251227268996  1.0000
  O   O3        1.0  0.04592266640408704  0.5853975204232935  0.3862943293254817  1.0000
  O   O4        1.0  0.045905066506781056  0.2079886776656443  0.4015828818362608  1.0000
  O   O5        1.0  0.9096616166088223  0.5870557278831376  0.38838347018256436  1.0000
  O   O6        1.0  0.9104753592161036  0.3929567939664518  0.6056141869010774  1.0000
  O   O7        1.0  0.9088303290860374  0.40374887077678095  0.1864395265242771  1.0000
  O   O8        1.0  0.9096440104003072  0.20964837825462834  0.4036703208572465  1.0000
