data_image0
_chemical_formula_structural       NC6NC3H6C6BrH3C6BrH4Zn2C4O8
_chemical_formula_sum              "N2 C25 H13 Br2 Zn2 O8"
_cell_length_a       14.934028789175542
_cell_length_b       9.276564384272257
_cell_length_c       9.276567756262418
_cell_angle_alpha    86.06955747846486
_cell_angle_beta     90.16168567554362
_cell_angle_gamma    90.54840447220178

_space_group_name_H-M_alt    "P 1"
_space_group_IT_number       1

loop_
  _space_group_symop_operation_xyz
  'x, y, z'

loop_
  _atom_site_type_symbol
  _atom_site_label
  _atom_site_symmetry_multiplicity
  _atom_site_fract_x
  _atom_site_fract_y
  _atom_site_fract_z
  _atom_site_occupancy
  N   N1        1.0  0.8498949949666148  0.5617896053323688  0.4087924673269474  1.0000
  C   C1        1.0  0.7724005371895986  0.5606848544412293  0.4081148534285144  1.0000
  C   C2        1.0  0.6759934881392158  0.5593054667535926  0.40726897878473256  1.0000
  C   C3        1.0  0.6290493816959133  0.6667320542505297  0.47303930190564913  1.0000
  C   C4        1.0  0.5355292181747998  0.6656245119231061  0.47236109673907895  1.0000
  C   C5        1.0  0.48804103014963746  0.5571452068200686  0.4059463333121036  1.0000
  C   C6        1.0  0.39141299827415055  0.5594727525186138  0.4073726231060122  1.0000
  N   N2        1.0  0.3139469551152167  0.5613199566918046  0.408504892083972  1.0000
  C   C7        1.0  0.5349682415476329  0.44823239055275343  0.33926553748341726  1.0000
  C   C8        1.0  0.48575344571606477  0.33029284872275033  0.26706011452203837  1.0000
  C   C9        1.0  0.6291280832907398  0.45047007254519555  0.3406355769064904  1.0000
  H   H1        1.0  0.6647385265037807  0.7513742461034596  0.5248608048281671  1.0000
  H   H2        1.0  0.5001334510706911  0.749614834761904  0.5237833593143111  1.0000
  H   H3        1.0  0.443131053363656  0.3784937517275677  0.17844960184093184  1.0000
  H   H4        1.0  0.4427763373718213  0.26823380570556266  0.3471928138765503  1.0000
  H   H5        1.0  0.5326302650741509  0.2539016372362024  0.2202843204454221  1.0000
  H   H6        1.0  0.6660254235252029  0.3675970741619261  0.28989766890254165  1.0000
  C   C10       1.0  0.07922824991978757  0.13808014021759596  0.4090187982903495  1.0000
  C   C11       1.0  0.06747906597740094  0.22030147791670626  0.27733342380172243  1.0000
  C   C12       1.0  0.06406577495946439  0.15403826901487028  0.1468729583130859  1.0000
  C   C13       1.0  0.0723766146353006  0.0046104821533838915  0.14562066755148817  1.0000
  C   C14       1.0  0.08254419335369184  0.9206779115443028  0.27531560690939827  1.0000
  C   C15       1.0  0.08462226271683933  0.985018387512006  0.40829095981867813  1.0000
  Br  Br1       1.0  0.0683643570846057  0.9145034114484201  0.9666056986858645  1.0000
  H   H7        1.0  0.05581028365702154  0.21928383942573615  0.04651213890267635  1.0000
  H   H8        1.0  0.08668074887551674  0.8044033162324866  0.27220652383062083  1.0000
  H   H9        1.0  0.1344855098122486  0.6892332393558133  0.6326734287405742  1.0000
  C   C16       1.0  0.08104415310957691  0.5574059488545631  0.9855322419736966  1.0000
  C   C17       1.0  0.0016943460155087724  0.5922025208441561  0.05616255909406553  1.0000
  C   C18       1.0  0.9263992219629374  0.6388736468446017  0.9774683751743577  1.0000
  C   C19       1.0  0.9290400702320087  0.6516933782364538  0.8269599269837599  1.0000
  C   C20       1.0  0.0066245065786365576  0.6153407980094906  0.7546049740390671  1.0000
  C   C21       1.0  0.08280638572969896  0.5656926547689851  0.8317775829812771  1.0000
  Br  Br2       1.0  0.8259923856541384  0.7167298728864768  0.7197180200814124  1.0000
  H   H10       1.0  0.20339270731885462  0.42629936664201923  0.27640264685858607  1.0000
  H   H11       1.0  0.9985147646329369  0.5866198529136912  0.17306671050450673  1.0000
  H   H12       1.0  0.8662063734334206  0.6664293400011256  0.033799547221688986  1.0000
  H   H13       1.0  0.23004392842540222  0.5506526749323948  0.5523043415014408  1.0000
  Zn  Zn1       1.0  0.9838103728071519  0.5616502919776043  0.4087177969532092  1.0000
  Zn  Zn2       1.0  0.18003155663806258  0.5614475727471095  0.4085913527917895  1.0000
  C   C22       1.0  0.08243467446642455  0.558381364833608  0.6718240157169286  1.0000
  C   C23       1.0  0.08140940959082266  0.5647183185967763  0.14548527250571497  1.0000
  C   C24       1.0  0.08358611083032776  0.8248728332007911  0.40268680915758703  1.0000
  C   C25       1.0  0.08025789539585593  0.2982251184802265  0.4146225574161775  1.0000
  O   O1        1.0  0.15599686958301862  0.5670891945116427  0.19911899124716492  1.0000
  O   O2        1.0  0.1567745449604393  0.5558555377611603  0.6180939149413776  1.0000
  O   O3        1.0  0.1577033436833689  0.7710507844203527  0.4007637158126882  1.0000
  O   O4        1.0  0.15506800374382054  0.35189395717963845  0.4164490823745124  1.0000
  O   O5        1.0  0.008773858740728448  0.7712039076157495  0.4008600674060547  1.0000
  O   O6        1.0  0.007845070888196748  0.5560103927765978  0.6181901882191918  1.0000
  O   O7        1.0  0.007067391642874734  0.5672439823108628  0.19921353221924118  1.0000
  O   O8        1.0  0.006138525959279664  0.3520487357223441  0.4165437313834994  1.0000
