data_image0
_chemical_formula_structural       NC12NC2H8C6SCOC6H10C6NCOC6H11Zn2C4O8
_chemical_formula_sum              "N3 C44 H29 S1 O10 Zn2"
_cell_length_a       19.240039667572717
_cell_length_b       10.302038109246572
_cell_length_c       10.299662537453274
_cell_angle_alpha    85.5465134691658
_cell_angle_beta     89.98643935911939
_cell_angle_gamma    90.01678309981642

_space_group_name_H-M_alt    "P 1"
_space_group_IT_number       1

loop_
  _space_group_symop_operation_xyz
  'x, y, z'

loop_
  _atom_site_type_symbol
  _atom_site_label
  _atom_site_symmetry_multiplicity
  _atom_site_fract_x
  _atom_site_fract_y
  _atom_site_fract_z
  _atom_site_occupancy
  N   N1        1.0  0.6548815471974532  0.421476634598371  0.5676501661782024  1.0000
  C   C1        1.0  0.5947331784037255  0.4214767185905761  0.5676500842531063  1.0000
  C   C2        1.0  0.5199151412983554  0.4214768359002117  0.5676499469645564  1.0000
  C   C3        1.0  0.48341821209076186  0.35698780441234934  0.6710535511021021  1.0000
  C   C4        1.0  0.410747435635932  0.3568769168348555  0.671140077232536  1.0000
  C   C5        1.0  0.3735829064043972  0.4214769285293933  0.567649719293513  1.0000
  C   C6        1.0  0.4107940555647339  0.4860771270922237  0.4641595559284539  1.0000
  C   C7        1.0  0.483464715621176  0.485966004025024  0.4642462045240783  1.0000
  C   C8        1.0  0.2963778159645313  0.4214768499230252  0.5676496238636706  1.0000
  C   C9        1.0  0.259166941800774  0.3082271966819743  0.6095028516540826  1.0000
  C   C10       1.0  0.1864962817532147  0.30833410599512123  0.6094115418107404  1.0000
  C   C11       1.0  0.150045529013361  0.4214767207578638  0.5676496847542276  1.0000
  C   C12       1.0  0.0752274918090559  0.4214766069480091  0.5676499334011338  1.0000
  N   N2        1.0  0.015079174924137696  0.42147656605532124  0.5676501418176207  1.0000
  C   C13       1.0  0.186542287148713  0.5346194113501788  0.5258877748182359  1.0000
  C   C14       1.0  0.259213011752019  0.5347265008029067  0.5257963024064494  1.0000
  H   H1        1.0  0.5111150183768931  0.3070587371980962  0.751788215744067  1.0000
  H   H2        1.0  0.3836360529279655  0.3077453223667006  0.7529903972701029  1.0000
  H   H3        1.0  0.3837189074952591  0.5352087486256119  0.3823091850459115  1.0000
  H   H4        1.0  0.5111976807474481  0.5358949708962544  0.3835118156662929  1.0000
  H   H5        1.0  0.28624228747281555  0.21908124013122987  0.6406566433447025  1.0000
  H   H6        1.0  0.1587635203116632  0.2200867243336646  0.6415984636743164  1.0000
  H   H7        1.0  0.1588452251367833  0.6228667684751132  0.49370086750139675  1.0000
  H   H8        1.0  0.2863241449152762  0.6238725365283642  0.49464246595626576  1.0000
  C   C15       1.0  0.8349178761537069  0.04019818897442895  0.5676099773457032  1.0000
  C   C16       1.0  0.7755117989070597  0.04499740804243424  0.48808931373185205  1.0000
  C   C17       1.0  0.7462807880952663  0.9304269700948959  0.44803920733705627  1.0000
  C   C18       1.0  0.7757353543829529  0.8098648298071591  0.4880353067936636  1.0000
  C   C19       1.0  0.8350495402768743  0.8027450523492011  0.5677015529779244  1.0000
  C   C20       1.0  0.8643706932715417  0.9185650960200706  0.6069907583961167  1.0000
  S   S1        1.0  0.6708753611216097  0.9380001761114924  0.3454287123936101  1.0000
  C   C21       1.0  0.721991752836018  0.9465492297872452  0.1990047000220987  1.0000
  O   O1        1.0  0.7387559250643276  0.841298769013108  0.15265400763114442  1.0000
  C   C22       1.0  0.7449218171196712  0.07273981915220684  0.1335062339504829  1.0000
  C   C23       1.0  0.794073814773426  0.0751169114179584  0.03199828490486767  1.0000
  C   C24       1.0  0.8164189133026497  0.1934760907194377  0.9702743300550107  1.0000
  C   C25       1.0  0.7899881497658848  0.3106986545494408  0.008776136854489414  1.0000
  C   C26       1.0  0.7410453425677335  0.3097946497937569  0.1089310230358187  1.0000
  C   C27       1.0  0.7184685415076926  0.19173898884715457  0.17097515494896864  1.0000
  H   H9        1.0  0.9468108599845341  0.23845618764802357  0.7176658714215411  1.0000
  H   H10       1.0  0.7518696790492316  0.13753114447294612  0.45681308539874815  1.0000
  H   H11       1.0  0.7523172057776021  0.7221252148649315  0.4562705405908214  1.0000
  H   H12       1.0  0.910168893228884  0.9139449230187612  0.6682925613254977  1.0000
  H   H13       1.0  0.8577220304846002  0.4727237097389299  0.5976685428480548  1.0000
  H   H14       1.0  0.8155775435844844  0.9855640967856842  0.0007002719767232916  1.0000
  H   H15       1.0  0.854341558818376  0.1942585915983756  0.892575642453715  1.0000
  H   H16       1.0  0.8073666415277048  0.4022209719400396  0.9609011830531791  1.0000
  H   H17       1.0  0.720452721872275  0.4007310100949877  0.13846835738738195  1.0000
  H   H18       1.0  0.6801389016581149  0.19434461969846614  0.24754148893746475  1.0000
  C   C28       1.0  0.8350315645073172  0.42161210847574754  0.18627978609779405  1.0000
  C   C29       1.0  0.9059860334465258  0.45397892341972845  0.18246967482828746  1.0000
  C   C30       1.0  0.9419337549069073  0.46840054406831344  0.06386673541492538  1.0000
  C   C31       1.0  0.9058643629686042  0.45366892434448136  0.9473263410612214  1.0000
  C   C32       1.0  0.8349358487378419  0.42133110675578805  0.949031708704549  1.0000
  C   C33       1.0  0.7999791654253643  0.4050408425059584  0.0690767870157678  1.0000
  N   N3        1.0  0.014314566990584641  0.5034777193925626  0.06338735819987651  1.0000
  C   C34       1.0  0.06349763219704396  0.46363720838716316  0.9691695635512194  1.0000
  O   O2        1.0  0.050804080927616235  0.3651025775814116  0.9076062189186368  1.0000
  C   C35       1.0  0.130239732359261  0.5339490842187579  0.9468275573612982  1.0000
  C   C36       1.0  0.13864676581294666  0.6619886973179505  0.9831967405519912  1.0000
  C   C37       1.0  0.20171039019770176  0.7275285451988038  0.9610140063963737  1.0000
  C   C38       1.0  0.2568725480590461  0.6665161192235021  0.9020318382608837  1.0000
  C   C39       1.0  0.24902973949200533  0.5399225432963115  0.8646568606599171  1.0000
  C   C40       1.0  0.18608453964845295  0.47392577258819535  0.8865104604707139  1.0000
  H   H19       1.0  0.7010277318443574  0.36176332378289633  0.4006374867331888  1.0000
  H   H20       1.0  0.9338348037946754  0.46719492950016916  0.2718916323014935  1.0000
  H   H21       1.0  0.9327868965972592  0.46962902473723606  0.8552150519042447  1.0000
  H   H22       1.0  0.7452834613417703  0.380072728496029  0.07114983915611495  1.0000
  H   H23       1.0  0.8075035648543504  0.4106066378109603  0.622106852168069  1.0000
  H   H24       1.0  0.0332909525442453  0.5506702512981584  0.1423156118276776  1.0000
  H   H25       1.0  0.0964247661019837  0.712511842620368  0.026976665591770695  1.0000
  H   H26       1.0  0.20770631650071175  0.8259845434412567  0.9891416803087574  1.0000
  H   H27       1.0  0.30561512115504685  0.7174820563112969  0.8849204334142668  1.0000
  H   H28       1.0  0.29176606653067827  0.49281589127972153  0.8186803650001412  1.0000
  H   H29       1.0  0.1812796100876144  0.37569234203315083  0.8570077756896666  1.0000
  Zn  Zn1       1.0  0.7588268094955318  0.4214731456802461  0.5676576472963943  1.0000
  Zn  Zn2       1.0  0.9111339282384506  0.42146946010252373  0.5676532585236933  1.0000
  C   C41       1.0  0.8349514797725687  0.4162117831446141  0.8048546482189117  1.0000
  C   C42       1.0  0.8350109214172269  0.42673246078169175  0.33045638521873744  1.0000
  C   C43       1.0  0.8350217056642358  0.6586093605757501  0.5625089536835599  1.0000
  C   C44       1.0  0.8349406432758004  0.1843333233939859  0.5728021488082178  1.0000
  O   O3        1.0  0.8928037502374749  0.4284438347360835  0.3788417027568116  1.0000
  O   O4        1.0  0.8927562298091929  0.41449663256971697  0.7564656257333671  1.0000
  O   O5        1.0  0.8928121587669638  0.610235741402509  0.5607697629446065  1.0000
  O   O6        1.0  0.8927477693214267  0.232704735228439  0.5745374681717168  1.0000
  O   O7        1.0  0.7772129164376123  0.6102378705570052  0.5607734376430373  1.0000
  O   O8        1.0  0.7771569877546568  0.41450032168345646  0.7564692313723362  1.0000
  O   O9        1.0  0.7772045084173358  0.4284474791798047  0.37884374696079504  1.0000
  O   O10       1.0  0.777148527484621  0.23270837034968636  0.5745396097442226  1.0000
