data_image0
_chemical_formula_structural       NC10NC3NCH9C7OC3OC4H12C7OC3OC4H12Zn2C4O8
_chemical_formula_sum              "N3 C46 H33 O12 Zn2"
_cell_length_a       19.437513618241372
_cell_length_b       10.299371110280156
_cell_length_c       10.299374482448636
_cell_angle_alpha    85.56563777426874
_cell_angle_beta     90.32903884356655
_cell_angle_gamma    89.53521497268402

_space_group_name_H-M_alt    "P 1"
_space_group_IT_number       1

loop_
  _space_group_symop_operation_xyz
  'x, y, z'

loop_
  _atom_site_type_symbol
  _atom_site_label
  _atom_site_symmetry_multiplicity
  _atom_site_fract_x
  _atom_site_fract_y
  _atom_site_fract_z
  _atom_site_occupancy
  N   N1        1.0  0.6482542597279732  0.4108171000071521  0.5761538187455693  1.0000
  C   C1        1.0  0.5893233863709174  0.42782794634940285  0.573184626518997  1.0000
  C   C2        1.0  0.5158859877691971  0.44908143423404945  0.569499136901725  1.0000
  C   C3        1.0  0.4741126449241855  0.347895294670608  0.5577982787727485  1.0000
  C   C4        1.0  0.3982248301166268  0.35796215024015465  0.5505807803596428  1.0000
  C   C5        1.0  0.3586522020634808  0.43879092169243517  0.6163584279313995  1.0000
  C   C6        1.0  0.2824699782596926  0.4301851978160676  0.6079105350648993  1.0000
  C   C7        1.0  0.24931868103383342  0.30883963983082624  0.6125046957660356  1.0000
  C   C8        1.0  0.1775841073084967  0.3024700382273595  0.6053338006801453  1.0000
  C   C9        1.0  0.1380301018281986  0.4169732033527054  0.593930796620499  1.0000
  C   C10       1.0  0.064181034016602  0.41026547335257785  0.5865916668224443  1.0000
  N   N2        1.0  0.0048114815413936  0.40487304835844384  0.5806914651261342  1.0000
  C   C11       1.0  0.17046467352471847  0.5380079673407336  0.5900818110336469  1.0000
  C   C12       1.0  0.2421836757911193  0.5446315404200313  0.5973148330111036  1.0000
  C   C13       1.0  0.38733658454497666  0.5310481608678752  0.706318983466999  1.0000
  N   N3        1.0  0.44433209906775534  0.5942666255927316  0.6859398167465123  1.0000
  C   C14       1.0  0.4881850126042295  0.5850401808054646  0.5728246505816357  1.0000
  H   H1        1.0  0.49648602584140966  0.2528432416329933  0.5456379810618713  1.0000
  H   H2        1.0  0.3735087111101122  0.2884681738531207  0.4922323808622705  1.0000
  H   H3        1.0  0.2787563101892201  0.21892486578635717  0.6234893274405482  1.0000
  H   H4        1.0  0.1529781312830751  0.20824306508381918  0.6091827590557881  1.0000
  H   H5        1.0  0.1403414063147569  0.6272671254755573  0.5814091390322005  1.0000
  H   H6        1.0  0.2663081842512082  0.6392713158174994  0.5934505823083053  1.0000
  H   H7        1.0  0.3573260170332093  0.5514076740764744  0.790696791541615  1.0000
  H   H8        1.0  0.5309458606268104  0.6553504866163666  0.5786168595439916  1.0000
  H   H9        1.0  0.45853216160531507  0.6131766992419372  0.48218744315910755  1.0000
  C   C15       1.0  0.8264898028653446  0.02647439341773072  0.578307306220717  1.0000
  C   C16       1.0  0.818585559847265  0.035927472725862504  0.4422187217290774  1.0000
  C   C17       1.0  0.8138217023903502  0.9235213397248965  0.3737377074561872  1.0000
  C   C18       1.0  0.8186196574936642  0.8006589459453975  0.44253024824558307  1.0000
  C   C19       1.0  0.8265825361333712  0.7892056084282032  0.5785493437466445  1.0000
  C   C20       1.0  0.8302913966007833  0.9027144221660327  0.6456862004844086  1.0000
  C   C21       1.0  0.8061928962814111  0.933363177875494  0.22989054814289683  1.0000
  O   O1        1.0  0.8344062767336023  0.8478700733039589  0.16622530137017494  1.0000
  C   C22       1.0  0.7665497760884452  0.04011094460885235  0.15827368887114845  1.0000
  C   C23       1.0  0.7858018281626883  0.0849818173431256  0.03137344445831826  1.0000
  C   C24       1.0  0.7486001054409986  0.1846326278871644  0.9615177308048821  1.0000
  O   O2        1.0  0.7705870305842379  0.22610500393035718  0.8356970241441912  1.0000
  C   C25       1.0  0.7378057633931677  0.32615695838550907  0.7538431216736585  1.0000
  C   C26       1.0  0.6908767715043171  0.2394390983340189  0.01927245217800278  1.0000
  C   C27       1.0  0.6709186307986453  0.1942905378153463  0.14464661950609028  1.0000
  C   C28       1.0  0.7082425730677323  0.09491917860099064  0.21375169500921934  1.0000
  H   H10       1.0  0.8424558640620795  0.21595744875334663  0.8349088990354931  1.0000
  H   H11       1.0  0.8168908969807299  0.1309034351842857  0.3891663131580585  1.0000
  H   H12       1.0  0.8154652513834836  0.7138643835821463  0.38976653725896315  1.0000
  H   H13       1.0  0.8363854316257308  0.8946229820584156  0.7506005332409249  1.0000
  H   H14       1.0  0.8302138094727988  0.45734894437499807  0.6306835273219924  1.0000
  H   H15       1.0  0.8302930203419587  0.04335543982775889  0.9865658513931322  1.0000
  H   H16       1.0  0.7658870518488473  0.33880349145671596  0.660327617713012  1.0000
  H   H17       1.0  0.7388114746198348  0.4195851142363399  0.8008759776164389  1.0000
  H   H18       1.0  0.6838915995522673  0.29882737248123314  0.7333923514182948  1.0000
  H   H19       1.0  0.6610010488828356  0.3164491255220621  0.9680026942628841  1.0000
  H   H20       1.0  0.6261676196420852  0.23608295736980867  0.1882291479100573  1.0000
  H   H21       1.0  0.6910636041118915  0.06003317760072191  0.30991379051612467  1.0000
  C   C29       1.0  0.8265999112244754  0.40792642362610265  0.19704661864888287  1.0000
  C   C30       1.0  0.8984655908462814  0.4213927637336461  0.19559446504858016  1.0000
  C   C31       1.0  0.9346259215936502  0.4296576540926409  0.07757361210580682  1.0000
  C   C32       1.0  0.8983011316036782  0.4213316342869775  0.9603535011605336  1.0000
  C   C33       1.0  0.8264724114279872  0.4077535551598175  0.959809968193842  1.0000
  C   C34       1.0  0.7910179917675964  0.4014708712351911  0.07866790921429301  1.0000
  C   C35       1.0  0.010591695846383418  0.44251731278135553  0.0760058287094818  1.0000
  O   O3        1.0  0.044339089845401025  0.38841241232022505  0.9905712731423134  1.0000
  C   C36       1.0  0.04826984281940617  0.5167709450120039  0.171276802437329  1.0000
  C   C37       1.0  0.11538935478447311  0.47893398260837383  0.2102836787185467  1.0000
  C   C38       1.0  0.15214683271084395  0.5485856114457981  0.29897699349363616  1.0000
  O   O4        1.0  0.2187069358162055  0.5055835929522581  0.33510407206923953  1.0000
  C   C39       1.0  0.26182070836941973  0.5667358496691401  0.42406461696407055  1.0000
  C   C40       1.0  0.12140453443520949  0.6584852613739347  0.3485349507548545  1.0000
  C   C41       1.0  0.05508846083703367  0.697642049272075  0.3090281660362437  1.0000
  C   C42       1.0  0.01872804786984994  0.6277507906728439  0.2205808634347324  1.0000
  H   H22       1.0  0.6910979005507321  0.38052428898712787  0.407263803404486  1.0000
  H   H23       1.0  0.9264870977289313  0.424017622095012  0.2865433339728607  1.0000
  H   H24       1.0  0.9261642652077589  0.4267227407256456  0.8693163346127641  1.0000
  H   H25       1.0  0.7356148032688706  0.391088455448686  0.07898369783402992  1.0000
  H   H26       1.0  0.7989437687614975  0.40145288382635513  0.6322287144282402  1.0000
  H   H27       1.0  0.13923887722760386  0.3942238933783911  0.17268206496833072  1.0000
  H   H28       1.0  0.31133787460711543  0.5125528992380701  0.4346366290317261  1.0000
  H   H29       1.0  0.2369767446475366  0.565349073271026  0.5209825795296885  1.0000
  H   H30       1.0  0.27241044465346254  0.6685655431662099  0.38657005452283877  1.0000
  H   H31       1.0  0.14837199744240692  0.7144736890311354  0.4170869206874586  1.0000
  H   H32       1.0  0.03188514668565001  0.7828304177397676  0.34666708912005406  1.0000
  H   H33       1.0  0.9678561047827882  0.6613258023337638  0.18971961214069213  1.0000
  Zn  Zn1       1.0  0.7511489757127582  0.4090982841669317  0.5774707935713108  1.0000
  Zn  Zn2       1.0  0.9019167686858057  0.40658119218471667  0.5793851571449793  1.0000
  C   C43       1.0  0.8264943542475587  0.40261256508629084  0.8156297374249185  1.0000
  C   C44       1.0  0.8265730367085204  0.41306852237670005  0.34122636218683233  1.0000
  C   C45       1.0  0.8265623254986627  0.6450343960178533  0.5733281885791164  1.0000
  C   C46       1.0  0.826505013809645  0.17064513197890618  0.5835279791252507  1.0000
  O   O5        1.0  0.8837796083869852  0.413833368635381  0.390340890418025  1.0000
  O   O6        1.0  0.8837170488497568  0.39993632461256157  0.7679677926813435  1.0000
  O   O7        1.0  0.8837711649753792  0.595695031503126  0.5723075682995908  1.0000
  O   O8        1.0  0.8837254408319334  0.21807467191606023  0.5860010167715517  1.0000
  O   O9        1.0  0.7693402521169836  0.5976048052959642  0.5708549332846296  1.0000
  O   O10       1.0  0.7692861361894858  0.4018476587320057  0.7665150889136573  1.0000
  O   O11       1.0  0.7693486960279567  0.4157446578517509  0.38888662518353945  1.0000
  O   O12       1.0  0.7692945284526873  0.21998595182156144  0.5845468489051832  1.0000
