data_image0
_chemical_formula_structural       NC6NC2H4C10H6C6NH7Zn2C4O8
_chemical_formula_sum              "N3 C28 H17 Zn2 O8"
_cell_length_a       14.927258858638513
_cell_length_b       9.275150299802178
_cell_length_c       9.274774538082514
_cell_angle_alpha    84.74231674010296
_cell_angle_beta     90.34966586359073
_cell_angle_gamma    89.48389287567745

_space_group_name_H-M_alt    "P 1"
_space_group_IT_number       1

loop_
  _space_group_symop_operation_xyz
  'x, y, z'

loop_
  _atom_site_type_symbol
  _atom_site_label
  _atom_site_symmetry_multiplicity
  _atom_site_fract_x
  _atom_site_fract_y
  _atom_site_fract_z
  _atom_site_occupancy
  N   N1        1.0  0.8285818011300646  0.5930069062660441  0.3990049791173711  1.0000
  C   C1        1.0  0.751055310163385  0.5930068776477113  0.3990049898808745  1.0000
  C   C2        1.0  0.654622801780327  0.5930069932465962  0.39900493930647923  1.0000
  C   C3        1.0  0.6072164689237106  0.570407068344637  0.27229954081120705  1.0000
  C   C4        1.0  0.5135051569228727  0.5704070951586866  0.27229940704520317  1.0000
  C   C5        1.0  0.46680673885839497  0.5930068154323567  0.39900495896673394  1.0000
  C   C6        1.0  0.3703741634837605  0.5930069310342593  0.3990049083863906  1.0000
  N   N2        1.0  0.29284767251708166  0.5930069024159257  0.3990049191498943  1.0000
  C   C7        1.0  0.514213004723435  0.6156067403373333  0.5257103574560582  1.0000
  C   C8        1.0  0.6079243167242734  0.6156067135232837  0.525710491222062  1.0000
  H   H1        1.0  0.6426372657704863  0.5528230536851553  0.173715468673392  1.0000
  H   H2        1.0  0.4775336091299146  0.5528232513790321  0.17371546261032106  1.0000
  H   H3        1.0  0.47879227533811347  0.633190743731076  0.6242945378690237  1.0000
  H   H4        1.0  0.6438958643909584  0.633190653728348  0.6242945452669211  1.0000
  C   C9        1.0  0.06309201644668105  0.16928030540958772  0.4014212572044465  1.0000
  C   C10       1.0  0.10978354539739235  0.25228391758196467  0.2922260709440456  1.0000
  C   C11       1.0  0.1487709746932957  0.1871342645206544  0.17748172863085587  1.0000
  C   C12       1.0  0.14146128667187818  0.03802798757498759  0.1704546132147149  1.0000
  C   C13       1.0  0.09672306015803844  0.9535861873306632  0.27900112441629643  1.0000
  C   C14       1.0  0.05834612808089856  0.016722242222194657  0.39660121269868487  1.0000
  C   C15       1.0  0.19546379262099833  0.27390177013002215  0.06578990566499376  1.0000
  C   C16       1.0  0.23455750053871405  0.3465716006042989  0.9722805701470385  1.0000
  C   C17       1.0  0.2803344173737625  0.4316728782745744  0.8627852163988408  1.0000
  C   C18       1.0  0.31942058711706944  0.5043370703964931  0.7692938059632337  1.0000
  H   H5        1.0  0.0214930820816992  0.42960682443522824  0.6306177633517631  1.0000
  H   H6        1.0  0.11409636389234384  0.3687128514023479  0.2944557968238697  1.0000
  H   H7        1.0  0.17115017771606053  0.9866565557985819  0.0816666008070697  1.0000
  H   H8        1.0  0.09395943345412117  0.837640428808649  0.27276976615006354  1.0000
  H   H9        1.0  0.001452683551403264  0.8832630619367299  0.7395286401107377  1.0000
  H   H10       1.0  0.3537415049507848  0.5681423977930125  0.6872006257023517  1.0000
  C   C19       1.0  0.05909070228137936  0.5966918017640817  0.9751739271866208  1.0000
  C   C20       1.0  0.12209133308285103  0.6818419830486206  0.041426114856641494  1.0000
  C   C21       1.0  0.18917753681471638  0.7551061314930203  0.960244480798166  1.0000
  C   C22       1.0  0.19380791036134748  0.7435523779897233  0.8113327801606941  1.0000
  C   C23       1.0  0.1310768908397324  0.6615808324052752  0.7433599505606123  1.0000
  C   C24       1.0  0.06234746225150148  0.5893107345262598  0.8228485350015067  1.0000
  N   N3        1.0  0.25320772231761973  0.8400555693593894  0.029503055282709585  1.0000
  H   H11       1.0  0.9267641936866892  0.31462384277750366  0.10269859315942667  1.0000
  H   H12       1.0  0.12044045286756805  0.6886854179877919  0.15740732052333728  1.0000
  H   H13       1.0  0.24560807084598738  0.7993015083799889  0.7474849154861043  1.0000
  H   H14       1.0  0.1350940929799045  0.6575671457849688  0.627209729494679  1.0000
  H   H15       1.0  0.9704450141934418  0.4037207497801781  0.557822356488705  1.0000
  H   H16       1.0  0.2505556260812815  0.8491041482430177  0.1408215122471002  1.0000
  H   H17       1.0  0.30372121503451566  0.8946700040000447  0.969950329281022  1.0000
  Zn  Zn1       1.0  0.9625589645915538  0.5930029661086795  0.39901332356233143  1.0000
  Zn  Zn2       1.0  0.15887063161504078  0.5929989204343353  0.3990084815282809  1.0000
  C   C25       1.0  0.06176206312660582  0.5849576403308623  0.6626525799628455  1.0000
  C   C26       1.0  0.05966966714569713  0.6010460655511027  0.135369356380485  1.0000
  C   C27       1.0  0.05921651631469849  0.8565877793500748  0.39176083223948344  1.0000
  C   C28       1.0  0.06221515697433791  0.32941419226208457  0.40626119091470203  1.0000
  O   O1        1.0  0.13436326284512434  0.6024995659224106  0.18913060409916183  1.0000
  O   O2        1.0  0.13606448485501954  0.583499984466425  0.6088872479670119  1.0000
  O   O3        1.0  0.13400792509189352  0.8028447439094397  0.39014023656755303  1.0000
  O   O4        1.0  0.13641975514679605  0.3831548177451347  0.40787750722347016  1.0000
  O   O5        1.0  0.9850097740682225  0.8028470688008975  0.39014429786119337  1.0000
  O   O6        1.0  0.9870663238230402  0.583504043630706  0.608891222443849  1.0000
  O   O7        1.0  0.9853650954873892  0.6025035899139726  0.1891328435872135  1.0000
  O   O8        1.0  0.9874215882589398  0.3831588304739748  0.407879854980725  1.0000
