data_image0
_chemical_formula_structural       NC11NC3H8C12OCH12C12IH9Zn2C4O8
_chemical_formula_sum              "N2 C43 H29 O9 I1 Zn2"
_cell_length_a       17.807433833752565
_cell_length_b       10.299790755002418
_cell_length_c       10.299773350644648
_cell_angle_alpha    85.5398229900983
_cell_angle_beta     88.53399239926371
_cell_angle_gamma    90.6669456681986

_space_group_name_H-M_alt    "P 1"
_space_group_IT_number       1

loop_
  _space_group_symop_operation_xyz
  'x, y, z'

loop_
  _atom_site_type_symbol
  _atom_site_label
  _atom_site_symmetry_multiplicity
  _atom_site_fract_x
  _atom_site_fract_y
  _atom_site_fract_z
  _atom_site_occupancy
  N   N1        1.0  0.7070187887929911  0.4388699433255414  0.5345754020512685  1.0000
  C   C1        1.0  0.6562118035062929  0.4041250438584368  0.6011393403955259  1.0000
  C   C2        1.0  0.593002786868564  0.36090525372812454  0.6839363853083515  1.0000
  C   C3        1.0  0.6047528502701484  0.2973215288190736  0.8066577026260985  1.0000
  C   C4        1.0  0.543450711916296  0.2557821324526035  0.8871707320189056  1.0000
  C   C5        1.0  0.4702442790539894  0.2775130172684048  0.8456032536634682  1.0000
  C   C6        1.0  0.4575173511143846  0.3412514201127754  0.7224217339051973  1.0000
  C   C7        1.0  0.379742198771728  0.36431318464898443  0.6780735465200425  1.0000
  C   C8        1.0  0.36094925301952113  0.3474771631435473  0.5484956304846933  1.0000
  C   C9        1.0  0.2877128802818628  0.3691693326203338  0.506884083597338  1.0000
  C   C10       1.0  0.23232624500827737  0.4080162760209743  0.5940301662903749  1.0000
  C   C11       1.0  0.156952904718684  0.43036728248129297  0.551057296130635  1.0000
  N   N2        1.0  0.09635811315959471  0.44833583119691833  0.5165102360813896  1.0000
  C   C12       1.0  0.25042753942625207  0.42506302006537333  0.7230769399881286  1.0000
  C   C13       1.0  0.3236111809623239  0.403335849921276  0.7649439158296047  1.0000
  C   C14       1.0  0.5196768037249142  0.38278624702973024  0.6419251204690305  1.0000
  H   H1        1.0  0.6612248985841698  0.27989795562913966  0.8400240362281073  1.0000
  H   H2        1.0  0.55266657744719  0.2063040298963858  0.9819091262027368  1.0000
  H   H3        1.0  0.4236171693408289  0.24293971191390898  0.9090439293258799  1.0000
  H   H4        1.0  0.4026266491635808  0.31585479314125187  0.4797819009008084  1.0000
  H   H5        1.0  0.2742643180142339  0.35531657911849823  0.4068515068742673  1.0000
  H   H6        1.0  0.2080335269548098  0.4554625204544574  0.7912759864466222  1.0000
  H   H7        1.0  0.3365310201735224  0.4187340457874616  0.8647936389801594  1.0000
  H   H8        1.0  0.5111591971457765  0.4336266214192848  0.5474209507534422  1.0000
  C   C15       1.0  0.9017595569456545  0.06223684646457196  0.5255784468558342  1.0000
  C   C16       1.0  0.8800253915315276  0.05050361266601966  0.6580252544493979  1.0000
  C   C17       1.0  0.8689529049934549  0.9274205688359227  0.7251066741049774  1.0000
  C   C18       1.0  0.8798904172157002  0.8152180572444143  0.6579657319844111  1.0000
  C   C19       1.0  0.9016245491932365  0.8249590757363574  0.5255179934255456  1.0000
  C   C20       1.0  0.9124391689682805  0.9489064831439237  0.46006655886856507  1.0000
  C   C21       1.0  0.8459639661945947  0.9160616864798907  0.8652290031621556  1.0000
  C   C22       1.0  0.7911531666654604  0.8238495821040009  0.9128378582593093  1.0000
  C   C23       1.0  0.7695842267132551  0.8134342615879591  0.04457797587044898  1.0000
  C   C24       1.0  0.8023402419980377  0.8945501944374734  0.13040646418660784  1.0000
  C   C25       1.0  0.8573512168732201  0.9873756988140039  0.08466003075146622  1.0000
  C   C26       1.0  0.8786872110873468  0.997424323454996  0.9524040209308688  1.0000
  O   O1        1.0  0.8920847433722058  0.0708953579714875  0.16691701434602846  1.0000
  C   C27       1.0  0.8759912852872939  0.07144118831253587  0.3030001355670907  1.0000
  H   H9        1.0  0.9100740844663425  0.39415998250951123  0.4751302942902811  1.0000
  H   H10       1.0  0.8706615905341022  0.13728718803366968  0.7088886000894012  1.0000
  H   H11       1.0  0.87240600510313  0.7201205795736865  0.7096809897524379  1.0000
  H   H12       1.0  0.9292067374937457  0.9571897948765413  0.35788941583670253  1.0000
  H   H13       1.0  0.9098688632771876  0.5012184802765203  0.47503546356343507  1.0000
  H   H14       1.0  0.7642764460507203  0.7609869724955257  0.8478752609154383  1.0000
  H   H15       1.0  0.7271585368423782  0.7424226357649275  0.08022538353129682  1.0000
  H   H16       1.0  0.7845461708894957  0.8843378866434735  0.23189890498752272  1.0000
  H   H17       1.0  0.9217191974380917  0.06802402616398308  0.9182413421164374  1.0000
  H   H18       1.0  0.8889733680318435  0.975212586949522  0.3530204583452549  1.0000
  H   H19       1.0  0.9114462129382207  0.14692954389459367  0.34356944189482796  1.0000
  H   H20       1.0  0.816020293791682  0.09488946357638282  0.3202182862194739  1.0000
  C   C28       1.0  0.9016562069233374  0.4437031814588761  0.14418070177400044  1.0000
  C   C29       1.0  0.9697446391617227  0.5143619070907418  0.13467817511419233  1.0000
  C   C30       1.0  0.0042817226948661516  0.5500582879546896  0.01273146675957015  1.0000
  C   C31       1.0  0.9698169412935745  0.5141495090445969  0.8994052256706677  1.0000
  C   C32       1.0  0.9017278795376104  0.4434927730480134  0.9069158231627923  1.0000
  C   C33       1.0  0.8680290741539333  0.40866420792765573  0.0297540004602197  1.0000
  C   C34       1.0  0.07631330915714263  0.6248069968941184  0.0037326179981227435  1.0000
  C   C35       1.0  0.08811283332499231  0.7281126882114697  0.08298674064424438  1.0000
  C   C36       1.0  0.15594829983354153  0.7983539951326211  0.07431337505800073  1.0000
  C   C37       1.0  0.21273817412537843  0.766375194285579  0.9866919113126289  1.0000
  C   C38       1.0  0.20166316401627316  0.6639733128182628  0.9075468345854109  1.0000
  C   C39       1.0  0.1339039493587988  0.593507888501366  0.9158107402183009  1.0000
  I   I1        1.0  0.31500951466355787  0.8725002000587786  0.9739192535038644  1.0000
  H   H21       1.0  0.8756895754975446  0.4168434721000172  0.47525109296035795  1.0000
  H   H22       1.0  0.9966042799733791  0.5402618520668567  0.22240655650065277  1.0000
  H   H23       1.0  0.995684474056334  0.5429660499992603  0.8050897157326689  1.0000
  H   H24       1.0  0.8155015265690372  0.3541553436547147  0.036316427191747325  1.0000
  H   H25       1.0  0.8757945368841304  0.4165338833352698  0.582326410418073  1.0000
  H   H26       1.0  0.04454562825685571  0.755631285121315  0.15039644685419362  1.0000
  H   H27       1.0  0.16424855552841033  0.8778325214774769  0.13550718123318517  1.0000
  H   H28       1.0  0.24559893703068145  0.6386998989432837  0.8398286907753181  1.0000
  H   H29       1.0  0.12690931125077753  0.5135202200845961  0.8547173110697752  1.0000
  Zn  Zn1       1.0  0.8193737087300823  0.44159811741272237  0.5293696701485191  1.0000
  Zn  Zn2       1.0  0.9840031813366743  0.44559703467536244  0.5217265548006353  1.0000
  C   C40       1.0  0.9017135680533409  0.43835886070683716  0.7627430105901518  1.0000
  C   C41       1.0  0.901665119484019  0.44883797362171346  0.28835325823264  1.0000
  C   C42       1.0  0.9016456967204285  0.6807896960611923  0.5203544856298178  1.0000
  C   C43       1.0  0.9017329349231354  0.20640557659256012  0.5307418551629866  1.0000
  O   O2        1.0  0.9641441385043384  0.45207315933920145  0.33383836321934357  1.0000
  O   O3        1.0  0.9641845096130482  0.43815778105085285  0.7114565841369567  1.0000
  O   O4        1.0  0.9641288605735314  0.6339237257257961  0.5157261742865116  1.0000
  O   O5        1.0  0.9641997313561737  0.25630722261671446  0.5295686783028131  1.0000
  O   O6        1.0  0.8391771025306227  0.6308879281081514  0.5215275492477303  1.0000
  O   O7        1.0  0.8392327512839748  0.43512354374478845  0.7172578897295521  1.0000
  O   O8        1.0  0.8391923800865283  0.4490388772094509  0.33963810741813627  1.0000
  O   O9        1.0  0.8392479729460849  0.25327293117128846  0.5353685198699707  1.0000
