data_image0
_chemical_formula_structural       NC6NCNCH5C6BrH5C6NCH7Zn2C4O8
_chemical_formula_sum              "N4 C25 H17 Br1 Zn2 O8"
_cell_length_a       14.933214217465613
_cell_length_b       9.276564384272257
_cell_length_c       9.273390368590329
_cell_angle_alpha    86.11919172510322
_cell_angle_beta     89.95654164007166
_cell_angle_gamma    90.62004099175812

_space_group_name_H-M_alt    "P 1"
_space_group_IT_number       1

loop_
  _space_group_symop_operation_xyz
  'x, y, z'

loop_
  _atom_site_type_symbol
  _atom_site_label
  _atom_site_symmetry_multiplicity
  _atom_site_fract_x
  _atom_site_fract_y
  _atom_site_fract_z
  _atom_site_occupancy
  N   N1        1.0  0.8533145504624089  0.5622010676745963  0.40799084698193644  1.0000
  C   C1        1.0  0.775830651370463  0.5631872503435154  0.40699962031829034  1.0000
  C   C2        1.0  0.6794401410861951  0.5644167668285891  0.4057636832857203  1.0000
  C   C3        1.0  0.6310045799313689  0.46966278227654334  0.5010217896402956  1.0000
  C   C4        1.0  0.5374780661298041  0.4707342459561518  0.4999446552650872  1.0000
  C   C5        1.0  0.4914844093525637  0.5665054049695988  0.40366399978128875  1.0000
  C   C6        1.0  0.3948954238614948  0.5644189015530221  0.4057616108791051  1.0000
  N   N2        1.0  0.3173985552220078  0.5626782927708571  0.4075111088101997  1.0000
  C   C7        1.0  0.540026453818047  0.6624558753272276  0.3072031713052319  1.0000
  N   N3        1.0  0.4953568338628079  0.7619989031756693  0.20713081669268904  1.0000
  C   C8        1.0  0.6340271597008669  0.6604284602773569  0.30924149037025284  1.0000
  H   H1        1.0  0.6655203016670814  0.3949556374294403  0.5761263572501145  1.0000
  H   H2        1.0  0.5009168355577048  0.3966555478917164  0.5744173034590192  1.0000
  H   H3        1.0  0.5321658934849385  0.8323057526948564  0.13644987085876514  1.0000
  H   H4        1.0  0.4256495209421384  0.7672954418208497  0.20180617090284825  1.0000
  H   H5        1.0  0.6717080191219483  0.7337618030290062  0.23551799703531137  1.0000
  C   C9        1.0  0.0826628411182202  0.13895984291245367  0.40812234160289595  1.0000
  C   C10       1.0  0.07119110035214082  0.22104770325467737  0.27640459404399587  1.0000
  C   C11       1.0  0.0680532283064932  0.15466904846300042  0.1459086523631634  1.0000
  C   C12       1.0  0.0763672761580672  0.005257182112115237  0.14465256840067514  1.0000
  C   C13       1.0  0.08626151029757861  0.9214532058476788  0.27437997250252866  1.0000
  C   C14       1.0  0.08805875665867391  0.9859084937793219  0.40739206523446314  1.0000
  Br  Br1       1.0  0.07273298785492543  0.9149930693542494  0.9655886420621336  1.0000
  H   H6        1.0  0.05639646338822038  0.4039748855769953  0.6424686016800774  1.0000
  H   H7        1.0  0.06677199789215238  0.33767333527389876  0.2739417185530806  1.0000
  H   H8        1.0  0.060009230879341624  0.21981431866952425  0.04552287140411004  1.0000
  H   H9        1.0  0.09040491482938041  0.8051844676946985  0.2712682985608541  1.0000
  H   H10       1.0  0.13745127925467449  0.6904116898243348  0.6318173460328593  1.0000
  C   C15       1.0  0.08537365175465578  0.557937222956205  0.9845152899443661  1.0000
  C   C16       1.0  0.16760154792930038  0.5551564555244508  0.0580352344849544  1.0000
  C   C17       1.0  0.24848029342072783  0.565779870924022  0.9825278294241868  1.0000
  C   C18       1.0  0.24918686349438726  0.5795768412558884  0.830887306180307  1.0000
  C   C19       1.0  0.16748928973042276  0.5799261724185664  0.7565592923391739  1.0000
  C   C20       1.0  0.08534796355152352  0.5669311692021175  0.8309991556209799  1.0000
  N   N4        1.0  0.3315897047767997  0.5918622361386481  0.7500034220001427  1.0000
  C   C21       1.0  0.420005974876569  0.5921231123270045  0.8169000849993248  1.0000
  H   H11       1.0  0.9435903197190156  0.48852068281201944  0.27056110547645607  1.0000
  H   H12       1.0  0.3101705328466622  0.5645163428470052  0.04358620456836415  1.0000
  H   H13       1.0  0.8759431657158955  0.4546816975251648  0.7358203758504328  1.0000
  H   H14       1.0  0.3287450654523031  0.6014165732061861  0.6371223515366506  1.0000
  H   H15       1.0  0.4264070216172944  0.6846371552894317  0.8862828523740713  1.0000
  H   H16       1.0  0.43027231031142477  0.48905170136135173  0.8825316109809958  1.0000
  H   H17       1.0  0.47255392297730137  0.6030790329675937  0.7319458754477486  1.0000
  Zn  Zn1       1.0  0.9872391451704715  0.5623350035792458  0.40786074000425665  1.0000
  Zn  Zn2       1.0  0.18347387011978825  0.5625326520841218  0.40765306184886274  1.0000
  C   C22       1.0  0.08531420151594743  0.5594861376446505  0.6710005422660632  1.0000
  C   C23       1.0  0.08540096823951028  0.5653833412369376  0.1445133972122563  1.0000
  C   C24       1.0  0.08703437568672001  0.8257561648330142  0.4017867587287826  1.0000
  C   C25       1.0  0.08368071606686073  0.2991115822055086  0.41372725915502073  1.0000
  O   O1        1.0  0.15988015125152913  0.5679510417748972  0.19813141625879727  1.0000
  O   O2        1.0  0.1597726272595681  0.5570673554363587  0.6172244863498302  1.0000
  O   O3        1.0  0.16116068571955333  0.7720837847471214  0.3998324511809246  1.0000
  O   O4        1.0  0.1584920258989311  0.352934621564539  0.41552334342359654  1.0000
  O   O5        1.0  0.012220922426057657  0.7719330340328707  0.3999904584928107  1.0000
  O   O6        1.0  0.010832875002678717  0.5569183364992143  0.6173824153195209  1.0000
  O   O7        1.0  0.010940398786664977  0.5678019541732058  0.19828761243452872  1.0000
  O   O8        1.0  0.00955227336140929  0.3527855247964853  0.4156796476667226  1.0000
