data_image0
_chemical_formula_structural       NC5NC4H6C6BrH5C7ONH5Zn2C4O8
_chemical_formula_sum              "N3 C26 H16 Br1 O9 Zn2"
_cell_length_a       13.854160002989762
_cell_length_b       9.276564384272257
_cell_length_c       9.273042158839658
_cell_angle_alpha    86.1127255114725
_cell_angle_beta     90.09323775389821
_cell_angle_gamma    90.58592978602583

_space_group_name_H-M_alt    "P 1"
_space_group_IT_number       1

loop_
  _space_group_symop_operation_xyz
  'x, y, z'

loop_
  _atom_site_type_symbol
  _atom_site_label
  _atom_site_symmetry_multiplicity
  _atom_site_fract_x
  _atom_site_fract_y
  _atom_site_fract_z
  _atom_site_occupancy
  N   N1        1.0  0.9178676167247478  0.5614744055172752  0.4088008893312809  1.0000
  C   C1        1.0  0.8456389706424623  0.586062523155126  0.34974219496367837  1.0000
  C   C2        1.0  0.7557855187408259  0.6166508014625143  0.2762709180688394  1.0000
  C   C3        1.0  0.6680957478680369  0.5879251673238024  0.3480081278697513  1.0000
  C   C4        1.0  0.5806431064407661  0.616650815546745  0.2762708948876973  1.0000
  C   C5        1.0  0.4905308283759424  0.5860623768134424  0.34974228669555707  1.0000
  N   N2        1.0  0.41809404569213315  0.5614743420251525  0.4088008892979629  1.0000
  C   C6        1.0  0.5809170435357361  0.6747086328488825  0.1328149347344223  1.0000
  C   C7        1.0  0.6685886809153923  0.7055831089321487  0.06097249525920767  1.0000
  C   C8        1.0  0.6688182811284908  0.7637611128693493  0.906029059816445  1.0000
  C   C9        1.0  0.7559941324575086  0.6747086305734429  0.13281484447086922  1.0000
  H   H1        1.0  0.6679082688102502  0.5428782622162243  0.4590405003273071  1.0000
  H   H2        1.0  0.5131286057682907  0.6959073910516926  0.07715541768555467  1.0000
  H   H3        1.0  0.7341115454914776  0.8316652277116409  0.882188751372469  1.0000
  H   H4        1.0  0.604403067921223  0.8316652302733857  0.882188816445951  1.0000
  H   H5        1.0  0.6681155276872606  0.6724917613177829  0.834561669940694  1.0000
  H   H6        1.0  0.8239515655211399  0.6959075026259642  0.07715533217756954  1.0000
  C   C10       1.0  0.16507778491120684  0.13799728655608745  0.4091694856146175  1.0000
  C   C11       1.0  0.15255514397236372  0.22010943544373188  0.27743391369921966  1.0000
  C   C12       1.0  0.14901687694058463  0.15374638206545277  0.14692881838173455  1.0000
  C   C13       1.0  0.15797692384276682  0.0043260839315841775  0.14568127243252782  1.0000
  C   C14       1.0  0.16879682183356826  0.9204996302991639  0.27542477995922227  1.0000
  C   C15       1.0  0.17089306303551494  0.9849404570418504  0.4084447543644827  1.0000
  Br  Br1       1.0  0.15384551327282736  0.9140826885574669  0.9666054797748065  1.0000
  H   H7        1.0  0.13704594940661208  0.40301712218808294  0.6434992048661833  1.0000
  H   H8        1.0  0.14778893582953656  0.3367398459920974  0.2749663582917683  1.0000
  H   H9        1.0  0.14022639254575606  0.2189094444042452  0.04653017552924842  1.0000
  H   H10       1.0  0.17325919586247118  0.8042269257700873  0.27231724846854277  1.0000
  H   H11       1.0  0.22440060671915435  0.6893715726079904  0.6329312597144521  1.0000
  C   C16       1.0  0.16749326428726485  0.557012046699934  0.9855460524549895  1.0000
  C   C17       1.0  0.07890239273208928  0.566195039911455  0.058218997404319905  1.0000
  C   C18       1.0  0.9921503265835907  0.5893267798777178  0.9819430381783487  1.0000
  C   C19       1.0  0.9945122973677949  0.6015337025118295  0.8304338930952055  1.0000
  C   C20       1.0  0.08150848423215848  0.5902334473673083  0.7567533290350874  1.0000
  C   C21       1.0  0.16847760840042625  0.5659256877727725  0.8320682642677792  1.0000
  C   C22       1.0  0.8999830716039736  0.5992820683048792  0.06179453506712029  1.0000
  O   O1        1.0  0.8931514695974484  0.5434766178209575  0.18921290634405089  1.0000
  N   N3        1.0  0.8183822198272517  0.6724423529602792  0.998195468691641  1.0000
  H   H12       1.0  0.4020549176195405  0.612095036815512  0.08545899017185012  1.0000
  H   H13       1.0  0.9289720128946619  0.6157919647732168  0.7677985564477484  1.0000
  H   H14       1.0  0.32653362481083925  0.5963359061083021  0.5491204691822862  1.0000
  H   H15       1.0  0.8234582054729283  0.7347150288206019  0.9004763571892385  1.0000
  H   H16       1.0  0.7531418526659097  0.6722800477374581  0.054438065222179866  1.0000
  Zn  Zn1       1.0  0.062222147371598015  0.5614706140576047  0.4088092250473423  1.0000
  Zn  Zn2       1.0  0.2737394489583082  0.5614664573962689  0.4088044010477161  1.0000
  C   C23       1.0  0.16824992230327251  0.5584959272246841  0.6720623321608288  1.0000
  C   C24       1.0  0.16771399644683027  0.5644429652185191  0.14555143379290603  1.0000
  C   C25       1.0  0.16978220142399247  0.8247897131758608  0.402838135026707  1.0000
  C   C26       1.0  0.16618163334316044  0.29814744749706734  0.41477570925542473  1.0000
  O   O2        1.0  0.24805774659909685  0.5669289806092999  0.19924887613753728  1.0000
  O   O3        1.0  0.24844290192595375  0.5560056647582392  0.6183608145311081  1.0000
  O   O4        1.0  0.24967915636278512  0.7710412804607713  0.4009603692811226  1.0000
  O   O5        1.0  0.24682141993090767  0.35189337408621113  0.4166492133093729  1.0000
  O   O6        1.0  0.08914010421852603  0.7710436973705703  0.4009644127797485  1.0000
  O   O7        1.0  0.0879038615841723  0.5560098134412225  0.6183647796954006  1.0000
  O   O8        1.0  0.08751870396147443  0.5669330607922598  0.1992511084291826  1.0000
  O   O9        1.0  0.08628237734417077  0.35189744509263643  0.41665155367323137  1.0000
