data_image0
_chemical_formula_structural       NC9NC5H8C9H10C7NC2NH7Zn2C4O8
_chemical_formula_sum              "N4 C36 H25 Zn2 O8"
_cell_length_a       17.807436237873137
_cell_length_b       9.272676604525724
_cell_length_c       9.27399911348925
_cell_angle_alpha    85.31615258212881
_cell_angle_beta     89.04204372891122
_cell_angle_gamma    88.94495835625186

_space_group_name_H-M_alt    "P 1"
_space_group_IT_number       1

loop_
  _space_group_symop_operation_xyz
  'x, y, z'

loop_
  _atom_site_type_symbol
  _atom_site_label
  _atom_site_symmetry_multiplicity
  _atom_site_fract_x
  _atom_site_fract_y
  _atom_site_fract_z
  _atom_site_occupancy
  N   N1        1.0  0.7201131716691908  0.5542699234872894  0.40298286039515574  1.0000
  C   C1        1.0  0.659367844632577  0.5153103159479111  0.3905632774330372  1.0000
  C   C2        1.0  0.5838073343680318  0.4668488547874099  0.3751146649912118  1.0000
  C   C3        1.0  0.5656808105806473  0.38856837449898585  0.25807346571133977  1.0000
  C   C4        1.0  0.49231512422221635  0.34139304423749395  0.2429814965691326  1.0000
  C   C5        1.0  0.43602525411134546  0.37207940422303754  0.34489286279213893  1.0000
  C   C6        1.0  0.3580567980738401  0.3220709675812157  0.3289457729687346  1.0000
  C   C7        1.0  0.29624592655602366  0.4125825778145773  0.35816367041754704  1.0000
  C   C8        1.0  0.2227367581867939  0.36518172345460775  0.3430859402918671  1.0000
  C   C9        1.0  0.1598895190774911  0.4586775650002635  0.3727210925026345  1.0000
  N   N2        1.0  0.10937329711930381  0.5338417427976341  0.39654691964783484  1.0000
  C   C10       1.0  0.2104535682532745  0.22698311432964702  0.29876091090767637  1.0000
  C   C11       1.0  0.2714070218083913  0.13645620629178068  0.26953362312868157  1.0000
  C   C12       1.0  0.3447952613847439  0.18342100258314642  0.28438437211008627  1.0000
  C   C13       1.0  0.4548451771288914  0.4509066008001424  0.46218006916098164  1.0000
  C   C14       1.0  0.5282632123455634  0.4978720520860658  0.47709814018076174  1.0000
  H   H1        1.0  0.6081980532176617  0.36428888849992824  0.1782641054681382  1.0000
  H   H2        1.0  0.4793899511894376  0.2825880001042129  0.1505672980710273  1.0000
  H   H3        1.0  0.30518615476412375  0.520504610291658  0.39072178207029684  1.0000
  H   H4        1.0  0.1538356866261528  0.1893001421856524  0.28682365782631813  1.0000
  H   H5        1.0  0.2617771551170897  0.029455980230957298  0.2356452641916498  1.0000
  H   H6        1.0  0.3911359427575345  0.11061799929923245  0.26290087805019824  1.0000
  H   H7        1.0  0.4130373480568433  0.4745753820289995  0.5434255837006602  1.0000
  H   H8        1.0  0.5417271219570521  0.5580419761841839  0.5683604722400277  1.0000
  C   C15       1.0  0.9126243414354722  0.12069447054148652  0.39795622381974005  1.0000
  C   C16       1.0  0.8821832137332088  0.18536473074179047  0.5179897128050767  1.0000
  C   C17       1.0  0.8586032314831368  0.10140862163228227  0.6414371092105757  1.0000
  C   C18       1.0  0.8647029200241168  0.9502733904179053  0.6490044164067337  1.0000
  C   C19       1.0  0.8939168996338429  0.8842274117283253  0.5278792420860914  1.0000
  C   C20       1.0  0.9168692320569919  0.9674056365603004  0.4015859361049796  1.0000
  C   C21       1.0  0.8383885109757092  0.8668480743229496  0.788081930848898  1.0000
  C   C22       1.0  0.800471855639716  0.7228668412281488  0.774338750651909  1.0000
  C   C23       1.0  0.8795925287304935  0.7256338427376448  0.8340989112442898  1.0000
  H   H9        1.0  0.9300454406683257  0.4206360977701799  0.1611634791465879  1.0000
  H   H10       1.0  0.8782203857868225  0.3020964155266368  0.5179164888663554  1.0000
  H   H11       1.0  0.836067612768367  0.15525941264581067  0.7324935072236005  1.0000
  H   H12       1.0  0.897495979793012  0.7676277409913908  0.5291602887380784  1.0000
  H   H13       1.0  0.9374672100139765  0.8925423094736231  0.0478524691237101  1.0000
  H   H14       1.0  0.816841149048751  0.9273218517431403  0.8793099165776489  1.0000
  H   H15       1.0  0.7973310452437606  0.6847257641482243  0.6643637039864632  1.0000
  H   H16       1.0  0.756679894901033  0.6956681171291997  0.8583263545591904  1.0000
  H   H17       1.0  0.9244901524399982  0.689045576170965  0.7605105719523193  1.0000
  H   H18       1.0  0.8820408026911549  0.7000461830445885  0.9530325530436186  1.0000
  C   C24       1.0  0.9160624900585084  0.5476717248761338  0.9759140539719611  1.0000
  C   C25       1.0  0.9746772561609127  0.4755438140650514  0.05312780849465627  1.0000
  C   C26       1.0  0.028268647304193987  0.39341314759183804  0.9832430747267785  1.0000
  C   C27       1.0  0.024682600987928845  0.3805963680250484  0.8339491576200455  1.0000
  C   C28       1.0  0.9672104651545527  0.45509960249807496  0.7551685059374518  1.0000
  C   C29       1.0  0.9134310573761056  0.5404284024473256  0.8236280462648798  1.0000
  C   C30       1.0  0.08189363867735099  0.2913479643697696  0.7619309285456839  1.0000
  N   N3        1.0  0.14453911565873212  0.237674256195153  0.8287138738237028  1.0000
  C   C31       1.0  0.18053799935525291  0.163630136006653  0.728480469737288  1.0000
  C   C32       1.0  0.13954613252063752  0.1729682264727166  0.6036475335978913  1.0000
  N   N4        1.0  0.07750556098703651  0.25322581713894765  0.6248427391965695  1.0000
  H   H19       1.0  0.8370213249101194  0.7338382319685277  0.24459323152317336  1.0000
  H   H20       1.0  0.9781011977221244  0.4796554683913665  0.16924109716284821  1.0000
  H   H21       1.0  0.07205025706563051  0.33799132655432085  0.047014854654995344  1.0000
  H   H22       1.0  0.9653329663034367  0.4512962471816431  0.6390775061389324  1.0000
  H   H23       1.0  0.7966471211205046  0.6279468396034904  0.5401523233986074  1.0000
  H   H24       1.0  0.23339620332643407  0.10597091843333883  0.7457352049927146  1.0000
  H   H25       1.0  0.15372201180796047  0.12407209851080327  0.5045101225689135  1.0000
  Zn  Zn1       1.0  0.8324451890019279  0.5483708736412474  0.40113391799436016  1.0000
  Zn  Zn2       1.0  0.9970411658392485  0.5397289394444702  0.3984076777582476  1.0000
  C   C33       1.0  0.9138979847212713  0.5360542821287768  0.6633673917295784  1.0000
  C   C34       1.0  0.9155901761826263  0.5520472544234423  0.13617432371790916  1.0000
  C   C35       1.0  0.9160808247877634  0.8074085647195686  0.395148158993331  1.0000
  C   C36       1.0  0.913407271028494  0.2806912420178025  0.40439362691167724  1.0000
  O   O1        1.0  0.9778949472098952  0.5502298635290752  0.18892451331628157  1.0000
  O   O2        1.0  0.9765177474591136  0.5313115608798176  0.608547628714547  1.0000
  O   O3        1.0  0.9782795717244271  0.7504336072014579  0.391958720957599  1.0000
  O   O4        1.0  0.9761330671667687  0.3311078313942193  0.40551331382459455  1.0000
  O   O5        1.0  0.8533532315059102  0.7569919846422002  0.3940282828507595  1.0000
  O   O6        1.0  0.8515914161597398  0.5378716710861107  0.610617121072933  1.0000
  O   O7        1.0  0.8529686210954154  0.5567899383214967  0.19099227010298914  1.0000
  O   O8        1.0  0.8512067406616044  0.3376678949505589  0.407581178782684  1.0000
