data_image0
_chemical_formula_structural       NC12NC2H8C7NH5C9H8Zn2C4O8
_chemical_formula_sum              "N3 C34 H21 Zn2 O8"
_cell_length_a       19.240039667572717
_cell_length_b       9.275154477615127
_cell_length_c       9.275155815604963
_cell_angle_alpha    86.28252252333478
_cell_angle_beta     90.35749810205114
_cell_angle_gamma    89.43370810513201

_space_group_name_H-M_alt    "P 1"
_space_group_IT_number       1

loop_
  _space_group_symop_operation_xyz
  'x, y, z'

loop_
  _atom_site_type_symbol
  _atom_site_label
  _atom_site_symmetry_multiplicity
  _atom_site_fract_x
  _atom_site_fract_y
  _atom_site_fract_z
  _atom_site_occupancy
  N   N1        1.0  0.6422609268430913  0.56425217787807  0.4164480166460891  1.0000
  C   C1        1.0  0.5821125573128961  0.5642522703335979  0.4164479260842391  1.0000
  C   C2        1.0  0.5072945191007808  0.564252399235862  0.4164477742225723  1.0000
  C   C3        1.0  0.47150145654208186  0.49366885457119825  0.5309292348107097  1.0000
  C   C4        1.0  0.3988315784555313  0.4935465780368693  0.5310247883256307  1.0000
  C   C5        1.0  0.3609622829253477  0.5642524998302201  0.4164475219504771  1.0000
  C   C6        1.0  0.3974686654363269  0.6349586310766229  0.30187047230663344  1.0000
  C   C7        1.0  0.47014022555944995  0.6348360942553382  0.3019661607293027  1.0000
  C   C8        1.0  0.2837571925865933  0.5642524115881982  0.41644741570898014  1.0000
  C   C9        1.0  0.24730486172974886  0.4389076580064653  0.46241344968462367  1.0000
  C   C10       1.0  0.1746333085883075  0.4390254690747544  0.46231257032824713  1.0000
  C   C11       1.0  0.1374249065455248  0.564252268759252  0.41644748273464294  1.0000
  C   C12       1.0  0.0626068708094942  0.5642521448531419  0.41644775819531143  1.0000
  N   N2        1.0  0.002458554859061399  0.5642521015194129  0.4164479893192059  1.0000
  C   C13       1.0  0.1731640147851036  0.6894791521242558  0.3705823367788976  1.0000
  C   C14       1.0  0.24583384475990877  0.6895971616144846  0.3704812777730391  1.0000
  H   H1        1.0  0.49974552781635717  0.4390280042468988  0.6203149797487828  1.0000
  H   H2        1.0  0.3722669390259219  0.43980242545947057  0.6216520687417255  1.0000
  H   H3        1.0  0.36984677376763914  0.688702813202827  0.21124313557865348  1.0000
  H   H4        1.0  0.4973259271853975  0.6894768358986461  0.2125807214258355  1.0000
  H   H5        1.0  0.2749711824811556  0.3402230309585714  0.4966080037461999  1.0000
  H   H6        1.0  0.1474901690047658  0.341348989618223  0.4976575048493123  1.0000
  H   H7        1.0  0.1448773310982322  0.7871556044783542  0.3352374182971556  1.0000
  H   H8        1.0  0.2723540022605243  0.7882818761385226  0.3362866743749424  1.0000
  C   C15       1.0  0.8243693813347759  0.14084849712566738  0.414780154257649  1.0000
  C   C16       1.0  0.8049145012787994  0.22293334535162423  0.2877024470683398  1.0000
  C   C17       1.0  0.7798262835299922  0.1558586480273425  0.16735623665194144  1.0000
  C   C18       1.0  0.7737815315342924  0.005783883027362656  0.17267039586450772  1.0000
  C   C19       1.0  0.7938719880922158  0.9224664173881276  0.2968514677290799  1.0000
  C   C20       1.0  0.8203568670854202  0.9876448456541179  0.4181282771778658  1.0000
  C   C21       1.0  0.7594421826050193  0.24151212024739047  0.03874691183465285  1.0000
  N   N3        1.0  0.7430590115511091  0.31036188953632543  0.9353779576637793  1.0000
  H   H9        1.0  0.8388957917405025  0.2205658973541178  0.7685625472352398  1.0000
  H   H10       1.0  0.8077402585552171  0.33985592161284717  0.2834259828736658  1.0000
  H   H11       1.0  0.7541293198843282  0.9528608669466146  0.08017677488182628  1.0000
  H   H12       1.0  0.7902219512177194  0.8059977295785986  0.29672462769319297  1.0000
  H   H13       1.0  0.8330838396146967  0.6909157361697824  0.6551725431733169  1.0000
  C   C22       1.0  0.821106931779668  0.5606021907842031  0.9932085497643252  1.0000
  C   C23       1.0  0.7664022699062867  0.6308571541228487  0.061301205277354276  1.0000
  C   C24       1.0  0.7163075496801031  0.7106945333922846  0.9803321067857342  1.0000
  C   C25       1.0  0.7199875785228635  0.7219487566143394  0.829794805748111  1.0000
  C   C26       1.0  0.7732972663224693  0.6509191270439185  0.7599907228120193  1.0000
  C   C27       1.0  0.823619298734275  0.5678910839795774  0.839699793775512  1.0000
  C   C28       1.0  0.6684719674926395  0.805154649273039  0.7465264075920386  1.0000
  C   C29       1.0  0.6253369064893041  0.8748282215074626  0.6767738458594099  1.0000
  C   C30       1.0  0.5730002628856349  0.9593653209569345  0.5921294294357073  1.0000
  H   H14       1.0  0.9829817951376646  0.44427337512683385  0.10570642669410413  1.0000
  H   H15       1.0  0.7632986451112354  0.6268603854422614  0.1780769414606329  1.0000
  H   H16       1.0  0.6750357222175969  0.7648870653574923  0.035359411405121444  1.0000
  H   H17       1.0  0.774549322564624  0.6576990453095015  0.6428712332270448  1.0000
  H   H18       1.0  0.9316563900995898  0.4843938141926798  0.5657872547089862  1.0000
  H   H19       1.0  0.5871042376786967  0.9635079540197858  0.47614681822218113  1.0000
  H   H20       1.0  0.52147890661804  0.9080220744791745  0.6069527179508074  1.0000
  H   H21       1.0  0.5707137401072924  0.07069774554374232  0.6290743444318889  1.0000
  Zn  Zn1       1.0  0.7462062336691723  0.5642483780441336  0.4164563042430385  1.0000
  Zn  Zn2       1.0  0.8985133574453741  0.5642442415373056  0.41645141794733975  1.0000
  C   C31       1.0  0.823170084822621  0.560769437064953  0.6796721480571477  1.0000
  C   C32       1.0  0.8215511612804797  0.5677250029189738  0.15323572273585362  1.0000
  C   C33       1.0  0.8210946905893711  0.8275328355916651  0.4117519366779483  1.0000
  C   C34       1.0  0.8236265119783759  0.3009598727749503  0.42115600410906917  1.0000
  O   O1        1.0  0.8795000382828915  0.5701076237323113  0.20694042465721862  1.0000
  O   O2        1.0  0.8808187945420556  0.558382585457762  0.6259633183531026  1.0000
  O   O3        1.0  0.8791421127313729  0.7737974163774917  0.40961585803698775  1.0000
  O   O4        1.0  0.8811766677518541  0.354692802197651  0.4232877769487562  1.0000
  O   O5        1.0  0.7635428713877159  0.7737998173867037  0.40961994523571454  1.0000
  O   O6        1.0  0.7652195447587761  0.5583867180872006  0.6259673355519055  1.0000
  O   O7        1.0  0.7639007836408225  0.5701116911964506  0.20694270880496468  1.0000
  O   O8        1.0  0.7655774134765289  0.3546968602796367  0.4232901691151725  1.0000
