data_image0
_chemical_formula_structural       NC9NC5H8C7OH6C6FH3Zn2C4O8
_chemical_formula_sum              "N2 C31 H17 O9 F1 Zn2"
_cell_length_a       17.807436237873137
_cell_length_b       9.274078303013077
_cell_length_c       9.275646106892307
_cell_angle_alpha    85.12816717497476
_cell_angle_beta     89.39821068290671
_cell_angle_gamma    87.81002060722456

_space_group_name_H-M_alt    "P 1"
_space_group_IT_number       1

loop_
  _space_group_symop_operation_xyz
  'x, y, z'

loop_
  _atom_site_type_symbol
  _atom_site_label
  _atom_site_symmetry_multiplicity
  _atom_site_fract_x
  _atom_site_fract_y
  _atom_site_fract_z
  _atom_site_occupancy
  N   N1        1.0  0.6988413981486774  0.5584294319776395  0.4013671870894642  1.0000
  C   C1        1.0  0.6384573057034336  0.5194763996641631  0.3889926013319205  1.0000
  C   C2        1.0  0.5633461314255065  0.4710231174007147  0.37359996045867705  1.0000
  C   C3        1.0  0.5456435058759578  0.3929504454349013  0.25665707069465027  1.0000
  C   C4        1.0  0.47271505554318477  0.345783189750023  0.2416195922531876  1.0000
  C   C5        1.0  0.4164427198181577  0.3762696845669562  0.3434876151488606  1.0000
  C   C6        1.0  0.3389379258896065  0.32626969917111426  0.3275982840625822  1.0000
  C   C7        1.0  0.2762890232597419  0.4167652634408841  0.35671161199225787  1.0000
  C   C8        1.0  0.2032194643781103  0.36937233970655364  0.341688625653926  1.0000
  C   C9        1.0  0.139504773278275  0.46285276021146404  0.37121580744981036  1.0000
  N   N2        1.0  0.08829118402439448  0.5380045379860985  0.39495483375877627  1.0000
  C   C10       1.0  0.1922167708563088  0.2311976248354568  0.29752323476312975  1.0000
  C   C11       1.0  0.2540083825663746  0.14068677488125525  0.26840053455890467  1.0000
  C   C12       1.0  0.326960767361646  0.18764390004652  0.28319705093237135  1.0000
  C   C13       1.0  0.4348339105877935  0.454888828984964  0.4606758744091165  1.0000
  C   C14       1.0  0.5078163049910711  0.5018464672113279  0.47553970630847353  1.0000
  H   H1        1.0  0.5881495778683119  0.36882735356655344  0.17688193360857427  1.0000
  H   H2        1.0  0.4600935920961046  0.287143745088877  0.1492796300366066  1.0000
  H   H3        1.0  0.2842225449434909  0.5246729815218407  0.38914523513107735  1.0000
  H   H4        1.0  0.135948533908906  0.1935208532034709  0.2856294979463818  1.0000
  H   H5        1.0  0.24537135052325876  0.03370413967571962  0.23463573876794735  1.0000
  H   H6        1.0  0.3739821350110543  0.11484953908990381  0.26179749428584365  1.0000
  H   H7        1.0  0.3930482615707399  0.478397872889609  0.5418877312687249  1.0000
  H   H8        1.0  0.5209586467107035  0.5618539150404561  0.5667263617963001  1.0000
  C   C15       1.0  0.8958093719216638  0.12464570029489845  0.39682989446130645  1.0000
  C   C16       1.0  0.8812450836860981  0.21026124235133462  0.2667839678542778  1.0000
  C   C17       1.0  0.8601892848480299  0.14759822374014897  0.1417747776096785  1.0000
  C   C18       1.0  0.8534980702078778  0.9972538536603939  0.14673482844587382  1.0000
  C   C19       1.0  0.8689072926476294  0.9105640038996  0.27408077431393174  1.0000
  C   C20       1.0  0.8913304623903382  0.9717766725257299  0.39950454087449994  1.0000
  C   C21       1.0  0.844672490004499  0.24076010637282463  0.007708240540969414  1.0000
  O   O1        1.0  0.8253290752866228  0.18769448020098367  0.8937502340784791  1.0000
  H   H9        1.0  0.8935913074728629  0.19760571353913856  0.7522155534104811  1.0000
  H   H10       1.0  0.8846055330987285  0.32698376416012215  0.26361574568921475  1.0000
  H   H11       1.0  0.8370349636775682  0.9462803594256805  0.05172534277107132  1.0000
  H   H12       1.0  0.8649900246794981  0.7943405213268033  0.27337321700120665  1.0000
  H   H13       1.0  0.8931265804133188  0.670250339476204  0.6381636978088527  1.0000
  H   H14       1.0  0.8498597298788214  0.35681879333363886  0.006106264972409959  1.0000
  C   C22       1.0  0.8934585823590261  0.5527303789408937  0.9743424486704145  1.0000
  C   C23       1.0  0.9621856329514283  0.5641970797242342  0.045317992954131185  1.0000
  C   C24       1.0  0.03005282104137908  0.5621690072286535  0.9687594428470931  1.0000
  C   C25       1.0  0.030385623659419537  0.5484938457858999  0.8203357651452898  1.0000
  C   C26       1.0  0.9628234286772643  0.5393703907965526  0.747416466308731  1.0000
  C   C27       1.0  0.8936812095485843  0.5436920383188338  0.8219919446929098  1.0000
  F   F1        1.0  0.09579251359715624  0.5717401009766979  0.03915223246356648  1.0000
  H   H15       1.0  0.7198261646134201  0.44468430704623585  0.08999443672628282  1.0000
  H   H16       1.0  0.08307916224359624  0.5463335647767369  0.7611546549300252  1.0000
  H   H17       1.0  0.7760982172664884  0.4769165403903308  0.5488581883379708  1.0000
  Zn  Zn1       1.0  0.8112282151225949  0.5525313110183632  0.39952505521132475  1.0000
  Zn  Zn2       1.0  0.9759044141345594  0.5438907747929775  0.3968087936991817  1.0000
  C   C28       1.0  0.8936678553382308  0.5396543524533632  0.6617499269818983  1.0000
  C   C29       1.0  0.8934665625927343  0.5567694574416742  0.13458403966978927  1.0000
  C   C30       1.0  0.8921716820783739  0.8117124325244132  0.39324771082035337  1.0000
  C   C31       1.0  0.8949626888428016  0.28470964653354813  0.40308632823340435  1.0000
  O   O2        1.0  0.955963033410491  0.554839677906957  0.18733175447856798  1.0000
  O   O3        1.0  0.9561568148667201  0.5350250812132591  0.6069402136355024  1.0000
  O   O4        1.0  0.9549477939861243  0.7547154497157869  0.39012279301850533  1.0000
  O   O5        1.0  0.9571719980152756  0.3351493238250123  0.4041490678401309  1.0000
  O   O6        1.0  0.8299605750459635  0.7612727649365703  0.3921847819897156  1.0000
  O   O7        1.0  0.8311695867404343  0.5415841302213604  0.6090021311239828  1.0000
  O   O8        1.0  0.8309758051441393  0.561398695150898  0.18939193658415543  1.0000
  O   O9        1.0  0.8321847698288203  0.34170832959861164  0.40620935812049275  1.0000
