data_image0
_chemical_formula_structural       NC6NC3H6C6NH5C7NH4Zn2C4O8
_chemical_formula_sum              "N4 C26 H15 Zn2 O8"
_cell_length_a       14.934028789175542
_cell_length_b       9.274771166103582
_cell_length_c       9.275157849593905
_cell_angle_alpha    86.00874675488272
_cell_angle_beta     89.71635168279133
_cell_angle_gamma    90.55950156128424

_space_group_name_H-M_alt    "P 1"
_space_group_IT_number       1

loop_
  _space_group_symop_operation_xyz
  'x, y, z'

loop_
  _atom_site_type_symbol
  _atom_site_label
  _atom_site_symmetry_multiplicity
  _atom_site_fract_x
  _atom_site_fract_y
  _atom_site_fract_z
  _atom_site_occupancy
  N   N1        1.0  0.8577723093736648  0.5624488515516299  0.4069822345799008  1.0000
  C   C1        1.0  0.7802809871154931  0.5613439153443989  0.4063055926030245  1.0000
  C   C2        1.0  0.683877852137293  0.5599642962419717  0.40546093152949814  1.0000
  C   C3        1.0  0.6366294315203463  0.6674089228703584  0.4711367237158753  1.0000
  C   C4        1.0  0.5431124060278912  0.6663011945839119  0.4704594931184838  1.0000
  C   C5        1.0  0.495931513937372  0.5578036735655485  0.4041401869858452  1.0000
  C   C6        1.0  0.39929688247016637  0.5601316099066309  0.4055644288560721  1.0000
  N   N2        1.0  0.3218256001186278  0.5619791240536238  0.40669507260139537  1.0000
  C   C7        1.0  0.5431672523069204  0.4488725686843577  0.3375552298169293  1.0000
  C   C8        1.0  0.49428654509319525  0.3309132221793538  0.2654535889755556  1.0000
  C   C9        1.0  0.6373207549735689  0.4511106264214735  0.3389233001817096  1.0000
  H   H1        1.0  0.6720788021432  0.7520653277952718  0.522883745125778  1.0000
  H   H2        1.0  0.5074787120217908  0.7503056210548207  0.5218078477742357  1.0000
  H   H3        1.0  0.45209802323644027  0.3791406272556137  0.17678044804956783  1.0000
  H   H4        1.0  0.4509147910973697  0.26882534899167565  0.345661112296346  1.0000
  H   H5        1.0  0.5413797937121775  0.25450918403861955  0.21874501489380974  1.0000
  H   H6        1.0  0.6744528555961156  0.3682237119827325  0.28825831694765136  1.0000
  C   C10       1.0  0.08705203513966198  0.13862777476845367  0.40762584257192924  1.0000
  C   C11       1.0  0.06680088309795403  0.2207153805878006  0.27876612998915373  1.0000
  C   C12       1.0  0.05491226279559468  0.15442850645365236  0.14908360370180684  1.0000
  C   C13       1.0  0.06332431651325574  0.004667452956553796  0.1473214034074437  1.0000
  C   C14       1.0  0.0819245269305009  0.9212450336671716  0.274411809823373  1.0000
  C   C15       1.0  0.09255438495586049  0.985789228189694  0.406063955014892  1.0000
  N   N3        1.0  0.03521514550204419  0.23960140302077848  0.018807167605751084  1.0000
  H   H7        1.0  0.18695927350559705  0.22122564539163614  0.7229540461368851  1.0000
  H   H8        1.0  0.054601025496944434  0.9522276787691453  0.04754352086096225  1.0000
  H   H9        1.0  0.15621077505700054  0.6907258620960208  0.6206014518624698  1.0000
  H   H10       1.0  0.029045874091033985  0.35168109822501403  0.01876417864204494  1.0000
  H   H11       1.0  0.026569645689236795  0.1912015917795737  0.9213992085652496  1.0000
  C   C16       1.0  0.09096487358228833  0.5581300023222004  0.983653895414577  1.0000
  C   C17       1.0  0.16844894537971977  0.6050755559419358  0.05321546778411747  1.0000
  C   C18       1.0  0.24141338483039154  0.6633682438926178  0.9731847731310435  1.0000
  C   C19       1.0  0.23774596249548952  0.6756424230257396  0.8225055219149329  1.0000
  C   C20       1.0  0.16209525934644142  0.6275269549994904  0.7516034219607259  1.0000
  C   C21       1.0  0.08864155764320106  0.5662869252877056  0.830035901985561  1.0000
  C   C22       1.0  0.3197881271819681  0.7123217100840729  0.04604969088248547  1.0000
  N   N4        1.0  0.3827813476433189  0.7516670959260625  0.10462080602898041  1.0000
  H   H12       1.0  0.8727812522968887  0.5097155193045424  0.09171600017154669  1.0000
  H   H13       1.0  0.29380065687199775  0.721212833812662  0.7595640968915367  1.0000
  H   H14       1.0  0.16194642519997995  0.6351107616856144  0.6345251228373138  1.0000
  H   H15       1.0  0.9426387868826859  0.5276328171325018  0.5527911364442186  1.0000
  Zn  Zn1       1.0  0.9916880305610929  0.562309513147917  0.4069076886138452  1.0000
  Zn  Zn2       1.0  0.18790979991076343  0.5621067602401738  0.4067814224378048  1.0000
  C   C23       1.0  0.08904137224188412  0.5589987222607928  0.6700621505010922  1.0000
  C   C24       1.0  0.09055861239836255  0.5654193702903119  0.14362709726097056  1.0000
  C   C25       1.0  0.09152546772051663  0.8256023092532336  0.400616466329022  1.0000
  C   C26       1.0  0.08807443849599149  0.2988140510802684  0.4130728615028712  1.0000
  O   O1        1.0  0.16488736541085947  0.5677825121617863  0.19726765942043567  1.0000
  O   O2        1.0  0.16364039597411884  0.5564806034484324  0.6163253423987674  1.0000
  O   O3        1.0  0.1656453265497674  0.7717663870860032  0.3987460439375947  1.0000
  O   O4        1.0  0.16288236824164137  0.35249673787069025  0.41484684985260034  1.0000
  O   O5        1.0  0.016715395269387028  0.7719195355880872  0.39884226123455546  1.0000
  O   O6        1.0  0.014710476156648325  0.5566354842388062  0.6164214796614031  1.0000
  O   O7        1.0  0.015957450082575868  0.5679373259882075  0.19736206414708257  1.0000
  O   O8        1.0  0.013952452546098549  0.3526515424213239  0.41494136264376014  1.0000
