data_image0
_chemical_formula_structural       NC8NC6H8C13OH11C12NCOH10Zn2C4O8
_chemical_formula_sum              "N3 C44 H29 O10 Zn2"
_cell_length_a       17.457602349358154
_cell_length_b       10.299150109392551
_cell_length_c       10.299148425239204
_cell_angle_alpha    85.51660845067315
_cell_angle_beta     92.86184502014838
_cell_angle_gamma    91.67070309183428

_space_group_name_H-M_alt    "P 1"
_space_group_IT_number       1

loop_
  _space_group_symop_operation_xyz
  'x, y, z'

loop_
  _atom_site_type_symbol
  _atom_site_label
  _atom_site_symmetry_multiplicity
  _atom_site_fract_x
  _atom_site_fract_y
  _atom_site_fract_z
  _atom_site_occupancy
  N   N1        1.0  0.7223572667370255  0.4535022730367353  0.6258726956840768  1.0000
  C   C1        1.0  0.6612896444967461  0.4075784358835934  0.6152737221293878  1.0000
  C   C2        1.0  0.5853189368706968  0.3504548932420901  0.6020981393996709  1.0000
  C   C3        1.0  0.5267713700477037  0.39058815386707746  0.6769851332642927  1.0000
  C   C4        1.0  0.45223825072654616  0.3355827582351212  0.6644232235189212  1.0000
  C   C5        1.0  0.3900986937575517  0.37795747103942845  0.743731438671468  1.0000
  C   C6        1.0  0.3155569609884577  0.3964503766728855  0.6879575661988813  1.0000
  C   C7        1.0  0.2570094098641763  0.4363996545424751  0.762952589920025  1.0000
  C   C8        1.0  0.1810297419213364  0.45549937826035813  0.7049628932067494  1.0000
  N   N2        1.0  0.11995500658908852  0.47084917594547326  0.6583393305221992  1.0000
  C   C9        1.0  0.2725113058246995  0.45809897215009937  0.8942299423544613  1.0000
  C   C10       1.0  0.34626820223972254  0.43999491725862816  0.9503912890478717  1.0000
  C   C11       1.0  0.4048040451028904  0.4002255146098534  0.8758539461017008  1.0000
  C   C12       1.0  0.4375416891413619  0.23976723565669888  0.5755415701925547  1.0000
  C   C13       1.0  0.4960774245080888  0.19991250657350546  0.501054498273177  1.0000
  C   C14       1.0  0.5698256737125594  0.2550300557156402  0.5141663484829178  1.0000
  H   H1        1.0  0.5390910813134071  0.46575967275108066  0.7435913935741367  1.0000
  H   H2        1.0  0.3032302244722481  0.3815216943265848  0.585932592070135  1.0000
  H   H3        1.0  0.22763558345459192  0.4889592348678759  0.9530576373264908  1.0000
  H   H4        1.0  0.3580809889012672  0.45648151940010256  0.05204239021142955  1.0000
  H   H5        1.0  0.46128552966310904  0.38521346107668014  0.9219688612955054  1.0000
  H   H6        1.0  0.38106723860970787  0.19443312092608922  0.5649062542587557  1.0000
  H   H7        1.0  0.484271492596246  0.12585802370761678  0.43324942154203794  1.0000
  H   H8        1.0  0.6147015275658121  0.22329982386278635  0.45585013869922486  1.0000
  C   C15       1.0  0.9212320893173541  0.08077931746094767  0.6422563514882107  1.0000
  C   C16       1.0  0.9197982276952907  0.06885504298858702  0.778959299180934  1.0000
  C   C17       1.0  0.9190045152552332  0.9456717829578238  0.8480014352788692  1.0000
  C   C18       1.0  0.9196503667909367  0.8335934000086291  0.7785838056069638  1.0000
  C   C19       1.0  0.9210875164414813  0.843562375412994  0.6419675312512009  1.0000
  C   C20       1.0  0.9218720891496743  0.9676151388362135  0.5746023514190346  1.0000
  C   C21       1.0  0.9174809767384933  0.934038749644372  0.9925269803485639  1.0000
  C   C22       1.0  0.87029592333023  0.8390712560709442  0.05670002753697068  1.0000
  C   C23       1.0  0.8688368577981559  0.8282048837137131  0.19269634550669423  1.0000
  C   C24       1.0  0.9150396623460005  0.9111671352141358  0.2670192167921548  1.0000
  C   C25       1.0  0.9614906303967927  0.007055965584346954  0.20342884170414444  1.0000
  C   C26       1.0  0.962967504574056  0.01809891207154135  0.06743368920178072  1.0000
  C   C27       1.0  0.9118586908363329  0.9017744613117489  0.41285567347884033  1.0000
  O   O1        1.0  0.8545115103707369  0.9824309353424001  0.44841626873990525  1.0000
  H   H9        1.0  0.923440142522043  0.31055803426808976  0.3841824315408986  1.0000
  H   H10       1.0  0.9182318586571953  0.1555364599456117  0.8318435763557868  1.0000
  H   H11       1.0  0.9200800925710331  0.7384660041225167  0.8314560033060066  1.0000
  H   H12       1.0  0.9229784348004895  0.9760206217152229  0.4692259538583124  1.0000
  H   H13       1.0  0.8336141327979155  0.7744856120712229  0.001592465889863728  1.0000
  H   H14       1.0  0.8315092188272433  0.7552240729889969  0.24002727029320053  1.0000
  H   H15       1.0  0.9967591502751072  0.07313258492051665  0.25916725642661154  1.0000
  H   H16       1.0  0.00032072641744917816  0.09152590986216147  0.020911551552326713  1.0000
  H   H17       1.0  0.9682848512036552  0.9320474393304372  0.45763600121381376  1.0000
  H   H18       1.0  0.8993853322710487  0.7991919853548975  0.44965228994854983  1.0000
  H   H19       1.0  0.8547810452048522  0.9727220701056833  0.5450715297663261  1.0000
  C   C28       1.0  0.9212174771217574  0.46232923864319897  0.2607203699720657  1.0000
  C   C29       1.0  0.9990491238408148  0.5012867412558486  0.2630935211479408  1.0000
  C   C30       1.0  0.03838957534412171  0.5208194745476973  0.14715475155057156  1.0000
  C   C31       1.0  0.9988874571961115  0.5009395100112753  0.02782328849233463  1.0000
  C   C32       1.0  0.921102118264295  0.46201250373697794  0.023503452174664877  1.0000
  C   C33       1.0  0.8827234739407429  0.4429266343930578  0.1404949981779493  1.0000
  C   C34       1.0  0.12067976423664173  0.5620055480294468  0.15075414666667108  1.0000
  C   C35       1.0  0.17224268221030692  0.5068796298989497  0.07138741629520284  1.0000
  C   C36       1.0  0.2496405606731056  0.5457726532526843  0.07492047870441267  1.0000
  C   C37       1.0  0.2772879973233946  0.6392592853514718  0.1586535559689739  1.0000
  C   C38       1.0  0.22564859198386336  0.6962282306469921  0.23644497337242742  1.0000
  C   C39       1.0  0.14821602264863204  0.6574403709067602  0.23300588070930917  1.0000
  N   N3        1.0  0.35695662805219697  0.6789450501597902  0.1586105064409069  1.0000
  C   C40       1.0  0.40107895606527877  0.7175460607950098  0.2709301809128224  1.0000
  O   O2        1.0  0.3751230167982512  0.702249939030617  0.383176017100167  1.0000
  H   H20       1.0  0.7744362838398549  0.38804025767061323  0.4636042905552263  1.0000
  H   H21       1.0  0.029485322133452778  0.514811047065166  0.3555008242447264  1.0000
  H   H22       1.0  0.02865108987445787  0.5176309939957511  0.938015209125112  1.0000
  H   H23       1.0  0.8227265956016341  0.41289776496116704  0.1378781706220047  1.0000
  H   H24       1.0  0.15291423455607545  0.43252065230379694  0.007662969120034275  1.0000
  H   H25       1.0  0.28841359035263914  0.5019226810557205  0.013148194606269701  1.0000
  H   H26       1.0  0.24454126909936447  0.7727329079649718  0.29772644199125886  1.0000
  H   H27       1.0  0.10953301391130732  0.7039607386002915  0.2928919731566517  1.0000
  H   H28       1.0  0.38646494366478196  0.6712924372911817  0.0738402395315243  1.0000
  H   H29       1.0  0.45867701212918033  0.75710176971771  0.259796139817023  1.0000
  Zn  Zn1       1.0  0.8370953854328597  0.4585047284338312  0.6352493654131113  1.0000
  Zn  Zn2       1.0  0.0052168740536424636  0.46583606754175877  0.648973297984272  1.0000
  C   C41       1.0  0.9211231993659562  0.45689824398156825  0.8793229663971294  1.0000
  C   C42       1.0  0.9211908956720999  0.4674442707373849  0.4048999737186503  1.0000
  C   C43       1.0  0.9211116768997855  0.6993821561964921  0.636846304611804  1.0000
  C   C44       1.0  0.9212023610554387  0.224958795576413  0.6473767006545801  1.0000
  O   O3        1.0  0.9849832045277861  0.4719374610665558  0.45849612886643  1.0000
  O   O4        1.0  0.9849312105492399  0.4579683907614362  0.8361425850234623  1.0000
  O   O5        1.0  0.9849210457367856  0.6537771784363879  0.640340894348308  1.0000
  O   O6        1.0  0.9849933119847295  0.27612868022124587  0.654297717474567  1.0000
  O   O7        1.0  0.8573188901301602  0.6482121132539346  0.62992494123268  1.0000
  O   O8        1.0  0.857329054653834  0.4524048860246214  0.8257265620670926  1.0000
  O   O9        1.0  0.8573810489281154  0.46637391172111337  0.4480785444379632  1.0000
  O   O10       1.0  0.857391156368957  0.2705651215457521  0.6438802304229807  1.0000
