data_image0
_chemical_formula_structural       NC9NC5H8C6NCOH7C7OH5Zn2C4O8
_chemical_formula_sum              "N3 C32 H20 O10 Zn2"
_cell_length_a       17.807436237873137
_cell_length_b       10.29961932979008
_cell_length_c       9.274081674992354
_cell_angle_alpha    86.07708878693475
_cell_angle_beta     89.07685020002327
_cell_angle_gamma    88.41592915749165

_space_group_name_H-M_alt    "P 1"
_space_group_IT_number       1

loop_
  _space_group_symop_operation_xyz
  'x, y, z'

loop_
  _atom_site_type_symbol
  _atom_site_label
  _atom_site_symmetry_multiplicity
  _atom_site_fract_x
  _atom_site_fract_y
  _atom_site_fract_z
  _atom_site_occupancy
  N   N1        1.0  0.7125677065573364  0.3746368597108489  0.39867444396241924  1.0000
  C   C1        1.0  0.6520076331009605  0.3393475563026802  0.3864348032610594  1.0000
  C   C2        1.0  0.576677557886863  0.2954515489694909  0.37121001920065977  1.0000
  C   C3        1.0  0.5589164428202577  0.22308426126173342  0.2546566887468338  1.0000
  C   C4        1.0  0.4857750719894888  0.18035237439755145  0.23978268093046795  1.0000
  C   C5        1.0  0.4293461071182418  0.2096099563579494  0.34142594272631954  1.0000
  C   C6        1.0  0.3516154416306649  0.16431262630287602  0.3257098335935069  1.0000
  C   C7        1.0  0.2893742128858641  0.24630310972155156  0.3545091861739247  1.0000
  C   C8        1.0  0.2160904387905958  0.20336831185927903  0.3396503408522944  1.0000
  C   C9        1.0  0.1527986128537219  0.28805341258752715  0.3688538975353446  1.0000
  N   N2        1.0  0.10192497398404529  0.35613438464447644  0.3923327501125251  1.0000
  C   C10       1.0  0.2044643655556054  0.07818482416679862  0.29596397796015994  1.0000
  C   C11       1.0  0.2658482487449186  0.996180412484537  0.26715531189676645  1.0000
  C   C12       1.0  0.3390131609988246  0.03871883622898631  0.28178931076442604  1.0000
  C   C13       1.0  0.44779802707901256  0.2824735936315994  0.45822265677292506  1.0000
  C   C14       1.0  0.5209927368264441  0.32501367577470036  0.47292388259438684  1.0000
  H   H1        1.0  0.6015438002365364  0.19994832781588337  0.1750583257668319  1.0000
  H   H2        1.0  0.4731240649986871  0.12591809167565304  0.14774113546977818  1.0000
  H   H3        1.0  0.2978011334439174  0.3440287436521927  0.386571370975882  1.0000
  H   H4        1.0  0.14802567266458058  0.044053083003603874  0.28420066738409755  1.0000
  H   H5        1.0  0.2567271862830014  0.8992639684499637  0.2337608500578985  1.0000
  H   H6        1.0  0.3857001495237946  0.9728018253655658  0.26063970523880364  1.0000
  H   H7        1.0  0.4058831078533028  0.30508223745048224  0.5392577576840292  1.0000
  H   H8        1.0  0.5341758729021265  0.38065907028097246  0.5638094345037936  1.0000
  C   C15       1.0  0.9071503934325159  0.9840214085483485  0.3954676614234156  1.0000
  C   C16       1.0  0.8713171486292168  0.9927306511736438  0.2611505726130743  1.0000
  C   C17       1.0  0.8543853805678536  0.8803292598984427  0.1924559361409588  1.0000
  C   C18       1.0  0.8715405579043489  0.757562469863277  0.26125789297931723  1.0000
  C   C19       1.0  0.9073493948536322  0.7467396691454469  0.3955519591511516  1.0000
  C   C20       1.0  0.9252187548356022  0.8605782684580863  0.46162090624848523  1.0000
  N   N3        1.0  0.8166715382623453  0.8930977009499169  0.05603663394988257  1.0000
  C   C21       1.0  0.8288239512230086  0.806929625668604  0.942427359849118  1.0000
  O   O1        1.0  0.8815502738474523  0.7227483796648124  0.9476280257011127  1.0000
  H   H9        1.0  0.9740268866225016  0.17483460567456688  0.6495544710338645  1.0000
  H   H10       1.0  0.8569162326449048  0.08709224817175865  0.2085568335488721  1.0000
  H   H11       1.0  0.8556245574892557  0.6705243753279208  0.21165862046183825  1.0000
  H   H12       1.0  0.9528510607757471  0.8529883927110412  0.56515621575205  1.0000
  H   H13       1.0  0.9200834000068894  0.4151230844802367  0.44813619684753525  1.0000
  H   H14       1.0  0.7819659155551227  0.9751606941215196  0.03325784167996892  1.0000
  H   H15       1.0  0.7934415975847517  0.8167201904876044  0.8483523552872518  1.0000
  C   C22       1.0  0.9085169435878572  0.36191591882538104  0.972219038442018  1.0000
  C   C23       1.0  0.9695481117684002  0.4155357678017877  0.039757555500115276  1.0000
  C   C24       1.0  0.026327210917577826  0.47893844390537965  0.9583573981411925  1.0000
  C   C25       1.0  0.02205999452438712  0.48907418440347916  0.8073053382522315  1.0000
  C   C26       1.0  0.9626029689469003  0.43463904457134767  0.7385382701396397  1.0000
  C   C27       1.0  0.9059828765838246  0.3688451138828704  0.818800507405824  1.0000
  C   C28       1.0  0.08911084792459212  0.5350602729650054  0.03278651865111848  1.0000
  O   O2        1.0  0.14083062683009825  0.5931085362329795  0.9626113491770809  1.0000
  H   H16       1.0  0.7304871862550227  0.28601354425051295  0.08647780656874306  1.0000
  H   H17       1.0  0.06509000605826397  0.5380351944259136  0.7420024764333357  1.0000
  H   H18       1.0  0.9619078621858188  0.4413820554467367  0.6214766022889742  1.0000
  H   H19       1.0  0.7873063428366539  0.31235003578953724  0.5456419683132729  1.0000
  H   H20       1.0  0.09129894321251442  0.5267000994494475  0.14965712203732418  1.0000
  Zn  Zn1       1.0  0.8249277763062292  0.3692940480726865  0.39685270413612783  1.0000
  Zn  Zn2       1.0  0.9895648478042809  0.3614667072354041  0.3941663390039494  1.0000
  C   C29       1.0  0.9064588387447718  0.3623618226879053  0.6587779724991496  1.0000
  C   C30       1.0  0.9080355832015404  0.36840048690277016  0.13224118296509224  1.0000
  C   C31       1.0  0.9073251282178529  0.6025228237288065  0.38979201167317457  1.0000
  C   C32       1.0  0.9071692369121492  0.12823792887890284  0.4012272213850163  1.0000
  O   O3        1.0  0.9703529434003738  0.3676006664616296  0.18492661429387702  1.0000
  O   O4        1.0  0.9690972073568282  0.35721988943948224  0.6040532371441336  1.0000
  O   O5        1.0  0.969795900330048  0.551152987341027  0.3868451845490739  1.0000
  O   O6        1.0  0.9696541945736094  0.1736675796365159  0.4021345597280941  1.0000
  O   O7        1.0  0.8448383733543715  0.5570931783440141  0.3888844843211252  1.0000
  O   O8        1.0  0.8441396810149323  0.36316164009787383  0.6060924602313789  1.0000
  O   O9        1.0  0.8453954222841341  0.37354235767747324  0.1869641043382113  1.0000
  O   O10       1.0  0.8446966731283847  0.1796092624483672  0.40417215784241356  1.0000
