data_image0
_chemical_formula_structural       NC6NC2H4C6ClH5C8H10Zn2C4O8
_chemical_formula_sum              "N2 C26 H19 Cl1 Zn2 O8"
_cell_length_a       14.927258858638513
_cell_length_b       9.276545438789551
_cell_length_c       9.275657083861812
_cell_angle_alpha    85.88220868425292
_cell_angle_beta     89.50283401398404
_cell_angle_gamma    89.40960950127158

_space_group_name_H-M_alt    "P 1"
_space_group_IT_number       1

loop_
  _space_group_symop_operation_xyz
  'x, y, z'

loop_
  _atom_site_type_symbol
  _atom_site_label
  _atom_site_symmetry_multiplicity
  _atom_site_fract_x
  _atom_site_fract_y
  _atom_site_fract_z
  _atom_site_occupancy
  N   N1        1.0  0.842084281221986  0.5698985511053609  0.41083447022046266  1.0000
  C   C1        1.0  0.7645577901795079  0.5698985226532389  0.4108344807923887  1.0000
  C   C2        1.0  0.6681252821683884  0.5698986374825838  0.41083443100009553  1.0000
  C   C3        1.0  0.6219119024848118  0.5455599851190897  0.28413503849607613  1.0000
  C   C4        1.0  0.5282005917010224  0.5455600100668105  0.28413490505346006  1.0000
  C   C5        1.0  0.48030921921300207  0.569898460048027  0.41083444952495185  1.0000
  C   C6        1.0  0.3838766442103601  0.5698985748803052  0.410834399726736  1.0000
  N   N2        1.0  0.30635015316788167  0.5698985464281834  0.4108344102986615  1.0000
  C   C7        1.0  0.5265225319050557  0.5942371124144546  0.5375338420230484  1.0000
  C   C8        1.0  0.6202338426888451  0.5942370874667338  0.537533975465665  1.0000
  H   H1        1.0  0.6582608853482854  0.526623140687748  0.18555563951438933  1.0000
  H   H2        1.0  0.4931572285985506  0.5266233381779526  0.1855556346952789  1.0000
  H   H3        1.0  0.49017361550918165  0.6131739470844065  0.6361133490834345  1.0000
  H   H4        1.0  0.6552772045687523  0.6131738572385441  0.636113355909607  1.0000
  C   C9        1.0  0.07692649606378257  0.1464621762748306  0.4105968174210385  1.0000
  C   C10       1.0  0.07797877460594399  0.22943044549064973  0.2775423544440272  1.0000
  C   C11       1.0  0.07086529351754403  0.1636827250581736  0.1473838461339696  1.0000
  C   C12       1.0  0.06252530088998932  0.014096170780856012  0.1482773440934566  1.0000
  C   C13       1.0  0.06286823353374826  0.9295769460478588  0.2788895906249307  1.0000
  C   C14       1.0  0.07151655145866243  0.993323908616693  0.4110845577900417  1.0000
  Cl  Cl1       1.0  0.0710533202969839  0.26945909293045167  0.9828104625275711  1.0000
  H   H5        1.0  0.12152858610394701  0.4105849274773086  0.637236230156697  1.0000
  H   H6        1.0  0.08219172686086075  0.34613635601190884  0.2746882846814096  1.0000
  H   H7        1.0  0.05663010606886344  0.9628575125938333  0.047578950130121804  1.0000
  H   H8        1.0  0.05850278048036197  0.8133028697334066  0.2762388204901709  1.0000
  H   H9        1.0  0.04023642786445516  0.6957852576950251  0.644186253378507  1.0000
  C   C15       1.0  0.07651731644130384  0.5677193325010732  0.9875195495894515  1.0000
  C   C16       1.0  0.12222050014949568  0.677637607222203  0.05252322877717664  1.0000
  C   C17       1.0  0.15997404653112215  0.7937273943813792  0.9688514965839494  1.0000
  C   C18       1.0  0.15336025889184868  0.798915165765967  0.81821559833182  1.0000
  C   C19       1.0  0.1095878400531898  0.6896424838660096  0.7517596869394532  1.0000
  C   C20       1.0  0.07192570543800274  0.5720666959603087  0.8341618401829896  1.0000
  C   C21       1.0  0.20978247679337003  0.9093579142949748  0.04011798319242632  1.0000
  C   C22       1.0  0.30844526782409054  0.8682119863378802  0.057938891816285754  1.0000
  H   H10       1.0  0.03777510022057774  0.3376864703895015  0.2852141280871358  1.0000
  H   H11       1.0  0.12686944742406303  0.674964299623724  0.16924671469864583  1.0000
  H   H12       1.0  0.1829985607502279  0.8870457234734134  0.7518801193350418  1.0000
  H   H13       1.0  0.1072466231116092  0.6952617982517422  0.6347886030440186  1.0000
  H   H14       1.0  0.9672148012912292  0.4058823427222142  0.5662317479241911  1.0000
  H   H15       1.0  0.2042076602638059  0.014038196369084323  0.9743379611600593  1.0000
  H   H16       1.0  0.17988222908625515  0.9256885892969928  0.14800388551186483  1.0000
  H   H17       1.0  0.31547794651597116  0.7656345068530241  0.12662800135716035  1.0000
  H   H18       1.0  0.34005575713004293  0.8549411532885127  0.9507564332322462  1.0000
  H   H19       1.0  0.3439182392017015  0.9547698320987774  0.11055534624564545  1.0000
  Zn  Zn1       1.0  0.9760613706592959  0.569894728745528  0.410842780305386  1.0000
  Zn  Zn2       1.0  0.17237308593268844  0.5698906185544098  0.41083791859198415  1.0000
  C   C23       1.0  0.07282831823598636  0.5655005948666438  0.67412498736429  1.0000
  C   C24       1.0  0.075608269683894  0.5742865724849184  0.14755585401611457  1.0000
  C   C25       1.0  0.07256567165400686  0.8332194845787511  0.40524789101942127  1.0000
  C   C26       1.0  0.07587085992869505  0.30656595075474624  0.4164330262200815  1.0000
  O   O1        1.0  0.1498024983336521  0.576482747710302  0.20126365111353417  1.0000
  O   O2        1.0  0.14763014833445198  0.5633002101782243  0.6204130847417039  1.0000
  O   O3        1.0  0.14741704548289203  0.7794866071060124  0.4032929279815154  1.0000
  O   O4        1.0  0.15001553471761342  0.3602963605439038  0.4183836997950232  1.0000
  O   O5        1.0  0.9984188548828484  0.779488986758968  0.40329699909642436  1.0000
  O   O6        1.0  0.9986319470800642  0.5633043218521782  0.6204170799915925  1.0000
  O   O7        1.0  0.0008043068593210907  0.5764868002367416  0.20126591317302234  1.0000
  O   O8        1.0  0.0010173427193582718  0.36030040331188684  0.4183860699272885  1.0000
