data_image0
_chemical_formula_structural       NC8NH4C7NH3C8H8Zn2C4O8
_chemical_formula_sum              "N3 C27 H15 Zn2 O8"
_cell_length_a       14.927258825633057
_cell_length_b       9.275154477615127
_cell_length_c       9.275657083861812
_cell_angle_alpha    86.07548322511155
_cell_angle_beta     89.50283437808949
_cell_angle_gamma    89.43370909507247

_space_group_name_H-M_alt    "P 1"
_space_group_IT_number       1

loop_
  _space_group_symop_operation_xyz
  'x, y, z'

loop_
  _atom_site_type_symbol
  _atom_site_label
  _atom_site_symmetry_multiplicity
  _atom_site_fract_x
  _atom_site_fract_y
  _atom_site_fract_z
  _atom_site_occupancy
  N   N1        1.0  0.8424683634750765  0.5697557807868362  0.4161381685872968  1.0000
  C   C1        1.0  0.7649419392381475  0.5697557543905103  0.4161381781355821  1.0000
  C   C2        1.0  0.6685092971954066  0.5697557543836599  0.4161382332215068  1.0000
  C   C3        1.0  0.6224878476618282  0.4809993718131351  0.32604021604819655  1.0000
  C   C4        1.0  0.5287765368137551  0.4809992818547923  0.32604018722473627  1.0000
  C   C5        1.0  0.48069329993615423  0.5697558069643396  0.4161381456049662  1.0000
  C   C6        1.0  0.5267147499960435  0.6585121992924335  0.5062360547384679  1.0000
  C   C7        1.0  0.6204261278356386  0.6585122892478412  0.5062360835678414  1.0000
  C   C8        1.0  0.38426065909203116  0.5697557090834369  0.41613809027444537  1.0000
  N   N2        1.0  0.30673423418279516  0.5697557903187327  0.41613810219936753  1.0000
  H   H1        1.0  0.6589860512008023  0.41194170130854846  0.255938920147174  1.0000
  H   H2        1.0  0.4938823949364556  0.4119416781388346  0.25593901729391816  1.0000
  H   H3        1.0  0.4902165464570694  0.7275698697970201  0.5763373506394904  1.0000
  H   H4        1.0  0.6553202021951053  0.7275698832091644  0.5763373615325555  1.0000
  C   C9        1.0  0.07720698390171574  0.14635790201783516  0.4144699965508396  1.0000
  C   C10       1.0  0.053306485648076496  0.2288844041484823  0.2873674179790311  1.0000
  C   C11       1.0  0.02208281037099203  0.16222796546213591  0.1669976530413102  1.0000
  C   C12       1.0  0.014242461591502444  0.012134731094297413  0.17231285169882415  1.0000
  C   C13       1.0  0.038988956612917125  0.9283856787319561  0.29651822812180256  1.0000
  C   C14       1.0  0.07200420956626452  0.9931426141343103  0.41781877434222325  1.0000
  C   C15       1.0  0.9969987861415561  0.2483284146471656  0.03836315701259551  1.0000
  N   N3        1.0  0.9768382033438662  0.31753743892383907  0.9349739716353221  1.0000
  H   H5        1.0  0.09265839465988357  0.22484574336011298  0.7683216274292859  1.0000
  H   H6        1.0  0.9897677667432018  0.959533173034363  0.07980112755309654  1.0000
  H   H7        1.0  0.08621594537911048  0.6955896653121302  0.6549094319761124  1.0000
  C   C16       1.0  0.07690086608345403  0.5675767541172914  0.9928158885859406  1.0000
  C   C17       1.0  0.12263094172713274  0.6774850329599396  0.05819091222974082  1.0000
  C   C18       1.0  0.16041288990460223  0.7935642632872084  0.9749113740102743  1.0000
  C   C19       1.0  0.15380037145362002  0.798751563132706  0.8242930018568786  1.0000
  C   C20       1.0  0.1100012186301198  0.689488818357456  0.7574679270790141  1.0000
  C   C21       1.0  0.0723103186648377  0.5719237224005492  0.8394728660989583  1.0000
  C   C22       1.0  0.21024960962944195  0.9091842678095061  0.04656850316587756  1.0000
  C   C23       1.0  0.30890233441540377  0.8680420785591694  0.06425040706954331  1.0000
  H   H8        1.0  0.12727923497984972  0.6748119683171001  0.1749053668019187  1.0000
  H   H9        1.0  0.18346023478119244  0.8868741065047353  0.7582552602911785  1.0000
  H   H10       1.0  0.9675587567843411  0.40575448277685733  0.5709813413981997  1.0000
  H   H11       1.0  0.20470040342661885  0.013855031646148307  0.9811421291281374  1.0000
  H   H12       1.0  0.18035335720106938  0.925513458686322  0.15450957608441818  1.0000
  H   H13       1.0  0.3159099172407629  0.765473926069147  0.13259297266521308  1.0000
  H   H14       1.0  0.3405095770459167  0.8547724513638492  0.9570231151658768  1.0000
  H   H15       1.0  0.34439648250706645  0.9545920528337051  0.11715928580733004  1.0000
  Zn  Zn1       1.0  0.9764454522865933  0.5697519552212462  0.41614646737200434  1.0000
  Zn  Zn2       1.0  0.1727571670077077  0.5697478401973148  0.41614159413650764  1.0000
  C   C24       1.0  0.07321132504891546  0.5653582183264292  0.6794138306137485  1.0000
  C   C25       1.0  0.0759934260185684  0.574143396978205  0.15287437952662028  1.0000
  C   C26       1.0  0.07301417668194898  0.8330527648597583  0.4114411860360431  1.0000
  C   C27       1.0  0.07619051762461271  0.30644711858430185  0.4208470941120358  1.0000
  O   O1        1.0  0.15018819214038737  0.5763393705416524  0.20658959699594104  1.0000
  O   O2        1.0  0.14801261698950086  0.5631580317310568  0.6256944951921011  1.0000
  O   O3        1.0  0.14785240477678774  0.7793247712334457  0.40930469469831204  1.0000
  O   O4        1.0  0.15034833788788957  0.3601726407997681  0.422979289444007  1.0000
  O   O5        1.0  0.9988542144148899  0.7793271546217282  0.4093087720585913  1.0000
  O   O6        1.0  0.999014416397003  0.5631621469828487  0.6256985025387565  1.0000
  O   O7        1.0  0.0011900013134757946  0.5763434266513077  0.2065918709523742  1.0000
  O   O8        1.0  0.0013501465346668058  0.3601766871518539  0.42298167144025034  1.0000
