data_image0
_chemical_formula_structural       NC10NC3NCH9C7OC3OC4H12C7OC4NC3H9Zn2C4O8
_chemical_formula_sum              "N4 C46 H30 O11 Zn2"
_cell_length_a       19.437513618241372
_cell_length_b       10.299371110280156
_cell_length_c       10.299375074045738
_cell_angle_alpha    85.55741756906849
_cell_angle_beta     90.34040482055526
_cell_angle_gamma    89.53521497268402

_space_group_name_H-M_alt    "P 1"
_space_group_IT_number       1

loop_
  _space_group_symop_operation_xyz
  'x, y, z'

loop_
  _atom_site_type_symbol
  _atom_site_label
  _atom_site_symmetry_multiplicity
  _atom_site_fract_x
  _atom_site_fract_y
  _atom_site_fract_z
  _atom_site_occupancy
  N   N1        1.0  0.648103651319537  0.4110244434033343  0.5761361940462422  1.0000
  C   C1        1.0  0.5891724638939242  0.42803572212543634  0.573166965066318  1.0000
  C   C2        1.0  0.515734675456748  0.4492897466986268  0.5694814298291977  1.0000
  C   C3        1.0  0.4739600949446038  0.34810531103810327  0.557780426864277  1.0000
  C   C4        1.0  0.398071516700683  0.3581732176345464  0.5505628391112964  1.0000
  C   C5        1.0  0.3585058463280378  0.43899241041111053  0.6163413008940795  1.0000
  C   C6        1.0  0.2823227289419821  0.43038791673419863  0.607893303457596  1.0000
  C   C7        1.0  0.24917191766695124  0.3090416897378696  0.6124875210263223  1.0000
  C   C8        1.0  0.17743658543475477  0.3026731323748273  0.6053165371774238  1.0000
  C   C9        1.0  0.1378813737930639  0.41717795802897156  0.5939133919687407  1.0000
  C   C10       1.0  0.0640315296794533  0.41047129676795246  0.586574171325229  1.0000
  N   N2        1.0  0.0046613531059409  0.40507973097326966  0.5806738965948497  1.0000
  C   C11       1.0  0.17031553836021773  0.5382132825141615  0.5900643587382493  1.0000
  C   C12       1.0  0.2420353057049974  0.5448358023059896  0.5972974702477349  1.0000
  C   C13       1.0  0.38719974445544375  0.5312365493462623  0.7063029699823671  1.0000
  N   N3        1.0  0.44419310335642453  0.5944579817271021  0.6859235510038131  1.0000
  C   C14       1.0  0.488034052050509  0.5852480090019312  0.5728069846730905  1.0000
  H   H1        1.0  0.4963321895971258  0.2530550288079392  0.5456199786304052  1.0000
  H   H2        1.0  0.3733492258480106  0.2886877380609132  0.4922137173638587  1.0000
  H   H3        1.0  0.2786107087300746  0.21912531608884556  0.6234722886711614  1.0000
  H   H4        1.0  0.15283101653582093  0.208445598738088  0.6091655431963694  1.0000
  H   H5        1.0  0.1401913537918053  0.6274737035812394  0.5813915793844506  1.0000
  H   H6        1.0  0.26615940542104094  0.6394761404235572  0.593433171712342  1.0000
  H   H7        1.0  0.35719810207024477  0.5515837752856898  0.7906818225051242  1.0000
  H   H8        1.0  0.5307955127483807  0.6555574713395049  0.5785992653327567  1.0000
  H   H9        1.0  0.4583716138323185  0.6133977262141244  0.48216865532211955  1.0000
  C   C15       1.0  0.8263394222436776  0.02668142321865763  0.5782897081777589  1.0000
  C   C16       1.0  0.8184207843524813  0.03615432002509911  0.4421994391499557  1.0000
  C   C17       1.0  0.8136496832644051  0.9237581593696437  0.3737175772031371  1.0000
  C   C18       1.0  0.8184549149508338  0.800885747879505  0.44251096952260927  1.0000
  C   C19       1.0  0.8264321811134068  0.7894126029831302  0.5785317486996833  1.0000
  C   C20       1.0  0.8301481430326989  0.9029116401144212  0.6456694364730811  1.0000
  C   C21       1.0  0.8060056616132203  0.9336209448381017  0.2298686373162386  1.0000
  O   O1        1.0  0.8342123078257057  0.8481371113301532  0.16620260248027896  1.0000
  C   C22       1.0  0.7663549660927127  0.04037914056513969  0.15825089155434324  1.0000
  C   C23       1.0  0.7855935951974716  0.08526849277282689  0.031349076340760666  1.0000
  C   C24       1.0  0.7483844834347522  0.18492947584891464  0.9614924979970474  1.0000
  O   O2        1.0  0.770358099797431  0.22642017416102456  0.8356702338983744  1.0000
  C   C25       1.0  0.7375681744478191  0.32648404834904676  0.7538153182211906  1.0000
  C   C26       1.0  0.6906672585474753  0.23972753593499307  0.019247934271547026  1.0000
  C   C27       1.0  0.6707223793893277  0.19456071817337528  0.14462365351024897  1.0000
  C   C28       1.0  0.7080536313001257  0.09517929573643502  0.2137295844120821  1.0000
  H   H10       1.0  0.8423326256682772  0.21612711170494658  0.8348944772667559  1.0000
  H   H11       1.0  0.8167205098272406  0.13113800808388087  0.3891463738838796  1.0000
  H   H12       1.0  0.8152949277191532  0.7140988690758792  0.3897466054144978  1.0000
  H   H13       1.0  0.8362532754506697  0.8948049221668604  0.7505850678836192  1.0000
  H   H14       1.0  0.8300689689855957  0.45754834704336966  0.6306665776040861  1.0000
  H   H15       1.0  0.8300800478196423  0.043648640230904645  0.9865409286367618  1.0000
  H   H16       1.0  0.7656395712302264  0.33914419933940954  0.6602986567038771  1.0000
  H   H17       1.0  0.7385788606104529  0.4199053551790972  0.8008487563476057  1.0000
  H   H18       1.0  0.683651847411203  0.2991574405278081  0.7333642948214338  1.0000
  H   H19       1.0  0.6607861128285113  0.3167450291301565  0.9679775417274348  1.0000
  H   H20       1.0  0.6259759782077248  0.23634679115081814  0.1882067213888936  1.0000
  H   H21       1.0  0.6908848339627831  0.06027929141493038  0.30989287023578016  1.0000
  C   C29       1.0  0.8264092024647618  0.40818897338896964  0.19702430127242396  1.0000
  C   C30       1.0  0.8793786391015502  0.5004171501994319  0.18928431493530273  1.0000
  C   C31       1.0  0.905560591847228  0.5480236302141932  0.0681165893062361  1.0000
  C   C32       1.0  0.879267217357895  0.5001812712517946  0.9540575056474457  1.0000
  C   C33       1.0  0.8263623713780258  0.4079050686603425  0.959797171450738  1.0000
  C   C34       1.0  0.8001161635545416  0.36269622795564493  0.0817611101316813  1.0000
  C   C35       1.0  0.9619865550550918  0.6444021230147188  0.05988787646401427  1.0000
  O   O3        1.0  0.00595229133521191  0.6389840590327145  0.9708109918874309  1.0000
  C   C36       1.0  0.9685259183394331  0.7469390180899653  0.15263001073807667  1.0000
  C   C37       1.0  0.033956694374638996  0.7924093254340474  0.18523397639077754  1.0000
  C   C38       1.0  0.040635518525288454  0.890310191951344  0.27156665639059185  1.0000
  C   C39       1.0  0.10782791768369625  0.9355417992322317  0.3052240842547269  1.0000
  N   N4        1.0  0.161843036099891  0.9718972986250243  0.33227710128989374  1.0000
  C   C40       1.0  0.981890084753914  0.9441409282289452  0.32502915038119373  1.0000
  C   C41       1.0  0.9166887490857127  0.9006784541048463  0.2919277866499841  1.0000
  C   C42       1.0  0.9098731271274658  0.8030498540323239  0.20586900972176458  1.0000
  H   H22       1.0  0.7271730170843841  0.23266789636723195  0.4190741932948405  1.0000
  H   H23       1.0  0.9008621103462031  0.5342604167439411  0.2777517742893645  1.0000
  H   H24       1.0  0.8997503928893062  0.5360757713274311  0.8605844664802529  1.0000
  H   H25       1.0  0.7592808268341302  0.29159436946227424  0.08692425794089485  1.0000
  H   H26       1.0  0.8064353610126521  0.37165040493618845  0.6346119036651308  1.0000
  H   H27       1.0  0.07969015224631848  0.7509265372106706  0.14442248320139092  1.0000
  H   H28       1.0  0.9864888732994627  0.019942564270824647  0.39179082930010106  1.0000
  H   H29       1.0  0.871298178483269  0.9431342274808323  0.33259513396193685  1.0000
  H   H30       1.0  0.8587669567522024  0.7725082578366467  0.17990537795938333  1.0000
  Zn  Zn1       1.0  0.7509985066083321  0.4093054357825434  0.5774531851738045  1.0000
  Zn  Zn2       1.0  0.9017665020746368  0.4067880650267852  0.5793675724439109  1.0000
  C   C43       1.0  0.8263690765858325  0.40278503550887734  0.8156150770142332  1.0000
  C   C44       1.0  0.8263975786704011  0.41331007639011114  0.3412058295007858  1.0000
  C   C45       1.0  0.8264114182070552  0.6452421508880859  0.5733105289034817  1.0000
  C   C46       1.0  0.8263551854086092  0.1708514015347555  0.5835104457049967  1.0000
  O   O4        1.0  0.8836093454752952  0.41406777049063104  0.39032096568303637  1.0000
  O   O5        1.0  0.8835867297097197  0.4001157356651277  0.7679525423000164  1.0000
  O   O6        1.0  0.8836201497268884  0.5959029349981733  0.572289895990481  1.0000
  O   O7        1.0  0.8835758740183279  0.2182805813431039  0.5859835139631329  1.0000
  O   O8        1.0  0.769189083214924  0.5978129203266964  0.5708372429944653  1.0000
  O   O9        1.0  0.7691556633886073  0.40202728133026877  0.7664998205504248  1.0000
  O   O10       1.0  0.7691782792902602  0.4159792714800816  0.3888666824473179  1.0000
  O   O11       1.0  0.7691448078233744  0.22019207300750707  0.5845293280967361  1.0000
