data_image0
_chemical_formula_structural       NC9NC3NH7C12H10C7NC2NH8Zn2C4O8
_chemical_formula_sum              "N5 C37 H25 Zn2 O8"
_cell_length_a       16.053384444249904
_cell_length_b       10.299137764757564
_cell_length_c       9.27399911348925
_cell_angle_alpha    85.04301149889446
_cell_angle_beta     89.45501548333611
_cell_angle_gamma    89.19348198390439

_space_group_name_H-M_alt    "P 1"
_space_group_IT_number       1

loop_
  _space_group_symop_operation_xyz
  'x, y, z'

loop_
  _atom_site_type_symbol
  _atom_site_label
  _atom_site_symmetry_multiplicity
  _atom_site_fract_x
  _atom_site_fract_y
  _atom_site_fract_z
  _atom_site_occupancy
  N   N1        1.0  0.7901673629136423  0.4164446249075153  0.4040690004381886  1.0000
  C   C1        1.0  0.7396942505840016  0.39627651088351046  0.32089279537331006  1.0000
  C   C2        1.0  0.6769698322429157  0.3712172379561802  0.2175676745471964  1.0000
  C   C3        1.0  0.6910846005010585  0.36026619071189514  0.07227790835807424  1.0000
  C   C4        1.0  0.6146550231772426  0.33538785130606485  0.014214138871061264  1.0000
  C   C5        1.0  0.5571702960267153  0.33254621677259205  0.12721100274569122  1.0000
  C   C6        1.0  0.466552113772893  0.3088114277830176  0.11583229710728048  1.0000
  C   C7        1.0  0.4103058686664959  0.3507174378820983  0.22018198721944485  1.0000
  C   C8        1.0  0.3247901851181457  0.32820803444459945  0.20928324892578964  1.0000
  C   C9        1.0  0.2677551601466663  0.371838575491133  0.31626834603283593  1.0000
  N   N2        1.0  0.2219157193936487  0.4069113908136472  0.4022676095396658  1.0000
  C   C10       1.0  0.2947946411092467  0.2636805101705908  0.09405010190730678  1.0000
  C   C11       1.0  0.35003154952126936  0.22189229747148095  0.9899356096146446  1.0000
  C   C12       1.0  0.4353427497962151  0.24423938308050538  0.0003936579984284941  1.0000
  N   N3        1.0  0.5959369911913439  0.3545579531605978  0.251182139854588  1.0000
  H   H1        1.0  0.7500182786150089  0.3693470890134172  0.014909390772502858  1.0000
  H   H2        1.0  0.6027787836091862  0.3224860601371738  0.901775067452713  1.0000
  H   H3        1.0  0.4323292851885352  0.40249183429469815  0.30884781173097475  1.0000
  H   H4        1.0  0.2288008998608225  0.2457852021868443  0.08468541885123715  1.0000
  H   H5        1.0  0.32671903222245946  0.17176180173859823  0.9010092382743018  1.0000
  H   H6        1.0  0.4767347716266231  0.20942423620398226  0.9190013402135938  1.0000
  H   H7        1.0  0.5694187164914881  0.3561257857434454  0.3542721461938434  1.0000
  C   C13       1.0  0.005964800359495203  0.03027858734637689  0.4033259606881867  1.0000
  C   C14       1.0  0.006444033893070024  0.04131258481071898  0.2513446113878095  1.0000
  C   C15       1.0  0.00676990118258658  0.9297749192586393  0.17412801895060048  1.0000
  C   C16       1.0  0.006610007403618834  0.8060568417987631  0.25094701405189546  1.0000
  C   C17       1.0  0.006126183462417551  0.7930671970004749  0.4030230977256226  1.0000
  C   C18       1.0  0.005807955231525105  0.9057028265197963  0.47827632108502455  1.0000
  C   C19       1.0  0.007275896295978022  0.9424927337698953  0.013346771062619833  1.0000
  C   C20       1.0  0.0577840791315527  0.859671579708162  0.9354895458413593  1.0000
  C   C21       1.0  0.058156829102978806  0.8718954403752022  0.7841478002016219  1.0000
  C   C22       1.0  0.008236198851661712  0.9665762494444533  0.708951506528814  1.0000
  C   C23       1.0  0.9578386713654133  0.049295239151262674  0.7849443321287963  1.0000
  C   C24       1.0  0.9572564449378806  0.037570893004582835  0.9362879270891997  1.0000
  H   H8        1.0  0.0057379392606269385  0.35351105808307504  0.46178821517390545  1.0000
  H   H9        1.0  0.007717864005189367  0.1368711773019664  0.19265732398667645  1.0000
  H   H10       1.0  0.005711830430395581  0.7197699810382955  0.19199485826954368  1.0000
  H   H11       1.0  0.005436030723418475  0.8964765719356751  0.5955030327952759  1.0000
  H   H12       1.0  0.004683259072165712  0.5612700544236486  0.6900609388263936  1.0000
  H   H13       1.0  0.09774696360083879  0.7866838376466332  0.9915825471202352  1.0000
  H   H14       1.0  0.09736124503821464  0.8080823844847387  0.7251328631147702  1.0000
  H   H15       1.0  0.00860587302988236  0.9758451118147565  0.5918022966388047  1.0000
  H   H16       1.0  0.9190047710462427  0.1223978468588307  0.7265475502818473  1.0000
  H   H17       1.0  0.9169379363804359  0.10163404083514105  0.993009811506393  1.0000
  C   C25       1.0  0.007485009915828117  0.4149651518859576  0.9793158101972429  1.0000
  C   C26       1.0  0.07286835903096689  0.3513298263287299  0.05755217407587998  1.0000
  C   C27       1.0  0.1327351411184764  0.278569880871861  0.9886785246080826  1.0000
  C   C28       1.0  0.12882749122288417  0.2669432173240236  0.8394030746502279  1.0000
  C   C29       1.0  0.0646984179286536  0.33274419346198947  0.7596019645034398  1.0000
  C   C30       1.0  0.004605980588894271  0.40838063787410056  0.8270331876701373  1.0000
  C   C31       1.0  0.19274620092047545  0.1878542891357895  0.7684716061422521  1.0000
  N   N4        1.0  0.2625000101200272  0.140933777929092  0.8362373653007116  1.0000
  C   C32       1.0  0.30281558410757037  0.07505716893264758  0.7367719025247755  1.0000
  C   C33       1.0  0.25731082090214996  0.08253479021895302  0.6114171228575978  1.0000
  N   N5        1.0  0.18808505601411363  0.15341504191891614  0.6315115436914289  1.0000
  H   H18       1.0  0.918839227870458  0.5808576666770948  0.24619790433366998  1.0000
  H   H19       1.0  0.07664298980419448  0.35511148252525127  0.173686045650997  1.0000
  H   H20       1.0  0.1815807679885979  0.2296449783812908  0.05322140478880888  1.0000
  H   H21       1.0  0.06263693520372059  0.3292754737356309  0.6435069619426308  1.0000
  H   H22       1.0  0.8746379875884674  0.4845541147461119  0.5417842762046998  1.0000
  H   H23       1.0  0.36173798110648536  0.024323663946815382  0.7549140850295404  1.0000
  H   H24       1.0  0.2732925224843743  0.03881357751717895  0.5126749468605523  1.0000
  H   H25       1.0  0.14095895148427773  0.17414199638242667  0.5559949684169498  1.0000
  Zn  Zn1       1.0  0.9147605810309835  0.413690010990303  0.4035574869567822  1.0000
  Zn  Zn2       1.0  0.09732243551319453  0.4096553318570519  0.4027909240453354  1.0000
  C   C34       1.0  0.005147224766697491  0.4044511993785999  0.6667985484769855  1.0000
  C   C35       1.0  0.006937785212846046  0.41889573705992755  0.13954999517157574  1.0000
  C   C36       1.0  0.006110930601660013  0.648928684821998  0.39732859137193804  1.0000
  C   C37       1.0  0.005974016490780444  0.17441669196867937  0.40902003011057086  1.0000
  O   O1        1.0  0.07603540275161369  0.4186780714536959  0.1930351470262741  1.0000
  O   O2        1.0  0.07460983178997305  0.401605660305576  0.6127311780009295  1.0000
  O   O3        1.0  0.0753870973975948  0.5990243306239218  0.3951322844793395  1.0000
  O   O4        1.0  0.07525807521751404  0.22125941264368532  0.41063393258219216  1.0000
  O   O5        1.0  0.936824879027289  0.6020859315819802  0.3957144786739233  1.0000
  O   O6        1.0  0.9360476140073956  0.4046688222897954  0.6133132946155628  1.0000
  O   O7        1.0  0.9374731909085281  0.42174120165628665  0.1936155282962304  1.0000
  O   O8        1.0  0.9366958630015315  0.2243225327162519  0.4112144220718186  1.0000
