data_image0
_chemical_formula_structural       NC9NC5H8C12NH11C12SCH11Zn2C4O8
_chemical_formula_sum              "N3 C43 H30 S1 Zn2 O8"
_cell_length_a       17.807436237873137
_cell_length_b       10.299770795358612
_cell_length_c       10.299780138516091
_cell_angle_alpha    85.57228714023373
_cell_angle_beta     89.38476460054898
_cell_angle_gamma    88.40764042794568

_space_group_name_H-M_alt    "P 1"
_space_group_IT_number       1

loop_
  _space_group_symop_operation_xyz
  'x, y, z'

loop_
  _atom_site_type_symbol
  _atom_site_label
  _atom_site_symmetry_multiplicity
  _atom_site_fract_x
  _atom_site_fract_y
  _atom_site_fract_z
  _atom_site_occupancy
  N   N1        1.0  0.7077737778094711  0.38732266994824044  0.5570629204618347  1.0000
  C   C1        1.0  0.647180852046643  0.3521301463600354  0.5460426713314703  1.0000
  C   C2        1.0  0.5718099121258967  0.3083545226148099  0.5323346779742513  1.0000
  C   C3        1.0  0.5537141369017777  0.23690988766320076  0.4273427113539612  1.0000
  C   C4        1.0  0.48053283023789617  0.1942956113830392  0.41395051844468544  1.0000
  C   C5        1.0  0.4243985155624713  0.22274843521030663  0.5055178762985131  1.0000
  C   C6        1.0  0.3466256653439597  0.1775753737510679  0.49136750390707123  1.0000
  C   C7        1.0  0.2844618230488372  0.2593381341998171  0.517297879734635  1.0000
  C   C8        1.0  0.2111381742273294  0.2165208260425766  0.5039193859011193  1.0000
  C   C9        1.0  0.147924693112104  0.3009750138523195  0.5302134039701878  1.0000
  N   N2        1.0  0.09711404160445779  0.36887033828966387  0.5513530685734471  1.0000
  C   C10       1.0  0.1993947788665529  0.09168277301886675  0.4645851910775043  1.0000
  C   C11       1.0  0.2607012495384153  0.009906158000759117  0.43864642716421276  1.0000
  C   C12       1.0  0.3339054121643692  0.052328870928166626  0.4518224270158311  1.0000
  C   C13       1.0  0.4431857659398409  0.2946874944515607  0.6107290183523104  1.0000
  C   C14       1.0  0.5164199224053805  0.33711133343892263  0.6239655843285126  1.0000
  H   H1        1.0  0.5961107678570002  0.21440417148611068  0.3556349827075409  1.0000
  H   H2        1.0  0.4676173193241678  0.14058995350855236  0.3310384015483465  1.0000
  H   H3        1.0  0.2929743641481271  0.35681027103206037  0.546164813346673  1.0000
  H   H4        1.0  0.142924530039942  0.05764404443075288  0.45399385827677285  1.0000
  H   H5        1.0  0.2514906057438312  0.9132537641142427  0.4085790571417441  1.0000
  H   H6        1.0  0.3805360419098088  0.9865790719082091  0.43278082541160634  1.0000
  H   H7        1.0  0.4015058159447257  0.31665454189412623  0.6837312409259633  1.0000
  H   H8        1.0  0.5298640835733279  0.39203726183382903  0.7058360061442472  1.0000
  C   C15       1.0  0.9023794171801359  0.996731047402201  0.5542485529251393  1.0000
  C   C16       1.0  0.8805850382110973  0.006902434814056947  0.42316366791440085  1.0000
  C   C17       1.0  0.8696105646432369  0.8949169235667959  0.3567058190269021  1.0000
  C   C18       1.0  0.8807225496561664  0.7716142850095885  0.42309310149103146  1.0000
  C   C19       1.0  0.9025155690614184  0.7594516703734507  0.5541785569628921  1.0000
  C   C20       1.0  0.9132223269370466  0.8725703769819031  0.6190220912842701  1.0000
  C   C21       1.0  0.84655370555598  0.9067310506760503  0.21802561416950583  1.0000
  C   C22       1.0  0.7918543577841739  0.0004887013927192762  0.17364266607198098  1.0000
  C   C23       1.0  0.7701854546330674  0.011477405553220524  0.04311532402236517  1.0000
  C   C24       1.0  0.8028058079663232  0.9291467562898063  0.9548968986977613  1.0000
  C   C25       1.0  0.8573249511511386  0.8355954783929104  0.9983919707050921  1.0000
  C   C26       1.0  0.8790540379144112  0.8243478877386556  0.12888845847054542  1.0000
  N   N3        1.0  0.780609318609768  0.9405196839453623  0.8213929223311442  1.0000
  H   H9        1.0  0.9106521329837994  0.3203090553047767  0.6042155715525712  1.0000
  H   H10       1.0  0.8730893736567403  0.1021486107951719  0.371923656869515  1.0000
  H   H11       1.0  0.8713410187695022  0.6850158555997276  0.3728208083582363  1.0000
  H   H12       1.0  0.9300351320360982  0.8639556032645194  0.7201482834457373  1.0000
  H   H13       1.0  0.9108523831555231  0.42736315742726994  0.6041130155666716  1.0000
  H   H14       1.0  0.7651250181301829  0.06418513340845067  0.24023492024222803  1.0000
  H   H15       1.0  0.7278328236782802  0.08395660668249594  0.010826346665136818  1.0000
  H   H16       1.0  0.8831252566736677  0.7715973290321784  0.9311240989678482  1.0000
  H   H17       1.0  0.9219827077238908  0.7523512545319276  0.15972951002059976  1.0000
  H   H18       1.0  0.8046063965241483  0.8795685425400331  0.7549043466754561  1.0000
  H   H19       1.0  0.7400151734637573  0.00997523809623168  0.7880550342006463  1.0000
  C   C27       1.0  0.9024776721610323  0.37797862046153025  0.17286102727148767  1.0000
  C   C28       1.0  0.8310366756524319  0.3233530065058414  0.17740832008262664  1.0000
  C   C29       1.0  0.7948072541760095  0.29578944696534193  0.06256597825331656  1.0000
  C   C30       1.0  0.8309752112205717  0.32358135822057577  0.9421053049027872  1.0000
  C   C31       1.0  0.9024173273662643  0.3782040956332629  0.9355661576262504  1.0000
  C   C32       1.0  0.9377684688826803  0.4050976361078713  0.05147291447873049  1.0000
  C   C33       1.0  0.7192276434452961  0.23801520227370052  0.06843945568704313  1.0000
  C   C34       1.0  0.6635964586659664  0.28231270093209454  0.9782951200648475  1.0000
  C   C35       1.0  0.5924773914699124  0.22790470287079592  0.984059506553947  1.0000
  C   C36       1.0  0.5759523158066868  0.1288782089728704  0.07987347351178209  1.0000
  C   C37       1.0  0.6309147504255528  0.0838134730512361  0.16962203730420566  1.0000
  C   C38       1.0  0.7020802641511315  0.13804584020747468  0.16421939303089927  1.0000
  S   S1        1.0  0.4847275672338283  0.0589306067451123  0.08681931665013054  1.0000
  C   C39       1.0  0.4462221575580529  0.17497062884495884  0.19610279542088582  1.0000
  H   H20       1.0  0.929710909053341  0.3987454393475045  0.49858515367813205  1.0000
  H   H21       1.0  0.8029569586639491  0.3037615195992045  0.27037132937623065  1.0000
  H   H22       1.0  0.8037282805417154  0.3008713218190262  0.8534348195794365  1.0000
  H   H23       1.0  0.9928823311720124  0.44723818017212724  0.04719649708405016  1.0000
  H   H24       1.0  0.6747816150346022  0.3601503073473553  0.9044458491724273  1.0000
  H   H25       1.0  0.5501542763681189  0.2632437882280443  0.9143459162565083  1.0000
  H   H26       1.0  0.618581493143143  0.006726253329201183  0.24361294805733058  1.0000
  H   H27       1.0  0.7439988159501622  0.1006749428951008  0.23383828398506412  1.0000
  H   H28       1.0  0.47798864824949217  0.1674349977811056  0.28865157631332217  1.0000
  H   H29       1.0  0.3865996107979074  0.15266764662468502  0.2177517666245239  1.0000
  H   H30       1.0  0.4491440668670542  0.2755540281570408  0.14945967849870057  1.0000
  Zn  Zn1       1.0  0.8201289653222658  0.38199426259086494  0.5554226913343177  1.0000
  Zn  Zn2       1.0  0.9847588331599008  0.3741881627294317  0.5530039748256543  1.0000
  C   C40       1.0  0.9024261268308741  0.3729879202798605  0.7913990332041563  1.0000
  C   C41       1.0  0.9024634696867601  0.38319605843979293  0.31702773385421423  1.0000
  C   C42       1.0  0.9024863804758431  0.6152798835099118  0.5490169334922135  1.0000
  C   C43       1.0  0.90240315958111  0.14090253760610105  0.5594099037702469  1.0000
  O   O1        1.0  0.9649348790638561  0.38197903838390723  0.3644935077723086  1.0000
  O   O2        1.0  0.9649049777213898  0.3682793113380517  0.7420971356811308  1.0000
  O   O3        1.0  0.9649527909861153  0.5639331761798083  0.5463718875201102  1.0000
  O   O4        1.0  0.9648870096314718  0.18632518546719298  0.5602186593873317  1.0000
  O   O5        1.0  0.840000732670601  0.5698572425183533  0.5482080075911988  1.0000
  O   O6        1.0  0.8399529196864634  0.3742049379454879  0.7439331863666878  1.0000
  O   O7        1.0  0.8399828211943642  0.3879046192718821  0.3663279971275901  1.0000
  O   O8        1.0  0.8399349517495455  0.19225075709537554  0.5620532461071694  1.0000
