data_image0
_chemical_formula_structural       NC9NC4H8C9H10C7OCH10Zn2C4O8
_chemical_formula_sum              "N2 C34 H28 O9 Zn2"
_cell_length_a       16.32274767691083
_cell_length_b       9.27267660452572
_cell_length_c       10.300835455316061
_cell_angle_alpha    85.82006583043875
_cell_angle_beta     89.48565492192432
_cell_angle_gamma    90.07922574154927

_space_group_name_H-M_alt    "P 1"
_space_group_IT_number       1

loop_
  _space_group_symop_operation_xyz
  'x, y, z'

loop_
  _atom_site_type_symbol
  _atom_site_label
  _atom_site_symmetry_multiplicity
  _atom_site_fract_x
  _atom_site_fract_y
  _atom_site_fract_z
  _atom_site_occupancy
  N   N1        1.0  0.7797924608854134  0.5675501377013161  0.5631172365637358  1.0000
  C   C1        1.0  0.7271662075526203  0.5148639515100925  0.5086287864711232  1.0000
  C   C2        1.0  0.6617515103338818  0.44942729807447357  0.4409536957927842  1.0000
  C   C3        1.0  0.672810395472298  0.35992163271459954  0.3483819232458476  1.0000
  C   C4        1.0  0.5932037729596249  0.3162423940238535  0.3032099622444844  1.0000
  C   C5        1.0  0.5346234654412978  0.38016595440452594  0.369325580488934  1.0000
  C   C6        1.0  0.444592759758769  0.3632715326853817  0.35185534476761565  1.0000
  C   C7        1.0  0.3894079545541236  0.43777856915813085  0.4289099753641261  1.0000
  C   C8        1.0  0.3046197694595687  0.42333978440357894  0.4139788058061986  1.0000
  C   C9        1.0  0.24903567714863512  0.500137304049201  0.4934014699954079  1.0000
  N   N2        1.0  0.20436493856024593  0.5618698724395039  0.5572438416632148  1.0000
  C   C10       1.0  0.2739626864771716  0.33427346253267204  0.3218690117595817  1.0000
  C   C11       1.0  0.3278261179149949  0.2598651161437753  0.2449167868903177  1.0000
  C   C12       1.0  0.41245336098219115  0.27391498674241466  0.25944562316902364  1.0000
  C   C13       1.0  0.5728917920080873  0.4733735613487034  0.46572349072774527  1.0000
  H   H1        1.0  0.731525893930825  0.32511709968844144  0.31238286870139165  1.0000
  H   H2        1.0  0.584504918019333  0.2430895252409895  0.22755098321292747  1.0000
  H   H3        1.0  0.4119039635919289  0.5073098484182983  0.5008173043827735  1.0000
  H   H4        1.0  0.20850531263587213  0.3223788951284415  0.3095690496294257  1.0000
  H   H5        1.0  0.3039375386737947  0.19096401269854124  0.1736614254039719  1.0000
  H   H6        1.0  0.4519062623629965  0.21439309936105855  0.19788919097033597  1.0000
  H   H7        1.0  0.5559246076530975  0.4348157074670234  0.5670623770901915  1.0000
  H   H8        1.0  0.5567411151238795  0.5889174923521405  0.44400797055219954  1.0000
  C   C14       1.0  0.9897610324717244  0.14125203841216608  0.558553839768706  1.0000
  C   C15       1.0  0.9569842146871245  0.2058248896964365  0.6665463831442222  1.0000
  C   C16       1.0  0.9317035287503521  0.12206247880962076  0.7776087173568582  1.0000
  C   C17       1.0  0.9383838785317098  0.9712260847474944  0.7844152044985493  1.0000
  C   C18       1.0  0.9698182640300077  0.9052211992101414  0.6754408086942731  1.0000
  C   C19       1.0  0.9944041862980139  0.9881567141943156  0.561818336544313  1.0000
  C   C20       1.0  0.9101762291020771  0.8880285425019264  0.9095394857247121  1.0000
  C   C21       1.0  0.868768707944509  0.7424838241182964  0.8971838041549741  1.0000
  C   C22       1.0  0.9552845005332049  0.7487879254021882  0.9509290192543074  1.0000
  H   H9        1.0  0.007919965560531095  0.43976445367779626  0.3455236768598018  1.0000
  H   H10       1.0  0.9526613979535206  0.3224052097935797  0.6664813580885367  1.0000
  H   H11       1.0  0.9074466158241107  0.175860551641144  0.859530835656274  1.0000
  H   H12       1.0  0.9737268009348595  0.7887689678203345  0.6765925124809512  1.0000
  H   H13       1.0  0.01561177873012931  0.9109519665752985  0.24358382846627058  1.0000
  H   H14       1.0  0.8869978938097658  0.9484887037886522  0.9916157580267808  1.0000
  H   H15       1.0  0.8649510016787104  0.7032517920248298  0.7982473609878058  1.0000
  H   H16       1.0  0.8213007140023837  0.7143614969755215  0.9727511632137933  1.0000
  H   H17       1.0  0.003995572090973016  0.7132571787862797  0.8847169386681442  1.0000
  H   H18       1.0  0.958378720052931  0.7243440202615055  0.05792505344131593  1.0000
  C   C23       1.0  0.9920077521114511  0.5646318066574283  0.17887028737681576  1.0000
  C   C24       1.0  0.06760687211673155  0.6374007832020585  0.17217806782574385  1.0000
  C   C25       1.0  0.10521637275435891  0.6755851505165311  0.0515966434008579  1.0000
  C   C26       1.0  0.06780358818415279  0.6375897868323062  0.9368773147260101  1.0000
  C   C27       1.0  0.9921574545383056  0.5647769430425323  0.9415018985898143  1.0000
  C   C28       1.0  0.954614106221701  0.5290362360144054  0.06292790855900998  1.0000
  C   C29       1.0  0.18722557150356778  0.749654668054432  0.04579231253768934  1.0000
  O   O1        1.0  0.24925793883910363  0.6435634762409395  0.05202855371484372  1.0000
  C   C30       1.0  0.32659067822479937  0.7117455015209568  0.04669089783338132  1.0000
  H   H19       1.0  0.963502125156582  0.5352609517761728  0.5089240823516474  1.0000
  H   H20       1.0  0.09755564270944397  0.6646522068343519  0.2606109494374129  1.0000
  H   H21       1.0  0.09788728889921816  0.664972277124408  0.8441340222099685  1.0000
  H   H22       1.0  0.8963126647490827  0.4729026776310925  0.06732680604534558  1.0000
  H   H23       1.0  0.8499036230666391  0.4259781446617229  0.7430640234582677  1.0000
  H   H24       1.0  0.19194683193366147  0.8199827952128858  0.12868628310152386  1.0000
  H   H25       1.0  0.19213677441209895  0.8200022503932347  0.9535696940355884  1.0000
  H   H26       1.0  0.37466335798193096  0.6271287569804136  0.05167339797325377  1.0000
  H   H27       1.0  0.33524497161481115  0.7785917046750896  0.13097723408671436  1.0000
  H   H28       1.0  0.33544533725246706  0.7786491778159563  0.9534636826578269  1.0000
  Zn  Zn1       1.0  0.9023148931325579  0.5659070670185642  0.5614297856936039  1.0000
  Zn  Zn2       1.0  0.08184244969891141  0.5635011120418039  0.5589418846194711  1.0000
  C   C31       1.0  0.9920958210023898  0.5590048875299225  0.7973260559247471  1.0000
  C   C32       1.0  0.9920634922645704  0.5704050847441142  0.32304572168252776  1.0000
  C   C33       1.0  0.9935212762811743  0.828072786708908  0.556026872615375  1.0000
  C   C34       1.0  0.9906379662407834  0.30133545389721933  0.5643449683917239  1.0000
  O   O2        1.0  0.060211936780006026  0.5714233112056373  0.3704881447531305  1.0000
  O   O3        1.0  0.06020463189847014  0.5561595089923992  0.7479949955178076  1.0000
  O   O4        1.0  0.06135478690652607  0.7734352529727513  0.5531442162709859  1.0000
  O   O5        1.0  0.05906172054879998  0.3541475783432615  0.5653388275275624  1.0000
  O   O6        1.0  0.9250955610187321  0.7752606015397093  0.5550328436276873  1.0000
  O   O7        1.0  0.923945415491741  0.5579865900498694  0.7498835603168601  1.0000
  O   O8        1.0  0.9239527198458438  0.573250341714688  0.3723751481745359  1.0000
  O   O9        1.0  0.9228025035738497  0.35597459855693897  0.5672259282635324  1.0000
