data_image0
_chemical_formula_structural       NC5NC4H6C9H8C6H6Zn2C4O8
_chemical_formula_sum              "N2 C28 H20 Zn2 O8"
_cell_length_a       13.854160002989762
_cell_length_b       9.275152443626249
_cell_length_c       10.681121600428286
_cell_angle_alpha    85.36323627709002
_cell_angle_beta     89.99987030852816
_cell_angle_gamma    90.57354205828562

_space_group_name_H-M_alt    "P 1"
_space_group_IT_number       1

loop_
  _space_group_symop_operation_xyz
  'x, y, z'

loop_
  _atom_site_type_symbol
  _atom_site_label
  _atom_site_symmetry_multiplicity
  _atom_site_fract_x
  _atom_site_fract_y
  _atom_site_fract_z
  _atom_site_occupancy
  N   N1        1.0  0.9194916118483145  0.5787932557363988  0.6139347605703205  1.0000
  C   C1        1.0  0.8473280260242146  0.6040122534433017  0.5625652885463224  1.0000
  C   C2        1.0  0.7575555116149857  0.6353853706096959  0.49865969927072507  1.0000
  C   C3        1.0  0.6697865499770472  0.6058938289808049  0.5610544092918324  1.0000
  C   C4        1.0  0.5824130993398271  0.6353853849431379  0.4986596790976494  1.0000
  C   C5        1.0  0.49221988367214803  0.6040121060830674  0.5625653685797831  1.0000
  N   N2        1.0  0.4197180408248421  0.5787931922219387  0.6139347606850469  1.0000
  C   C6        1.0  0.5828453095589252  0.694975039530463  0.3738849252175094  1.0000
  C   C7        1.0  0.6705959518008071  0.7266172994159703  0.3113939226134548  1.0000
  C   C8        1.0  0.6709971484890624  0.7864481866892055  0.1766378705036431  1.0000
  C   C9        1.0  0.757922398585849  0.694975038205  0.37388484679612266  1.0000
  H   H1        1.0  0.6694765862660451  0.559661269213785  0.6576281105432367  1.0000
  H   H2        1.0  0.5151184705092816  0.7167676614629566  0.3254765375614217  1.0000
  H   H3        1.0  0.7363083626655275  0.8546276881434477  0.15577028328767994  1.0000
  H   H4        1.0  0.6065998850193351  0.8546276900206584  0.1557703398217336  1.0000
  H   H5        1.0  0.670390477728989  0.6958990209122595  0.11474913020461797  1.0000
  H   H6        1.0  0.8259414303454351  0.7167677739777955  0.3254764630143372  1.0000
  C   C10       1.0  0.16676207147221575  0.155160926868035  0.6152132951435079  1.0000
  C   C11       1.0  0.1319422309591942  0.23790032329978608  0.5088228102050378  1.0000
  C   C12       1.0  0.10609461564649345  0.17245897248315406  0.4004404305720508  1.0000
  C   C13       1.0  0.11466098483307485  0.023117031755158994  0.3963025967547511  1.0000
  C   C14       1.0  0.14759333690022292  0.9386894886930636  0.5017939441632553  1.0000
  C   C15       1.0  0.17245675726520554  0.0024144445132998566  0.6126670885615237  1.0000
  C   C16       1.0  0.08851016187157179  0.9559675175555997  0.2840658263444562  1.0000
  C   C17       1.0  0.06661495847856291  0.8997121588781098  0.19008512860371837  1.0000
  C   C18       1.0  0.04004945707200556  0.8314442317429236  0.07605603425150176  1.0000
  H   H7        1.0  0.3054570150050464  0.236812374762275  0.8653156303879905  1.0000
  H   H8        1.0  0.1268577087911713  0.35441780997345473  0.508428890395771  1.0000
  H   H9        1.0  0.0802878554012245  0.2386987342065452  0.3193340261238502  1.0000
  H   H10       1.0  0.15165727012739172  0.8223794579001553  0.4983004431279914  1.0000
  H   H11       1.0  0.2627416914076772  0.7071150456674564  0.7837286886111507  1.0000
  H   H12       1.0  0.05769485040325083  0.714722401030684  0.08775537185877025  1.0000
  H   H13       1.0  0.9614884346897403  0.8440268068478416  0.05891190283107806  1.0000
  H   H14       1.0  0.08081174695307625  0.8837927529061506  0.9949953622026921  1.0000
  C   C19       1.0  0.1696094316648304  0.5787876491044325  0.24619497977540306  1.0000
  C   C20       1.0  0.0999833226182285  0.4985553669384207  0.18501359819448115  1.0000
  C   C21       1.0  0.09998326297615297  0.4985554594394117  0.054131457963598084  1.0000
  C   C22       1.0  0.1696093562607188  0.5787877198206902  0.9816854152392236  1.0000
  C   C23       1.0  0.23917799613387802  0.6589535134523519  0.0428664162785386  1.0000
  C   C24       1.0  0.23917798363423778  0.6589534910827779  0.17375871500880846  1.0000
  H   H15       1.0  0.24001988981439407  0.6599245317271647  0.5392088977132286  1.0000
  H   H16       1.0  0.04540709136698928  0.4356655122293007  0.23823942360324857  1.0000
  H   H17       1.0  0.04540707166475122  0.4356655801350871  0.009735394173643334  1.0000
  H   H18       1.0  0.2937613548528972  0.721851655425196  0.9896849013333769  1.0000
  H   H19       1.0  0.29376130588116944  0.7218516048538786  0.21810926896975527  1.0000
  H   H20       1.0  0.240020187686375  0.6599240291181936  0.6772798735102636  1.0000
  Zn  Zn1       1.0  0.06384613335839925  0.5787893751177633  0.6139420117335852  1.0000
  Zn  Zn2       1.0  0.2753634411432908  0.5787852677845751  0.6139378297515099  1.0000
  C   C25       1.0  0.1695686148812851  0.5730406536922591  0.8426792612750633  1.0000
  C   C26       1.0  0.16964328161708184  0.5845358093769317  0.38520069760719755  1.0000
  C   C27       1.0  0.17137536620194543  0.8422654662845693  0.608158102876249  1.0000
  C   C28       1.0  0.16783644647081486  0.31530926357043737  0.6197219279813264  1.0000
  O   O1        1.0  0.24992431564137899  0.5864570921430436  0.4318507182177112  1.0000
  O   O2        1.0  0.24982431597358756  0.5711151652597514  0.7960257094163874  1.0000
  O   O3        1.0  0.2512822084402693  0.7885176062615817  0.6066482102468116  1.0000
  O   O4        1.0  0.24846635106753623  0.369054661462376  0.6212281234615595  1.0000
  O   O5        1.0  0.0907431512536885  0.7885199814429347  0.6066517180183708  1.0000
  O   O6        1.0  0.08928527043214762  0.5711192736582609  0.7960291452074664  1.0000
  O   O7        1.0  0.08938526982633153  0.5864611502702339  0.4318526485372811  1.0000
  O   O8        1.0  0.08792730517918419  0.3690587092713755  0.6212301477016922  1.0000
