data_image0
_chemical_formula_structural       NC4NC6H6C12H9C12H10Zn2C4O8
_chemical_formula_sum              "N2 C38 H25 Zn2 O8"
_cell_length_a       11.002025771509814
_cell_length_b       14.994056859933256
_cell_length_c       14.994060232101711
_cell_angle_alpha    85.56293828831912
_cell_angle_beta     89.98985726325003
_cell_angle_gamma    89.93048505129264

_space_group_name_H-M_alt    "P 1"
_space_group_IT_number       1

loop_
  _space_group_symop_operation_xyz
  'x, y, z'

loop_
  _atom_site_type_symbol
  _atom_site_label
  _atom_site_symmetry_multiplicity
  _atom_site_fract_x
  _atom_site_fract_y
  _atom_site_fract_z
  _atom_site_occupancy
  N   N1        1.0  0.14453666284138356  0.9757623553113296  0.01644508403005529  1.0000
  C   C1        1.0  0.08970798576521566  0.03417107512502038  0.042810387832979746  1.0000
  C   C2        1.0  0.02114016494261461  0.10732234120832973  0.07582439761205828  1.0000
  C   C3        1.0  0.8988869614827869  0.10562957569504915  0.07608776929258232  1.0000
  C   C4        1.0  0.8298386204658518  0.03331347116294214  0.04304234263146111  1.0000
  N   N2        1.0  0.7744407784269809  0.9753545529313646  0.016556726111381818  1.0000
  C   C5        1.0  0.08861548510462613  0.1833911107389976  0.11036550824898417  1.0000
  C   C6        1.0  0.1987629582791284  0.1681410925272373  0.15698421991321176  1.0000
  C   C7        1.0  0.2629743040012633  0.23937127708660344  0.18920891950712015  1.0000
  C   C8        1.0  0.21855300554408344  0.3265815403823231  0.1750211057119999  1.0000
  C   C9        1.0  0.10992600780189887  0.3428023766267234  0.12839346237210247  1.0000
  C   C10       1.0  0.04524268939471554  0.2718490802069258  0.09605267744764345  1.0000
  H   H1        1.0  0.8477319793569582  0.15897215654360242  0.10323483047128701  1.0000
  H   H2        1.0  0.2346040908836129  0.1010267915454528  0.16932106563314386  1.0000
  H   H3        1.0  0.3472498142071452  0.22689056821717712  0.22529485905918745  1.0000
  H   H4        1.0  0.2684685469974435  0.38162306670455215  0.19996246753978086  1.0000
  H   H5        1.0  0.07599404381317099  0.4105090793954902  0.11694779362822671  1.0000
  H   H6        1.0  0.9624452868063998  0.28644516666874553  0.05872212708442237  1.0000
  C   C11       1.0  0.4596088820096571  0.7135943865135148  0.01643710273954857  1.0000
  C   C12       1.0  0.5160500807349684  0.6712853279095671  0.9469327072476257  1.0000
  C   C13       1.0  0.5160380795589674  0.5780606198688961  0.9469825015615401  1.0000
  C   C14       1.0  0.4595152027585949  0.5250942814161201  0.016474373230932152  1.0000
  C   C15       1.0  0.40305407935217596  0.5675065847427052  0.08593021188635341  1.0000
  C   C16       1.0  0.4031534060873306  0.6607317037276034  0.08592017618396162  1.0000
  C   C17       1.0  0.4594498212834582  0.4260175079754243  0.016513013002236395  1.0000
  C   C18       1.0  0.35508972981377607  0.37648184075805585  0.04221086148486908  1.0000
  C   C19       1.0  0.3550210384762076  0.2832611946029918  0.042208792492859804  1.0000
  C   C20       1.0  0.4593802171159689  0.2375156695260179  0.016572434139728198  1.0000
  C   C21       1.0  0.5637141534689936  0.2869447189297456  0.9909210598694715  1.0000
  C   C22       1.0  0.5637488861593927  0.38017446897648033  0.9908518665152897  1.0000
  H   H7        1.0  0.40255194043981635  0.921048217964617  0.08662929359469129  1.0000
  H   H8        1.0  0.5600401680281419  0.7102053571311676  0.8922883300326798  1.0000
  H   H9        1.0  0.5589131680975123  0.5474484140883669  0.8919323482315942  1.0000
  H   H10       1.0  0.3601356794615962  0.5285188603405292  0.14100533829258777  1.0000
  H   H11       1.0  0.35920139832718045  0.6913125697466542  0.14054707081641837  1.0000
  H   H12       1.0  0.27282616592776376  0.4099188368435521  0.061201513508014393  1.0000
  H   H13       1.0  0.273056277044621  0.2470645425144726  0.06208817572015347  1.0000
  H   H14       1.0  0.64564737643741  0.2536399432467937  0.9710653819317159  1.0000
  H   H15       1.0  0.6460548529783334  0.41633742662540757  0.9718353036406251  1.0000
  C   C23       1.0  0.45961878245878784  0.9756123236108394  0.7545344966055785  1.0000
  C   C24       1.0  0.5266442025920048  0.03976015621742878  0.7019270978900203  1.0000
  C   C25       1.0  0.5266244580865929  0.039711706969588034  0.6087100191157113  1.0000
  C   C26       1.0  0.4595198612367213  0.9755834429294946  0.5660395182871831  1.0000
  C   C27       1.0  0.39248227769431354  0.9114855117144208  0.6187425028702205  1.0000
  C   C28       1.0  0.39258256985887935  0.9114868616789306  0.7119667739782269  1.0000
  C   C29       1.0  0.4594488819951988  0.9755506931298819  0.46696819233027265  1.0000
  C   C30       1.0  0.35174103177295213  0.9590472617901549  0.420618454229712  1.0000
  C   C31       1.0  0.3516731824794359  0.9590552229148079  0.32739704181334184  1.0000
  C   C32       1.0  0.4593703303953032  0.975497676616322  0.2784750528238715  1.0000
  C   C33       1.0  0.5670447156293126  0.9919572332440145  0.3247250844038614  1.0000
  C   C34       1.0  0.5670901737658443  0.9920229257075845  0.41794442919883906  1.0000
  H   H16       1.0  0.39187323144198444  0.9108346831548156  0.9723881121818732  1.0000
  H   H17       1.0  0.578958289754989  0.090226370377934  0.7327477320106561  1.0000
  H   H18       1.0  0.577895040010014  0.09067731911206024  0.5699275697073147  1.0000
  H   H19       1.0  0.3411647807184184  0.8604989159731002  0.5879286077673211  1.0000
  H   H20       1.0  0.3403090921398817  0.8610347186164156  0.7506446028432803  1.0000
  H   H21       1.0  0.2670384459151949  0.9472954649790553  0.4563715598804552  1.0000
  H   H22       1.0  0.26712707388419243  0.9463950648708556  0.29365578535816006  1.0000
  H   H23       1.0  0.6515557619078085  0.004596593816991846  0.2889684254469958  1.0000
  H   H24       1.0  0.6518390379784202  0.0037967783326495804  0.4517876206316047  1.0000
  H   H25       1.0  0.5681518051929748  0.9921426452368572  0.06433980855439758  1.0000
  Zn  Zn1       1.0  0.3263133898903994  0.9756422830127407  0.016482449960089633  1.0000
  Zn  Zn2       1.0  0.5926640538836627  0.9754673241460373  0.01652665656283914  1.0000
  C   C35       1.0  0.4594161052278301  0.9719655485092688  0.17943812545446292  1.0000
  C   C36       1.0  0.45956424655438016  0.9791451822951145  0.8535710694012676  1.0000
  C   C37       1.0  0.45941885476269717  0.13848415407462267  0.01299190449280541  1.0000
  C   C38       1.0  0.45956140657790523  0.81262550500006  0.020017337632490806  1.0000
  O   O1        1.0  0.5606246343926775  0.9802605541407516  0.8868254231119814  1.0000
  O   O2        1.0  0.560509708841106  0.9707167140123761  0.14621706655591538  1.0000
  O   O3        1.0  0.5605105660962841  0.1051825946137166  0.011810565508157289  1.0000
  O   O4        1.0  0.5606236862789973  0.8457946799952418  0.021231857257612227  1.0000
  O   O5        1.0  0.358353666602657  0.10531492722421287  0.011777249245538692  1.0000
  O   O6        1.0  0.35835280889667875  0.9708501184132498  0.14618370300395334  1.0000
  O   O7        1.0  0.35846773505132856  0.9803939276896777  0.8867909869933024  1.0000
  O   O8        1.0  0.35846678690374256  0.8459280471490146  0.021197488021282847  1.0000
