data_image0
_chemical_formula_structural       NC8NC6H8C7NH5C7F3H5Zn2C4O8
_chemical_formula_sum              "N3 C32 H18 F3 Zn2 O8"
_cell_length_a       17.457602349358154
_cell_length_b       10.302819778424748
_cell_length_c       9.272291681409872
_cell_angle_alpha    86.06048140812513
_cell_angle_beta     93.27365386630078
_cell_angle_gamma    91.68806980205999

_space_group_name_H-M_alt    "P 1"
_space_group_IT_number       1

loop_
  _space_group_symop_operation_xyz
  'x, y, z'

loop_
  _atom_site_type_symbol
  _atom_site_label
  _atom_site_symmetry_multiplicity
  _atom_site_fract_x
  _atom_site_fract_y
  _atom_site_fract_z
  _atom_site_occupancy
  N   N1        1.0  0.716607048783101  0.44012476293965797  0.474744151075698  1.0000
  C   C1        1.0  0.6554841490022444  0.3941190393674133  0.4629554580862995  1.0000
  C   C2        1.0  0.579444719060199  0.3368937170083088  0.44830092028978985  1.0000
  C   C3        1.0  0.5212333468167893  0.3777115361308019  0.5314742881836836  1.0000
  C   C4        1.0  0.4466346023019354  0.3226093035374808  0.5175020798322834  1.0000
  C   C5        1.0  0.3848510638941441  0.36570903789385495  0.6055858309017579  1.0000
  C   C6        1.0  0.3100681934847119  0.383674067107659  0.5436608319891163  1.0000
  C   C7        1.0  0.2518572756755933  0.424308981161274  0.6269540817038898  1.0000
  C   C8        1.0  0.1756268655519742  0.4428599042768049  0.5625688284243147  1.0000
  N   N2        1.0  0.1143505329597003  0.457768470089479  0.5108032525246609  1.0000
  C   C9        1.0  0.267939219584757  0.44722647029624596  0.772737035699625  1.0000
  C   C10       1.0  0.34193902779727264  0.4296537662692148  0.8350924597227121  1.0000
  C   C11       1.0  0.4001402795326371  0.38920293557697017  0.7523075064376217  1.0000
  C   C12       1.0  0.431529806210207  0.22599925451002467  0.4187652559206942  1.0000
  C   C13       1.0  0.48973115466724554  0.18546359877047625  0.336036089022301  1.0000
  C   C14       1.0  0.5635474630365644  0.24068308005492467  0.35061901291026465  1.0000
  H   H1        1.0  0.5338596256507033  0.45347720250513146  0.6054672472295676  1.0000
  H   H2        1.0  0.2972910304892572  0.36779793552936085  0.4303633364159556  1.0000
  H   H3        1.0  0.2233274683928711  0.47862473838139075  0.8380738354767809  1.0000
  H   H4        1.0  0.3542008986879313  0.4470837445734821  0.9479754521114946  1.0000
  H   H5        1.0  0.4568211945537573  0.3746272367496525  0.8035084088146405  1.0000
  H   H6        1.0  0.3750000314682603  0.18058269406306704  0.4069364554104278  1.0000
  H   H7        1.0  0.4776136097028421  0.1108033539013027  0.2607124024429712  1.0000
  H   H8        1.0  0.6081614231932221  0.20841994489911017  0.2858498138773343  1.0000
  C   C15       1.0  0.9154824766546179  0.06769378221524458  0.4927802414419642  1.0000
  C   C16       1.0  0.8711668300879555  0.05682275689245931  0.6150089529129432  1.0000
  C   C17       1.0  0.8491193590651851  0.9343117382443422  0.6758188912551628  1.0000
  C   C18       1.0  0.8711668920476864  0.8215217498674843  0.6150089632547864  1.0000
  C   C19       1.0  0.9154824894685747  0.8301898103032493  0.49278028545357183  1.0000
  C   C20       1.0  0.9374087877055605  0.9537755805067253  0.4323045697622909  1.0000
  C   C21       1.0  0.8036893991907409  0.9242964559754416  0.801121289738362  1.0000
  N   N3        1.0  0.7671785767828658  0.9162474756760157  0.9018233131214766  1.0000
  H   H9        1.0  0.9322681599514968  0.3991338876802226  0.44648236254827345  1.0000
  H   H10       1.0  0.8536892322193688  0.14339401600092702  0.6632143617807266  1.0000
  H   H11       1.0  0.8536893278749157  0.7272444158501984  0.6632143362033307  1.0000
  H   H12       1.0  0.9715834487090925  0.961309487619858  0.3380461911108874  1.0000
  H   H13       1.0  0.9322682307767028  0.5061508110975951  0.4464824785422509  1.0000
  C   C22       1.0  0.913867065151965  0.44553755490197733  0.06927310792682917  1.0000
  C   C23       1.0  0.9654830561328797  0.3661187534783784  0.1541719414398912  1.0000
  C   C24       1.0  0.021269435910289628  0.2985185063940653  0.09043246487813293  1.0000
  C   C25       1.0  0.027672700298149167  0.31012140552223433  0.9401206406418612  1.0000
  C   C26       1.0  0.9745274865903509  0.3851712268175298  0.8539129712597173  1.0000
  C   C27       1.0  0.9170978862164435  0.45234611868291086  0.9162873926702679  1.0000
  C   C28       1.0  0.08659384757431576  0.23410707975621167  0.8708770475518713  1.0000
  F   F1        1.0  0.1508554565255334  0.21503622011759949  0.9636220949854554  1.0000
  F   F2        1.0  0.10956499424106214  0.3000975110145403  0.7448871701838353  1.0000
  F   F3        1.0  0.05497366287899853  0.11439656498782003  0.8380513215322627  1.0000
  H   H14       1.0  0.8057906933941862  0.7030937740091456  0.13956564747018807  1.0000
  H   H15       1.0  0.9637117147232713  0.3582890190612631  0.2710580399869076  1.0000
  H   H16       1.0  0.05993120502477734  0.23790419550561245  0.15915084652063702  1.0000
  H   H17       1.0  0.9767156225694634  0.38873133248615893  0.7371235529960564  1.0000
  H   H18       1.0  0.7431714603665344  0.5690028678584089  0.7871770511045786  1.0000
  Zn  Zn1       1.0  0.8313872583788476  0.4452129409884451  0.4851583558241066  1.0000
  Zn  Zn2       1.0  0.9995703541515418  0.45266974236693275  0.5004008551130632  1.0000
  C   C29       1.0  0.9164854883244264  0.4458869438316008  0.7561834321795466  1.0000
  C   C30       1.0  0.9144739613000885  0.4519974602112888  0.22937608675584964  1.0000
  C   C31       1.0  0.9154566133454619  0.6860154968404935  0.48703294255320295  1.0000
  C   C32       1.0  0.9155027791831802  0.21186734544751928  0.49852664806982705  1.0000
  O   O1        1.0  0.978502249543555  0.45698961668699334  0.2888925580524233  1.0000
  O   O2        1.0  0.9801042766969323  0.4465533443016261  0.7082352500027287  1.0000
  O   O3        1.0  0.979272592473262  0.640460161603136  0.4908942473669197  1.0000
  O   O4        1.0  0.9793338759652641  0.26308280525917205  0.506233447353202  1.0000
  O   O5        1.0  0.85162367917246  0.6347998755529177  0.4793257583748649  1.0000
  O   O6        1.0  0.8524553630993378  0.44089461746299635  0.6966666841139373  1.0000
  O   O7        1.0  0.8508533293831646  0.4513308306706726  0.2773222582451478  1.0000
  O   O8        1.0  0.8516849562141698  0.25742401082587474  0.49466325567185393  1.0000
