data_image0
_chemical_formula_structural       NC10NC3NCH9C7OC3OC4H12C7OC6H10Zn2C4O8
_chemical_formula_sum              "N3 C45 H31 O11 Zn2"
_cell_length_a       19.437513618241372
_cell_length_b       10.299371110280156
_cell_length_c       10.299382801718286
_cell_angle_alpha    85.58971110706742
_cell_angle_beta     90.32786270847616
_cell_angle_gamma    89.53521497268402

_space_group_name_H-M_alt    "P 1"
_space_group_IT_number       1

loop_
  _space_group_symop_operation_xyz
  'x, y, z'

loop_
  _atom_site_type_symbol
  _atom_site_label
  _atom_site_symmetry_multiplicity
  _atom_site_fract_x
  _atom_site_fract_y
  _atom_site_fract_z
  _atom_site_occupancy
  N   N1        1.0  0.648272467756866  0.41021678582410415  0.5762014545279521  1.0000
  C   C1        1.0  0.5893416323695985  0.42722638031188565  0.5732323616378088  1.0000
  C   C2        1.0  0.5159042808976192  0.4484783143407025  0.5695469953212018  1.0000
  C   C3        1.0  0.4741310876822273  0.34728724152591606  0.5578465286527208  1.0000
  C   C4        1.0  0.39824336517145  0.35735105409354273  0.5506292717061367  1.0000
  C   C5        1.0  0.3586698959591091  0.4382075583552272  0.6164047186401087  1.0000
  C   C6        1.0  0.2824877801862862  0.4295982727248078  0.6079571084038471  1.0000
  C   C7        1.0  0.2493364242106745  0.30825465170429234  0.6125511154040835  1.0000
  C   C8        1.0  0.1776019421861596  0.3018820267475435  0.6053804602255666  1.0000
  C   C9        1.0  0.1380480825265478  0.4163803842011362  0.5939778376614973  1.0000
  C   C10       1.0  0.06419910856714481  0.40966955991753484  0.5866389533992276  1.0000
  N   N2        1.0  0.0048296315432348  0.4042746473128651  0.5807389490983437  1.0000
  C   C11       1.0  0.17048270344358174  0.5374135254010655  0.590128980845184  1.0000
  C   C12       1.0  0.242201613214687  0.544040148027243  0.5973617608367676  1.0000
  C   C13       1.0  0.38735312803235433  0.5305027262045039  0.7063622644816114  1.0000
  N   N3        1.0  0.4443489031622558  0.5937125987773559  0.6859837795605801  1.0000
  C   C14       1.0  0.4882032632062536  0.5844384629968753  0.5728723977436974  1.0000
  H   H1        1.0  0.49650462410434737  0.25223006153057126  0.5456866377732159  1.0000
  H   H2        1.0  0.3735279923195116  0.28783247717575056  0.4922828242957924  1.0000
  H   H3        1.0  0.2787739128954869  0.21834450893971624  0.6235353795799641  1.0000
  H   H4        1.0  0.152995916940572  0.2076566763806298  0.6092292898315814  1.0000
  H   H5        1.0  0.1403595471390427  0.6266690270116975  0.5814565989941209  1.0000
  H   H6        1.0  0.2663261710904989  0.638678294200618  0.5934976394152134  1.0000
  H   H7        1.0  0.3573414815040559  0.5508978143197101  0.7907372496369005  1.0000
  H   H8        1.0  0.5309640371585385  0.6547512108870115  0.5786644129236005  1.0000
  H   H9        1.0  0.4585515712685589  0.6125367674732696  0.4822382226531339  1.0000
  C   C15       1.0  0.8265079833556153  0.025874987176208508  0.5783548699566514  1.0000
  C   C16       1.0  0.81860548062726  0.03527068956505186  0.4422708384049858  1.0000
  C   C17       1.0  0.8138424988999733  0.9228356839761062  0.37379211521292777  1.0000
  C   C18       1.0  0.8186395742898837  0.8000022941286805  0.44258235449915095  1.0000
  C   C19       1.0  0.8266007135284859  0.7886063042332093  0.5785968993850421  1.0000
  C   C20       1.0  0.8303087154552469  0.9021434238427228  0.6457315100117162  1.0000
  C   C21       1.0  0.8062155322967808  0.9326168740798402  0.22994976840822656  1.0000
  O   O1        1.0  0.8344297268949581  0.8470969273176889  0.1662866516014243  1.0000
  C   C22       1.0  0.766573327934373  0.03933444610752623  0.15833530512922533  1.0000
  C   C23       1.0  0.785827002798597  0.08415181585983622  0.03143930625394442  1.0000
  C   C24       1.0  0.7486261733860786  0.183773174222716  0.9615859296728813  1.0000
  O   O2        1.0  0.7706147075142579  0.22519250243270617  0.8357694324330405  1.0000
  C   C25       1.0  0.7378344870642194  0.32520994609642684  0.753918268442785  1.0000
  C   C26       1.0  0.6909021008867287  0.23860399489702844  0.01933871882089644  1.0000
  C   C27       1.0  0.6709423569064255  0.19350829394410463  0.1447086916674234  1.0000
  C   C28       1.0  0.7082654154654403  0.09416607043098679  0.21381145521131018  1.0000
  H   H10       1.0  0.8424707631520993  0.21546622946178262  0.834947877983411  1.0000
  H   H11       1.0  0.816911496190601  0.13022428435923605  0.3892202047398683  1.0000
  H   H12       1.0  0.8154858429177377  0.7131854858202754  0.38982040875985025  1.0000
  H   H13       1.0  0.8364014088442596  0.8940962171381155  0.7506423327849283  1.0000
  H   H14       1.0  0.8302313201802237  0.4567716207072786  0.6307293387743564  1.0000
  H   H15       1.0  0.8303187679737146  0.042506546813924295  0.9866332122585182  1.0000
  H   H16       1.0  0.7659169713885403  0.33781705167602594  0.6604058931095524  1.0000
  H   H17       1.0  0.7388395968385589  0.41865793168087895  0.8009495508680602  1.0000
  H   H18       1.0  0.683920584746102  0.2978717378510587  0.7334681823824232  1.0000
  H   H19       1.0  0.6610270338987317  0.3155924060121815  0.9680706761718372  1.0000
  H   H20       1.0  0.6261907884200449  0.23531908852409922  0.18828976198703695  1.0000
  H   H21       1.0  0.6910852167965613  0.05932061276367362  0.30997033354720727  1.0000
  C   C29       1.0  0.826622967245338  0.4071662723538312  0.19710693773113408  1.0000
  C   C30       1.0  0.8989023174456932  0.40682517295341825  0.19672338103376052  1.0000
  C   C31       1.0  0.935357791105413  0.40516504956264354  0.0794713381986174  1.0000
  C   C32       1.0  0.8987346666807866  0.4068560038264739  0.9614756876786044  1.0000
  C   C33       1.0  0.8264856956297616  0.4073150163916128  0.9598447712166571  1.0000
  C   C34       1.0  0.7908488989707557  0.4071227651600189  0.07823144548808547  1.0000
  C   C35       1.0  0.011675557972346429  0.4061888505537765  0.07881478976751266  1.0000
  O   O3        1.0  0.04199672641983909  0.4663927430146133  0.9846929713952544  1.0000
  C   C36       1.0  0.0535956451906896  0.3389066709419355  0.18483340321579367  1.0000
  C   C37       1.0  0.11826864234618206  0.388288933971183  0.21677378211628162  1.0000
  C   C38       1.0  0.15851120737509938  0.32468404633056314  0.31552044499783594  1.0000
  C   C39       1.0  0.1349232142754191  0.2107729476744622  0.3825481095821628  1.0000
  C   C40       1.0  0.07116235583512465  0.15992851252653284  0.35059586269400755  1.0000
  C   C41       1.0  0.030723752992810383  0.22315795278853412  0.2519486461612557  1.0000
  H   H22       1.0  0.6902212582135151  0.4098216791570597  0.40499594846695763  1.0000
  H   H23       1.0  0.9269311270070736  0.4093085502485758  0.28767985126368223  1.0000
  H   H24       1.0  0.9267702011060109  0.4065601291532519  0.8708810389506532  1.0000
  H   H25       1.0  0.7351269659629445  0.4073865258088054  0.07772290375634472  1.0000
  H   H26       1.0  0.7987309618968872  0.4085963303656397  0.6316767849265505  1.0000
  H   H27       1.0  0.13738037767722644  0.47664395919349345  0.16610952029739345  1.0000
  H   H28       1.0  0.2080401613844849  0.36374258856742214  0.34003603590594933  1.0000
  H   H29       1.0  0.1661712806977047  0.16162465247113977  0.4588738113197839  1.0000
  H   H30       1.0  0.05317044228543466  0.07109891373900301  0.40190299337578317  1.0000
  H   H31       1.0  0.9820205252078882  0.18080346242013667  0.22725630581001677  1.0000
  Zn  Zn1       1.0  0.7511671669002845  0.40849852523955477  0.5775183852933681  1.0000
  Zn  Zn2       1.0  0.9019349353926066  0.40598224038076314  0.5794326848206479  1.0000
  C   C42       1.0  0.8265094998779258  0.4021132174208166  0.8156693613708415  1.0000
  C   C43       1.0  0.8265942489705767  0.41236915937362073  0.3412818576336538  1.0000
  C   C44       1.0  0.8265805696614837  0.6444328905081806  0.5733759188949579  1.0000
  C   C45       1.0  0.8265231275383762  0.1700479268487336  0.5835753681998759  1.0000
  O   O4        1.0  0.8838001925764579  0.4131547130291251  0.39039474270352037  1.0000
  O   O5        1.0  0.8837328039771877  0.3994168819805113  0.7680090111913833  1.0000
  O   O6        1.0  0.8837894221898093  0.5950930956851541  0.5723553327610065  1.0000
  O   O7        1.0  0.8837435229356606  0.21747850945439584  0.5860483231089508  1.0000
  O   O8        1.0  0.7693585279075918  0.597002257026019  0.5709027463449783  1.0000
  O   O9        1.0  0.7693019098939743  0.40132760361899567  0.7665563560249298  1.0000
  O   O10       1.0  0.7693692988144549  0.4150653891061984  0.38894052612250807  1.0000
  O   O11       1.0  0.7693126291521948  0.21938917626165222  0.5845942038927978  1.0000
