data_image0
_chemical_formula_structural       NC12NC2H8C6SCOC6H10C6SCOC6H10Zn2C4O8
_chemical_formula_sum              "N2 C44 H28 S2 O10 Zn2"
_cell_length_a       19.240039667572717
_cell_length_b       10.302038109246572
_cell_length_c       10.302041481415108
_cell_angle_alpha    85.54819663174399
_cell_angle_beta     89.99620935601247
_cell_angle_gamma    90.01678309981641

_space_group_name_H-M_alt    "P 1"
_space_group_IT_number       1

loop_
  _space_group_symop_operation_xyz
  'x, y, z'

loop_
  _atom_site_type_symbol
  _atom_site_label
  _atom_site_symmetry_multiplicity
  _atom_site_fract_x
  _atom_site_fract_y
  _atom_site_fract_z
  _atom_site_occupancy
  N   N1        1.0  0.6547507915867097  0.42143436439238635  0.5679842425486186  1.0000
  C   C1        1.0  0.5946024227855032  0.4214344483821739  0.5679841606426301  1.0000
  C   C2        1.0  0.5197843856676004  0.42143456568775806  0.5679840233861009  1.0000
  C   C3        1.0  0.48329689591473546  0.35694858575304456  0.6713635100211048  1.0000
  C   C4        1.0  0.4106261273586584  0.35683770072903154  0.6714500159704799  1.0000
  C   C5        1.0  0.3734521507528586  0.42143465831022087  0.5679837957681586  1.0000
  C   C6        1.0  0.4106538525566927  0.48603180276544444  0.4645177700944194  1.0000
  C   C7        1.0  0.4833245205230669  0.48592068225533946  0.464604398480422  1.0000
  C   C8        1.0  0.2962470603042812  0.4214345797010366  0.5679837003605741  1.0000
  C   C9        1.0  0.25904000681633355  0.3081861615943904  0.6098271664474553  1.0000
  C   C10       1.0  0.1863693384333286  0.30829306821288416  0.6097358779009081  1.0000
  C   C11       1.0  0.1499147733586693  0.4214344505376719  0.5679837612369292  1.0000
  C   C12       1.0  0.0750967361770626  0.4214343367351545  0.567984009825842  1.0000
  N   N2        1.0  0.0149484193111702  0.4214342958486177  0.5679842181937185  1.0000
  C   C13       1.0  0.1864077191543886  0.5345759086904718  0.5262315917058047  1.0000
  C   C14       1.0  0.25907843540740827  0.5346829954437486  0.5261401406287305  1.0000
  H   H1        1.0  0.5110010722651726  0.3070219011068094  0.7520793443863498  1.0000
  H   H2        1.0  0.38352221656037017  0.30770852175310215  0.7532812455196833  1.0000
  H   H3        1.0  0.3835712325728978  0.5351610088051066  0.38268648971209984  1.0000
  H   H4        1.0  0.511050115610209  0.5358472665666907  0.3838888398350333  1.0000
  H   H5        1.0  0.2861181964395968  0.21904112442602086  0.6409736919343816  1.0000
  H   H6        1.0  0.1586395152548514  0.22004663642260125  0.6419152925970473  1.0000
  H   H7        1.0  0.15870771888071236  0.6228223159446618  0.49405219155301006  1.0000
  H   H8        1.0  0.286186724615358  0.6238281117855102  0.49499357039267955  1.0000
  C   C15       1.0  0.8347871168742262  0.04015591758242798  0.5679440630896246  1.0000
  C   C16       1.0  0.7753737803863712  0.04495278990891016  0.4884419466030503  1.0000
  C   C17       1.0  0.7461391135011811  0.9303811700390459  0.44840118135792606  1.0000
  C   C18       1.0  0.7755973309321071  0.8098202100798314  0.488387952261256  1.0000
  C   C19       1.0  0.8349187893571024  0.802702783659697  0.5680356173630587  1.0000
  C   C20       1.0  0.8642435289644316  0.9185239867978746  0.6073156591015187  1.0000
  S   S1        1.0  0.6707243194737376  0.9379513479080103  0.3458146189349489  1.0000
  C   C21       1.0  0.7218273445086428  0.9464960804514406  0.19942475799868054  1.0000
  O   O1        1.0  0.7385872854989202  0.841244251817812  0.15308487628450007  1.0000
  C   C22       1.0  0.7447514296022044  0.0726847368852237  0.13394156856500383  1.0000
  C   C23       1.0  0.7938941608508119  0.075058833540675  0.03245729488582838  1.0000
  C   C24       1.0  0.816233624755572  0.19341619130091958  0.9707477363198374  1.0000
  C   C25       1.0  0.7898063759518311  0.31063989136123826  0.00924056308974075  1.0000
  C   C26       1.0  0.7408727116411241  0.3097388422854932  0.10937208948837984  1.0000
  C   C27       1.0  0.7183015744337049  0.19168501232890067  0.1714017504406613  1.0000
  H   H9        1.0  0.9466937989298948  0.2384183445691357  0.7179649586425678  1.0000
  H   H10       1.0  0.7517288054003887  0.13748560334380788  0.4571730130303435  1.0000
  H   H11       1.0  0.7521762826012092  0.7220796577247042  0.4566305947637097  1.0000
  H   H12       1.0  0.9100473250090513  0.9139056228796367  0.6686031642083012  1.0000
  H   H13       1.0  0.8575940151758987  0.47268232540798427  0.5979956178350887  1.0000
  H   H14       1.0  0.8153950325450552  0.9855050952699  0.0011665817990451632  1.0000
  H   H15       1.0  0.8541491773536947  0.19419639920683318  0.8930671708943732  1.0000
  H   H16       1.0  0.8071804973296322  0.4021607959097291  0.9613767754787164  1.0000
  H   H17       1.0  0.720282787334566  0.4006760742656801  0.13890253465322422  1.0000
  H   H18       1.0  0.6799789241320202  0.1942929027362459  0.24795022635960562  1.0000
  C   C28       1.0  0.8348659945545815  0.4215585836138531  0.18670281198972538  1.0000
  C   C29       1.0  0.86675029751636  0.5446275951364548  0.17580460543279752  1.0000
  C   C30       1.0  0.8829240030544124  0.6053391958628649  0.053426578699671046  1.0000
  C   C31       1.0  0.8668161910040771  0.5442238290400221  0.9406991450274114  1.0000
  C   C32       1.0  0.83483990885714  0.4213000865300043  0.9492768718756781  1.0000
  C   C33       1.0  0.819081608490592  0.36054993951087067  0.07284832044751388  1.0000
  S   S2        1.0  0.9242757945381954  0.761834706599618  0.0409228226260232  1.0000
  C   C34       1.0  0.009880583954174238  0.692050661257672  0.04348284465120966  1.0000
  O   O2        1.0  0.037076615899308774  0.668883436046563  0.9364197939741894  1.0000
  C   C35       1.0  0.04818422426872382  0.660715457028914  0.1670035859414618  1.0000
  C   C36       1.0  0.1098277396222116  0.5870096856743379  0.1671870017156294  1.0000
  C   C37       1.0  0.14604737860706485  0.5561203113607533  0.28313536242595827  1.0000
  C   C38       1.0  0.12136118244915206  0.5984577253771799  0.4000780199014282  1.0000
  C   C39       1.0  0.06046464016091058  0.6720047237443945  0.4012748517435958  1.0000
  C   C40       1.0  0.024037613427229987  0.7032681434074608  0.2856259419477918  1.0000
  H   H19       1.0  0.7746655223963903  0.1897081043840545  0.41455240214965206  1.0000
  H   H20       1.0  0.8792442719705234  0.5935436864181738  0.262124808784838  1.0000
  H   H21       1.0  0.8796046996946492  0.5928084691715654  0.8467336084012254  1.0000
  H   H22       1.0  0.7945026969645578  0.26567228419605127  0.08032950615507706  1.0000
  H   H23       1.0  0.8228722790849833  0.3743946559058502  0.6252119787583958  1.0000
  H   H24       1.0  0.12989818893295402  0.5525600104582822  0.07786421127234555  1.0000
  H   H25       1.0  0.1932822846123814  0.499149435055221  0.28228150001475893  1.0000
  H   H26       1.0  0.14946210167496532  0.5744122891775536  0.4897371981375036  1.0000
  H   H27       1.0  0.04147318154363244  0.7050676921738539  0.4919515136227419  1.0000
  H   H28       1.0  0.977330310963761  0.7611808515864249  0.2897071758341214  1.0000
  Zn  Zn1       1.0  0.7586960545677208  0.42143087569503757  0.5679917219219397  1.0000
  Zn  Zn2       1.0  0.9110031729099994  0.42142718998779793  0.5679873341728612  1.0000
  C   C41       1.0  0.8348423779618872  0.41617651310163417  0.8051333998282006  1.0000
  C   C42       1.0  0.8348585129832962  0.42668319072850336  0.3308457838543968  1.0000
  C   C43       1.0  0.8348904807251455  0.6585669386469768  0.5628442291727729  1.0000
  C   C44       1.0  0.8348103579765822  0.18429120522862807  0.5731350235478472  1.0000
  O   O3        1.0  0.892655758777384  0.4283959925863938  0.3792198161666953  1.0000
  O   O4        1.0  0.8926427106864562  0.41445993451390106  0.7567556634325607  1.0000
  O   O5        1.0  0.8926807750615289  0.61019326814832  0.5611054440767118  1.0000
  O   O6        1.0  0.8926176424351452  0.23266266827424875  0.5748699381714  1.0000
  O   O7        1.0  0.7770815330676312  0.6101953974112604  0.561109117918069  1.0000
  O   O8        1.0  0.7770434689610697  0.4144636237340471  0.756759268230563  1.0000
  O   O9        1.0  0.7770565171438553  0.4283996370904415  0.37922185989389545  1.0000
  O   O10       1.0  0.7770184007938382  0.2326663034586962  0.5748720792444126  1.0000
