data_image0
_chemical_formula_structural       NC9NC5H8C7OC3NC3H11C7OC3NC3H11Zn2C4O8
_chemical_formula_sum              "N4 C44 H30 O10 Zn2"
_cell_length_a       17.807436237873137
_cell_length_b       10.298746005989749
_cell_length_c       10.298749378158432
_cell_angle_alpha    85.5599185525692
_cell_angle_beta     89.40102399035862
_cell_angle_gamma    88.3993582553778

_space_group_name_H-M_alt    "P 1"
_space_group_IT_number       1

loop_
  _space_group_symop_operation_xyz
  'x, y, z'

loop_
  _atom_site_type_symbol
  _atom_site_label
  _atom_site_symmetry_multiplicity
  _atom_site_fract_x
  _atom_site_fract_y
  _atom_site_fract_z
  _atom_site_occupancy
  N   N1        1.0  0.7074114359124342  0.3879889981618485  0.5570896056535057  1.0000
  C   C1        1.0  0.6468196055203344  0.35279735383195  0.5460626880725707  1.0000
  C   C2        1.0  0.5714500281172471  0.3090228237935959  0.5323463998950637  1.0000
  C   C3        1.0  0.5533424308675978  0.23761082318077942  0.4273305012143376  1.0000
  C   C4        1.0  0.48016244243687634  0.19499762946477328  0.41393022752052455  1.0000
  C   C5        1.0  0.4240412943584023  0.22341887891070233  0.5055133759083765  1.0000
  C   C6        1.0  0.3462698493398157  0.17824694785813966  0.4913544433016124  1.0000
  C   C7        1.0  0.2841035177692479  0.26000754341326315  0.5173003530797291  1.0000
  C   C8        1.0  0.2107812066377268  0.21719129403838422  0.5039137497124098  1.0000
  C   C9        1.0  0.1475650710172431  0.3016434286232881  0.5302237514341344  1.0000
  N   N2        1.0  0.0967522856568412  0.36953710200175127  0.5513762659259  1.0000
  C   C10       1.0  0.1990416557007342  0.0923564504278016  0.4645558694977874  1.0000
  C   C11       1.0  0.2603506153908079  0.0105820021615608  0.4386015684992268  1.0000
  C   C12       1.0  0.3335534391901503  0.05300369563683227  0.45178559318467215  1.0000
  C   C13       1.0  0.4428403623122031  0.2953252674325102  0.610748551804474  1.0000
  C   C14       1.0  0.5160731901526726  0.3377480644564863  0.623993150403338  1.0000
  H   H1        1.0  0.5957287697574619  0.2151298127756014  0.35561037316698063  1.0000
  H   H2        1.0  0.4672373667068574  0.14131799245312626  0.33099961884670326  1.0000
  H   H3        1.0  0.2926127435678367  0.3574778631868172  0.5461855478872946  1.0000
  H   H4        1.0  0.1425724778277365  0.0583185470245795  0.4539580953798106  1.0000
  H   H5        1.0  0.2511430136627636  0.9139319489315157  0.40851590928825776  1.0000
  H   H6        1.0  0.3801863784712136  0.9872549615392698  0.43273172766798984  1.0000
  H   H7        1.0  0.4011709698952194  0.3172670762271441  0.6837632557914173  1.0000
  H   H8        1.0  0.5295266361007531  0.3926484731383264  0.7058821160894129  1.0000
  C   C15       1.0  0.9020495474201767  0.9973625155807081  0.5542162607355521  1.0000
  C   C16       1.0  0.9371819439353231  0.004214554516867697  0.43118712228303524  1.0000
  C   C17       1.0  0.9541565325993628  0.8905934094667671  0.3683001795876626  1.0000
  C   C18       1.0  0.9371825027398408  0.7689779319339157  0.4311379732414562  1.0000
  C   C19       1.0  0.9021213385718514  0.7601533014687937  0.5542607653306841  1.0000
  C   C20       1.0  0.8845964866676937  0.8749094318754256  0.6148668264587156  1.0000
  C   C21       1.0  0.9918946128145754  0.8976072837457475  0.23892106120253698  1.0000
  O   O1        1.0  0.03776200984408806  0.8074577718891885  0.21303381481538364  1.0000
  C   C22       1.0  0.977600618335342  0.006831244855310947  0.1389174864056184  1.0000
  C   C23       1.0  0.9064631399752119  0.06959579575851293  0.12785300764272023  1.0000
  C   C24       1.0  0.8932900213923571  0.1718996261976975  0.03213221062348803  1.0000
  N   N3        1.0  0.820950023423402  0.2355632823054794  0.02198882294302762  1.0000
  C   C25       1.0  0.9513007279716441  0.21104439561685884  0.9461403028155888  1.0000
  C   C26       1.0  0.02175229055963057  0.14814775199025654  0.9553586343406262  1.0000
  C   C27       1.0  0.03486694606462115  0.04627119326354823  0.0507760582255643  1.0000
  H   H9        1.0  0.8367085089169956  0.19166125696946024  0.7875283390566838  1.0000
  H   H10       1.0  0.9521174884273333  0.09802760493426144  0.38474264671010205  1.0000
  H   H11       1.0  0.9507272333857054  0.6811486501017452  0.3832377126367912  1.0000
  H   H12       1.0  0.8575194554579344  0.8688754946331868  0.7097018537689974  1.0000
  H   H13       1.0  0.836155940974867  0.5361476993781698  0.7870934428653413  1.0000
  H   H14       1.0  0.8609738408907891  0.0383419009654975  0.19248800101674068  1.0000
  H   H15       1.0  0.7773059449972544  0.2071720727343076  0.08558520068752262  1.0000
  H   H16       1.0  0.8105215259379085  0.31167917200907924  0.950898060850998  1.0000
  H   H17       1.0  0.9418263384433366  0.2898515473210932  0.8717865504794324  1.0000
  H   H18       1.0  0.06632090236630739  0.17840987978479084  0.888404664757175  1.0000
  H   H19       1.0  0.08996582094770611  0.9990174067397131  0.05649557019227114  1.0000
  C   C28       1.0  0.9020508023373257  0.3787875466918149  0.1728379735742056  1.0000
  C   C29       1.0  0.943097771281612  0.4937169964951398  0.16222293902092  1.0000
  C   C30       1.0  0.9630998910520736  0.5526699744619203  0.03962767445126425  1.0000
  C   C31       1.0  0.9431007616007194  0.4937657203894026  0.9269788686390985  1.0000
  C   C32       1.0  0.9021200729480068  0.37872822663794725  0.9356390634792255  1.0000
  C   C33       1.0  0.8816825900148073  0.32215791326810383  0.058989573673321916  1.0000
  C   C34       1.0  0.007054342638960653  0.6733653363677734  0.028309876156835  1.0000
  O   O2        1.0  0.053997977913994966  0.689484927848586  0.9362751946827603  1.0000
  C   C35       1.0  0.9977553854555332  0.7757655879614689  0.12134211025288866  1.0000
  C   C36       1.0  0.9274748172589112  0.8016723088154556  0.1790790435559826  1.0000
  C   C37       1.0  0.9190805484105596  0.8995805188304034  0.26590832409389575  1.0000
  N   N4        1.0  0.8475572663186473  0.924823696698128  0.3246313356506272  1.0000
  C   C38       1.0  0.9810789555369015  0.9728998977339123  0.2944007731737064  1.0000
  C   C39       1.0  0.050767702692960937  0.9489720431668061  0.23621330685542263  1.0000
  C   C40       1.0  0.05911870705104394  0.851377580788937  0.14976148445147497  1.0000
  H   H20       1.0  0.8254877855275029  0.1605665153189051  0.40032091043625195  1.0000
  H   H21       1.0  0.9602587663511115  0.5367532575448657  0.24951988447343343  1.0000
  H   H22       1.0  0.9589488129936329  0.5385405032227957  0.8323427174005009  1.0000
  H   H23       1.0  0.8500463603153563  0.23356548374072994  0.0664200070458596  1.0000
  H   H24       1.0  0.8249591232362304  0.1611145710104589  0.7447141951928833  1.0000
  H   H25       1.0  0.8789964301963055  0.7469577158676399  0.15574402511953078  1.0000
  H   H26       1.0  0.800967215216016  0.870754850335498  0.30408364453139103  1.0000
  H   H27       1.0  0.8406807855684613  0.9976741867802983  0.3892242995610027  1.0000
  H   H28       1.0  0.9753134010186489  0.04879396209359932  0.3612229620693419  1.0000
  H   H29       1.0  0.0984437518307999  0.006184687803031608  0.25815360200559145  1.0000
  H   H30       1.0  0.11369445209224915  0.8341451459857083  0.10595928733668458  1.0000
  Zn  Zn1       1.0  0.8197667940865887  0.3826607133570843  0.5554483704361028  1.0000
  Zn  Zn2       1.0  0.9843969092588701  0.3748547989291868  0.5530281780229085  1.0000
  C   C41       1.0  0.9021048325069152  0.3735654318228405  0.7914530487501426  1.0000
  C   C42       1.0  0.9020606687601187  0.38395163396793164  0.317023600853108  1.0000
  C   C43       1.0  0.9021034400854452  0.6159701743403134  0.5490768201711909  1.0000
  C   C44       1.0  0.9020620048642433  0.14154533367739908  0.5593998994112044  1.0000
  O   O3        1.0  0.9645402502192009  0.382716778779006  0.3644951637813145  1.0000
  O   O4        1.0  0.9645756990558393  0.368874798803301  0.742144241845536  1.0000
  O   O5        1.0  0.9645737325705567  0.564619733840831  0.5464237348761498  1.0000
  O   O6        1.0  0.9645421605194054  0.18697185570366437  0.5602155741943462  1.0000
  O   O7        1.0  0.8396214866458742  0.5705436592477966  0.5482609750837264  1.0000
  O   O8        1.0  0.8396234532683232  0.3748002846485161  0.7439814128930293  1.0000
  O   O9        1.0  0.8395880043355427  0.38864221948354105  0.36633077329523966  1.0000
  O   O10       1.0  0.8395899146406461  0.1928972871112009  0.5620512810836877  1.0000
