data_image0
_chemical_formula_structural       NC10NC3NH7C7OC4NC3H9C7OC3FC3H9Zn2C4O8
_chemical_formula_sum              "N4 C44 H25 O10 F1 Zn2"
_cell_length_a       19.210446455230148
_cell_length_b       10.299371701877257
_cell_length_c       10.29938172300155
_cell_angle_alpha    85.59571719418345
_cell_angle_beta     89.97418890370308
_cell_angle_gamma    89.95709994445667

_space_group_name_H-M_alt    "P 1"
_space_group_IT_number       1

loop_
  _space_group_symop_operation_xyz
  'x, y, z'

loop_
  _atom_site_type_symbol
  _atom_site_label
  _atom_site_symmetry_multiplicity
  _atom_site_fract_x
  _atom_site_fract_y
  _atom_site_fract_z
  _atom_site_occupancy
  N   N1        1.0  0.6558205071643607  0.4198231964758765  0.5678907874305155  1.0000
  C   C1        1.0  0.5955919537440788  0.4220307404967696  0.568122806169707  1.0000
  C   C2        1.0  0.5207875091505738  0.4247676907860469  0.5684102492581533  1.0000
  C   C3        1.0  0.4851759517813165  0.541000406670016  0.5835678452392099  1.0000
  C   C4        1.0  0.4125104807989838  0.541151929349559  0.5835153081635653  1.0000
  C   C5        1.0  0.3756207510133067  0.42547666973124487  0.5684970118916861  1.0000
  C   C6        1.0  0.2982986282317344  0.42412017434309845  0.5683458850534375  1.0000
  C   C7        1.0  0.2605538956289257  0.5276742520403288  0.5050255408790965  1.0000
  C   C8        1.0  0.1877755407514819  0.5262720120414623  0.5049159133766417  1.0000
  C   C9        1.0  0.1517405167999734  0.42157318872065264  0.568075735401208  1.0000
  C   C10       1.0  0.0768110019871402  0.4202710900082538  0.5679383932355684  1.0000
  N   N2        1.0  0.0165731538785804  0.41922415844363226  0.5678280049925364  1.0000
  C   C11       1.0  0.1887615964862657  0.3181447959963435  0.6313711209820956  1.0000
  C   C12       1.0  0.2615417908914192  0.31927278339081466  0.6315308855538633  1.0000
  C   C13       1.0  0.4138421501917746  0.3110642565984538  0.5536282974312918  1.0000
  N   N3        1.0  0.4846120993220389  0.3135092410385991  0.5537948249638986  1.0000
  H   H1        1.0  0.5132761833168806  0.6304357976972577  0.5956515117377317  1.0000
  H   H2        1.0  0.385240716995977  0.6311695112755815  0.5969939164643696  1.0000
  H   H3        1.0  0.2872884829122425  0.6089144350389475  0.4540674374992635  1.0000
  H   H4        1.0  0.1596362553457827  0.6066848177129311  0.45528786542248345  1.0000
  H   H5        1.0  0.1613875543470804  0.23676858158489988  0.6808993044475997  1.0000
  H   H6        1.0  0.289036018201051  0.23897950511834054  0.6825966950026465  1.0000
  H   H7        1.0  0.3875777183024597  0.2201837534522928  0.5401031015309132  1.0000
  C   C14       1.0  0.8361637652307257  0.03815328193116452  0.5677324116024636  1.0000
  C   C15       1.0  0.8395669907091968  0.04745336761251462  0.4310702546592151  1.0000
  C   C16       1.0  0.84049308844009  0.9349764570904487  0.3620793915092473  1.0000
  C   C17       1.0  0.839575552558039  0.8121851192887478  0.4313876413115423  1.0000
  C   C18       1.0  0.8362365443641886  0.8008840872860975  0.5679976045292394  1.0000
  C   C19       1.0  0.8343668284343915  0.9144698362433326  0.6353637672035761  1.0000
  C   C20       1.0  0.84481770675856  0.9446517495262295  0.21783216534196903  1.0000
  O   O1        1.0  0.8783290459208584  0.8588351509441023  0.16288180343918723  1.0000
  C   C21       1.0  0.8111140800254809  0.05159991910034445  0.13592784119662293  1.0000
  C   C22       1.0  0.8409452123447109  0.09616381539391328  0.015955300733290656  1.0000
  C   C23       1.0  0.8090769734151464  0.19609968033560898  0.9371719848454054  1.0000
  C   C24       1.0  0.840258870628958  0.24184482255984552  0.815013113422633  1.0000
  N   N4        1.0  0.8653277257354463  0.278614294320525  0.7168150949444279  1.0000
  C   C25       1.0  0.7468580619476226  0.2513917537306969  0.9773536753159884  1.0000
  C   C26       1.0  0.7164395796827402  0.2066177583710056  0.09558681053532347  1.0000
  C   C27       1.0  0.7481079568048706  0.10697969679133346  0.1743587638703814  1.0000
  H   H8        1.0  0.830811928774957  0.22791616428256023  0.8257150668464779  1.0000
  H   H9        1.0  0.8422810938509043  0.14235898936237934  0.378184446048766  1.0000
  H   H10       1.0  0.8408053971454955  0.7253319167668221  0.3783764577517612  1.0000
  H   H11       1.0  0.8317435710743871  0.9064962575086242  0.7407205492451221  1.0000
  H   H12       1.0  0.8355397290853341  0.4690813711496532  0.6205217167979595  1.0000
  H   H13       1.0  0.8892237833654617  0.053984381178692864  0.9843707777123636  1.0000
  H   H14       1.0  0.7217735593075086  0.3286341394200203  0.9171200186964565  1.0000
  H   H15       1.0  0.6680423276837657  0.248813278352346  0.12601837611375344  1.0000
  H   H16       1.0  0.7229456137702683  0.07233478244568126  0.26451728035324584  1.0000
  C   C28       1.0  0.8362587444630241  0.41941745675885045  0.1864972978439139  1.0000
  C   C29       1.0  0.8582747453238176  0.2889261835606516  0.19530934829386815  1.0000
  C   C30       1.0  0.8701352866751013  0.2235649702054645  0.08254515863061251  1.0000
  C   C31       1.0  0.8582081958299085  0.2892194287384384  0.9600434117826753  1.0000
  C   C32       1.0  0.8361415388404542  0.4196198974447849  0.949232744121554  1.0000
  C   C33       1.0  0.8254699698769797  0.48406800355234436  0.06304909939793224  1.0000
  C   C34       1.0  0.8926780846448291  0.08535882794037408  0.09173848749318991  1.0000
  O   O2        1.0  0.8712312957543519  0.012150193146437838  0.007535494492879824  1.0000
  C   C35       1.0  0.9395559414845454  0.030207778861218504  0.19635639527770343  1.0000
  C   C36       1.0  0.9339357298780013  0.898256006752737  0.24158463748595627  1.0000
  C   C37       1.0  0.9784424411952665  0.8449748753327492  0.33911486123741286  1.0000
  F   F1        1.0  0.9722661935175732  0.7179177104327861  0.3827405526698182  1.0000
  C   C38       1.0  0.029289147265479487  0.9225141794839765  0.3916009276467798  1.0000
  C   C39       1.0  0.03591168345561058  0.053258837018498095  0.34630703344292413  1.0000
  C   C40       1.0  0.9915430469771693  0.10695151030272143  0.24884790470182727  1.0000
  H   H17       1.0  0.7936892549561106  0.6650587925194527  0.37723547980449945  1.0000
  H   H18       1.0  0.8654815779524566  0.23752364797188608  0.2900958150355415  1.0000
  H   H19       1.0  0.866831209230154  0.23865552948059587  0.8729985281833934  1.0000
  H   H20       1.0  0.8084969470240276  0.5846667508861545  0.05545160972519425  1.0000
  H   H21       1.0  0.8271034887755537  0.46937620557251547  0.6176494501879506  1.0000
  H   H22       1.0  0.8947162115747263  0.8368047440290665  0.20219712621978325  1.0000
  H   H23       1.0  0.06376460219417202  0.881248427677795  0.466997283174426  1.0000
  H   H24       1.0  0.0756772412922575  0.11296145215448217  0.38633276595765365  1.0000
  H   H25       1.0  0.9983965424970762  0.20789923597823412  0.21362109300716647  1.0000
  Zn  Zn1       1.0  0.7599259259977957  0.4196468649633931  0.5678801676142258  1.0000
  Zn  Zn2       1.0  0.9124677164613982  0.4193899101906269  0.5678492568730107  1.0000
  C   C41       1.0  0.836161665180481  0.4144079636435243  0.8050575964567719  1.0000
  C   C42       1.0  0.8362336431670903  0.42463044736437605  0.330671955728711  1.0000
  C   C43       1.0  0.8362199978984381  0.6567103773154386  0.562772326298677  1.0000
  C   C44       1.0  0.8361752582377657  0.18232647348985087  0.5729572945932546  1.0000
  O   O3        1.0  0.8941140329049799  0.42627679587217426  0.3790465555314593  1.0000
  O   O4        1.0  0.894056964791649  0.41256561258315694  0.7566591619311651  1.0000
  O   O5        1.0  0.8941032886227458  0.6082278776284749  0.5610120926976678  1.0000
  O   O6        1.0  0.8940676570375495  0.23061454017894678  0.5746935274043738  1.0000
  O   O7        1.0  0.7783259333666189  0.6084222350641715  0.5610358970865805  1.0000
  O   O8        1.0  0.7782796096918642  0.4127615303105625  0.756682897617347  1.0000
  O   O9        1.0  0.7783366780870559  0.4264726679288722  0.37906872980613326  1.0000
  O   O10       1.0  0.7782903022009338  0.2308104029726521  0.5747157990433485  1.0000
