data_image0
_chemical_formula_structural       NC8NC6H8C7OC3NC3H11C7OC4NC3H9Zn2C4O8
_chemical_formula_sum              "N4 C45 H28 O10 Zn2"
_cell_length_a       17.457602349358154
_cell_length_b       10.298746005989749
_cell_length_c       10.299375074045738
_cell_angle_alpha    85.54279281073397
_cell_angle_beta     92.86983099302364
_cell_angle_gamma    91.69721484149154

_space_group_name_H-M_alt    "P 1"
_space_group_IT_number       1

loop_
  _space_group_symop_operation_xyz
  'x, y, z'

loop_
  _atom_site_type_symbol
  _atom_site_label
  _atom_site_symmetry_multiplicity
  _atom_site_fract_x
  _atom_site_fract_y
  _atom_site_fract_z
  _atom_site_occupancy
  N   N1        1.0  0.7226585623842428  0.4534758842325344  0.6265460748206066  1.0000
  C   C1        1.0  0.6615769414472229  0.40755077553233243  0.6159267983542991  1.0000
  C   C2        1.0  0.5855888218650478  0.35042565156488426  0.6027259611791931  1.0000
  C   C3        1.0  0.5270589305176333  0.39056258121322607  0.6776295161763388  1.0000
  C   C4        1.0  0.4525090552531436  0.3355556677678284  0.6650432861699045  1.0000
  C   C5        1.0  0.3903881807387506  0.37793426381751916  0.7443689830984928  1.0000
  C   C6        1.0  0.3158471060966535  0.3964253412655858  0.688604367569871  1.0000
  C   C7        1.0  0.2573171868450624  0.4363782889300274  0.7636158683747634  1.0000
  C   C8        1.0  0.1813381666419151  0.4554761094406292  0.7056357393041726  1.0000
  N   N2        1.0  0.12026395028238002  0.47082437683380896  0.6590198661543833  1.0000
  C   C9        1.0  0.2728361681208505  0.45808312887698843  0.8949005402084667  1.0000
  C   C10       1.0  0.3465925496291201  0.43998092454190796  0.9510527965071593  1.0000
  C   C11       1.0  0.40511084996039354  0.40020787329938234  0.8764990485056681  1.0000
  C   C12       1.0  0.4377777500677604  0.23973488985673774  0.5761204751954381  1.0000
  C   C13       1.0  0.4962959226947651  0.19987651254420347  0.5016169592380426  1.0000
  C   C14       1.0  0.5700610054868496  0.2549956030309377  0.5147531698546541  1.0000
  H   H1        1.0  0.5394056405085901  0.46573810132409843  0.7442681227640906  1.0000
  H   H2        1.0  0.3035076442823977  0.38149240329407386  0.5865745686992625  1.0000
  H   H3        1.0  0.2279741403519095  0.48894626134737607  0.9537409473803851  1.0000
  H   H4        1.0  0.3584184756607118  0.45647179685796746  0.05270942437602666  1.0000
  H   H5        1.0  0.4615918698571208  0.3851973365462058  0.922606434044736  1.0000
  H   H6        1.0  0.3812894663009065  0.1943995131860301  0.565465120171522  1.0000
  H   H7        1.0  0.484463211767341  0.12581800260619724  0.43378005630111405  1.0000
  H   H8        1.0  0.6149229586160005  0.22326250509933376  0.45642385043146483  1.0000
  C   C15       1.0  0.9214282619821252  0.0807466000637247  0.6427631058098962  1.0000
  C   C16       1.0  0.9573261610940277  0.09086669886613108  0.523186008397984  1.0000
  C   C17       1.0  0.9746711655525785  0.9788256083949842  0.4619671303058801  1.0000
  C   C18       1.0  0.957326739680852  0.8556301427460407  0.5231369166543947  1.0000
  C   C19       1.0  0.9215015697022773  0.8435439732482134  0.6428146494722728  1.0000
  C   C20       1.0  0.9035949904954487  0.9566701541787781  0.7016987913853847  1.0000
  C   C21       1.0  0.01323107657240441  0.9893490750096923  0.3362959417986169  1.0000
  O   O1        1.0  0.06007616537984628  0.9034248595008686  0.3149087105676587  1.0000
  C   C22       1.0  0.9986498157740679  0.09728944035141618  0.2348954694683678  1.0000
  C   C23       1.0  0.9260042530184545  0.15351653592617964  0.2168543419481015  1.0000
  C   C24       1.0  0.9125669680090304  0.2546385170657879  0.11984636663708259  1.0000
  N   N3        1.0  0.8386932141297728  0.3116538675695444  0.10260833964159599  1.0000
  C   C25       1.0  0.9718227915229917  0.29914356380637974  0.039548542684980204  1.0000
  C   C26       1.0  0.04376817775056718  0.2427218744095183  0.0556763414433592  1.0000
  C   C27       1.0  0.057145807721916464  0.1420218825979449  0.15237522489414101  1.0000
  H   H9        1.0  0.8546627776725984  0.26896585581671006  0.8696546728126267  1.0000
  H   H10       1.0  0.9725861931814183  0.1860672748380805  0.47820877363257286  1.0000
  H   H11       1.0  0.9711666730354392  0.7690609525808508  0.4765675587024658  1.0000
  H   H12       1.0  0.8759279733113482  0.9481174727937753  0.7938732814563261  1.0000
  H   H13       1.0  0.8540985517685445  0.6134016249296446  0.869165602438047  1.0000
  H   H14       1.0  0.8795390417606624  0.11806021884992557  0.2770244411394138  1.0000
  H   H15       1.0  0.7941125550898528  0.27923021624595945  0.16192085624485664  1.0000
  H   H16       1.0  0.8280548339410079  0.38683270823595683  0.030498345593310994  1.0000
  H   H17       1.0  0.9621592958259608  0.3771023948103247  0.9642693032266227  1.0000
  H   H18       1.0  0.0892935342436072  0.2771024820419603  0.9930970819347138  1.0000
  H   H19       1.0  0.11341321482936362  0.09983249625237534  0.163498579939239  1.0000
  C   C28       1.0  0.9214910143674478  0.462288782505035  0.2614042638682077  1.0000
  C   C29       1.0  0.9805547270073411  0.5579846901621133  0.2577902583338245  1.0000
  C   C30       1.0  0.009748904034631911  0.6073053737544682  0.13866141605272864  1.0000
  C   C31       1.0  0.9804304875458805  0.5577415135066854  0.022554780859719292  1.0000
  C   C32       1.0  0.9214388032272343  0.4620017959506517  0.02417353866488936  1.0000
  C   C33       1.0  0.8921728793328556  0.4150747429254231  0.14409293837068593  1.0000
  C   C34       1.0  0.07266689966063633  0.7073777373150689  0.13482840962809983  1.0000
  O   O2        1.0  0.1216942479876455  0.7048315007003925  0.04919742483174527  1.0000
  C   C35       1.0  0.07995503583726848  0.8103499277686632  0.22805628860696925  1.0000
  C   C36       1.0  0.15291650090059905  0.8600983717438351  0.2657746400861982  1.0000
  C   C37       1.0  0.1603603358966843  0.9584432790819397  0.3526051926945335  1.0000
  C   C38       1.0  0.23528623406849514  0.008068089930907352  0.391515082613056  1.0000
  N   N4        1.0  0.29551821458682204  0.04795522957139342  0.4227904888058369  1.0000
  C   C39       1.0  0.09484991904134255  0.008440455747087405  0.4014513211469173  1.0000
  C   C40       1.0  0.022144228582115844  0.9607149924636942  0.3632530265821905  1.0000
  C   C41       1.0  0.014547836671616299  0.8626334361161612  0.2766855890401616  1.0000
  H   H20       1.0  0.8108375472096765  0.280270830612801  0.47572499992618944  1.0000
  H   H21       1.0  0.004510069993794108  0.5932341264524779  0.34793206651978625  1.0000
  H   H22       1.0  0.003270298374522085  0.5949769963206624  0.9306771906045173  1.0000
  H   H23       1.0  0.8466393274488458  0.3412995322078163  0.1460752745388476  1.0000
  H   H24       1.0  0.8992191983087796  0.4244424550247299  0.6974364880908546  1.0000
  H   H25       1.0  0.20391649719723448  0.8216000521312044  0.22855688822314257  1.0000
  H   H26       1.0  0.09997513419855286  0.0845485031215647  0.46855364130571453  1.0000
  H   H27       1.0  0.9715265548141176  0.00020877454169410115  0.40035324383120474  1.0000
  H   H28       1.0  0.9575594569147133  0.8287506977559074  0.2467259624320155  1.0000
  Zn  Zn1       1.0  0.8373988877670016  0.4584787986077259  0.6359248080689555  1.0000
  Zn  Zn2       1.0  0.005523608898683863  0.46581080966746624  0.6496517651516214  1.0000
  C   C42       1.0  0.921446482475156  0.4568817972430339  0.8799932968645492  1.0000
  C   C43       1.0  0.9214778502560502  0.46740952981843464  0.40558355383644007  1.0000
  C   C44       1.0  0.9214841268789339  0.6993607912441242  0.6376292114570186  1.0000
  C   C45       1.0  0.921440148328332  0.22492897284461977  0.6479477036959278  1.0000
  O   O3        1.0  0.9852758871955051  0.4719048931237626  0.45918074893509986  1.0000
  O   O4        1.0  0.9852512186648075  0.4579502810097531  0.8368141706438077  1.0000
  O   O5        1.0  0.9852807568169263  0.6537550972140234  0.6411033867774039  1.0000
  O   O6        1.0  0.9852462916813629  0.2761000837452836  0.6548914307393727  1.0000
  O   O7        1.0  0.8576761476116067  0.6481895220292697  0.6306851377900353  1.0000
  O   O8        1.0  0.8576466096107129  0.4523862662970841  0.8263958525133139  1.0000
  O   O9        1.0  0.8576712782949169  0.4663408337407715  0.44876086934072146  1.0000
  O   O10       1.0  0.8576416827700826  0.270536015035862  0.6444716485159578  1.0000
