data_image0
_chemical_formula_structural       NC12NC2H8C7OC6OCH12C7OC3FC3H9Zn2C4O8
_chemical_formula_sum              "N2 C45 H29 O11 F1 Zn2"
_cell_length_a       17.80743265337812
_cell_length_b       10.299359160628079
_cell_length_c       10.29938172300155
_cell_angle_alpha    85.58141560917656
_cell_angle_beta     91.51787109396743
_cell_angle_gamma    89.45809633783337

_space_group_name_H-M_alt    "P 1"
_space_group_IT_number       1

loop_
  _space_group_symop_operation_xyz
  'x, y, z'

loop_
  _atom_site_type_symbol
  _atom_site_label
  _atom_site_symmetry_multiplicity
  _atom_site_fract_x
  _atom_site_fract_y
  _atom_site_fract_z
  _atom_site_occupancy
  N   N1        1.0  0.7079695345742999  0.4062979334640018  0.6015546107638989  1.0000
  C   C1        1.0  0.6571674560725591  0.43583697679898226  0.5328616129837647  1.0000
  C   C2        1.0  0.5939646537647498  0.47258140362259615  0.4474161712316067  1.0000
  C   C3        1.0  0.6057239141790757  0.5265656645942987  0.32080693804384897  1.0000
  C   C4        1.0  0.5444277378287097  0.5618071807640501  0.23775721595664767  1.0000
  C   C5        1.0  0.4712181635964328  0.5433277102515401  0.28065687734985345  1.0000
  C   C6        1.0  0.4584820281977448  0.4892247826799012  0.40773422489566924  1.0000
  C   C7        1.0  0.5206355240122604  0.45398651558181524  0.4907674361639154  1.0000
  C   C8        1.0  0.3807035362764049  0.4696320103931946  0.45349395611256127  1.0000
  C   C9        1.0  0.3619040261873506  0.4968567052563204  0.5805385905362022  1.0000
  C   C10       1.0  0.2886645091809599  0.4784188209719942  0.6234788193206362  1.0000
  C   C11       1.0  0.23328134397137223  0.4325022142499855  0.5402123261160379  1.0000
  C   C12       1.0  0.1579048769429277  0.41351191005507637  0.5845533715818152  1.0000
  N   N2        1.0  0.09730753527583381  0.39824498265025454  0.6202005217646724  1.0000
  C   C13       1.0  0.2513892377734637  0.4051087651136773  0.41371062436938755  1.0000
  C   C14       1.0  0.3245759428178538  0.42356135894474556  0.37051451728073626  1.0000
  H   H1        1.0  0.662198326376513  0.5413794731704642  0.2863728278237885  1.0000
  H   H2        1.0  0.5536506199496267  0.6038759683428085  0.13998633846062125  1.0000
  H   H3        1.0  0.4245957719194437  0.5729442900231019  0.21507175382871235  1.0000
  H   H4        1.0  0.5121107310320039  0.4105323539090109  0.5884136872908898  1.0000
  H   H5        1.0  0.40357867536870773  0.5340562852598889  0.6461149140662115  1.0000
  H   H6        1.0  0.2752108870367885  0.5002940392029316  0.7214880284904344  1.0000
  H   H7        1.0  0.20899793208808604  0.36917661625961395  0.34854741284204205  1.0000
  H   H8        1.0  0.3375007763986977  0.40015065236970626  0.2728084316108341  1.0000
  C   C15       1.0  0.9025537319354495  0.020894923756197947  0.6108419971225372  1.0000
  C   C16       1.0  0.8404301644288735  0.02743853303430832  0.5234706164786291  1.0000
  C   C17       1.0  0.809635463214991  0.9137429182902436  0.47833555509458825  1.0000
  C   C18       1.0  0.8406090697908268  0.7921733868294777  0.523734288477675  1.0000
  C   C19       1.0  0.9027305331109347  0.7836378337401305  0.6109247101054021  1.0000
  C   C20       1.0  0.9334488939605304  0.8985899844690803  0.6537706118162159  1.0000
  C   C21       1.0  0.7435171387837918  0.922799925664429  0.3872363565298125  1.0000
  O   O1        1.0  0.6957743502390449  0.012663153404891103  0.3965163249181751  1.0000
  C   C22       1.0  0.7315583550777016  0.8299827053869944  0.285617036650585  1.0000
  C   C23       1.0  0.7926740621213966  0.7753528813187974  0.22448934279087185  1.0000
  C   C24       1.0  0.7806150843009511  0.6891903330097845  0.12783087202966636  1.0000
  C   C25       1.0  0.7076387177611245  0.6567762595557805  0.08957355193630012  1.0000
  C   C26       1.0  0.6462703600911881  0.7124457392861377  0.1493773987697049  1.0000
  C   C27       1.0  0.6582606343147197  0.7986686102275078  0.24607900030827956  1.0000
  O   O2        1.0  0.6985558328912712  0.5697115494930561  0.9922411236875006  1.0000
  C   C28       1.0  0.6277671786865103  0.5283194438943966  0.9439832881469954  1.0000
  H   H9        1.0  0.019584421966533316  0.2157892032398181  0.7761205990673508  1.0000
  H   H10       1.0  0.8162749495627627  0.12125750699934512  0.4893293026808374  1.0000
  H   H11       1.0  0.8156746965177626  0.7040439257608618  0.4920889621003055  1.0000
  H   H12       1.0  0.9813689792557407  0.8927378333384557  0.7210337139260155  1.0000
  H   H13       1.0  0.9263685807647967  0.45286213608935233  0.6447745929711062  1.0000
  H   H14       1.0  0.8497855501164925  0.8002657056432999  0.25035539596292833  1.0000
  H   H15       1.0  0.8283007672832131  0.6477436348531828  0.08193376430562793  1.0000
  H   H16       1.0  0.589127750482619  0.6898101158258547  0.12186525415113181  1.0000
  H   H17       1.0  0.6101552609810601  0.8400779185426503  0.2909052566809043  1.0000
  H   H18       1.0  0.6371577545584971  0.459709639951734  0.8679588792816917  1.0000
  H   H19       1.0  0.5947634837275801  0.6133391297503478  0.8998930522797002  1.0000
  H   H20       1.0  0.5962176677130762  0.477424105649872  0.02400734069449828  1.0000
  C   C29       1.0  0.9027053484997879  0.4021639505582686  0.22951868372656792  1.0000
  C   C30       1.0  0.9264490522076343  0.27121544786971974  0.23950434921885555  1.0000
  C   C31       1.0  0.9392409840339325  0.20560800240352473  0.12737120777876787  1.0000
  C   C32       1.0  0.9263772672148263  0.2715100733421807  0.0042348898480919495  1.0000
  C   C33       1.0  0.9025788817733805  0.4023688165787498  0.9922480023149856  1.0000
  C   C34       1.0  0.8910700169306363  0.4670385717907186  0.10549519208745983  1.0000
  C   C35       1.0  0.9635522336200643  0.06693360801456572  0.13776735558239506  1.0000
  O   O3        1.0  0.9403966063452152  0.994166800798579  0.0524700211505198  1.0000
  C   C36       1.0  0.014137510559411037  0.010812977450521899  0.24482980336860227  1.0000
  C   C37       1.0  0.008054965688479632  0.8789749723980654  0.28979881310502176  1.0000
  C   C38       1.0  0.05608145230499906  0.8247732858005441  0.3896501533518548  1.0000
  F   F1        1.0  0.04939944246325756  0.6978414643216111  0.4329865809511275  1.0000
  C   C39       1.0  0.11096715564096282  0.9012633752540513  0.44475417276219487  1.0000
  C   C40       1.0  0.11813129215485385  0.03187353400980264  0.3997717860724457  1.0000
  C   C41       1.0  0.07025387421154994  0.08648391690871904  0.29999860082782304  1.0000
  H   H21       1.0  0.8567943642297765  0.6486892525033932  0.41798922812005634  1.0000
  H   H22       1.0  0.93422032113567  0.21966308513073263  0.3346771150279093  1.0000
  H   H23       1.0  0.9356770407738073  0.22076710063077676  0.9176495431121867  1.0000
  H   H24       1.0  0.8727650379955563  0.5679898157363108  0.0969929157993179  1.0000
  H   H25       1.0  0.8928310807003729  0.4523127592617764  0.6601838451199411  1.0000
  H   H26       1.0  0.9657198416677085  0.818332969606536  0.24839240113560868  1.0000
  H   H27       1.0  0.14816907334883878  0.8592845500160319  0.5219484925591291  1.0000
  H   H28       1.0  0.1610554977362586  0.09075557562693093  0.4418451638221639  1.0000
  H   H29       1.0  0.07766343269514775  0.18729183912751157  0.26510255213088496  1.0000
  Zn  Zn1       1.0  0.8203240727069286  0.4039705604749724  0.6069429043777022  1.0000
  Zn  Zn2       1.0  0.9849529904377978  0.4005617648159816  0.6148228199352093  1.0000
  C   C42       1.0  0.9025999315327569  0.3971563737702799  0.8480751714297938  1.0000
  C   C43       1.0  0.9026789297133171  0.40737755298301237  0.37369076657418554  1.0000
  C   C44       1.0  0.9026940978552761  0.6394619129068404  0.6057337430984266  1.0000
  C   C45       1.0  0.902584706841315  0.1650704546947519  0.616032261285423  1.0000
  O   O4        1.0  0.9651458783220275  0.4078279995424683  0.4250666208795286  1.0000
  O   O5        1.0  0.9650825220628031  0.3941177503374764  0.8026796167557182  1.0000
  O   O6        1.0  0.9651577201313902  0.5897825553634135  0.6069871586062621  1.0000
  O   O7        1.0  0.9650706240950379  0.21216320494396967  0.6207589789675314  1.0000
  O   O8        1.0  0.8402063828699201  0.5923691215116511  0.6010067426495209  1.0000
  O   O9        1.0  0.8401311851710473  0.3967058768020799  0.7966991317232468  1.0000
  O   O10       1.0  0.8401945417285839  0.41041608032972476  0.41908457446132164  1.0000
  O   O11       1.0  0.8401192874802283  0.21475127646845427  0.6147770299149182  1.0000
