data_image0
_chemical_formula_structural       NC9NC5H8C7OC3OC4H12C7OC6H10Zn2C4O8
_chemical_formula_sum              "N2 C45 H30 O11 Zn2"
_cell_length_a       17.807436237873137
_cell_length_b       10.299371110280156
_cell_length_c       10.299382801718286
_cell_angle_alpha    85.58971110706742
_cell_angle_beta     89.37299496534968
_cell_angle_gamma    88.40331171880233

_space_group_name_H-M_alt    "P 1"
_space_group_IT_number       1

loop_
  _space_group_symop_operation_xyz
  'x, y, z'

loop_
  _atom_site_type_symbol
  _atom_site_label
  _atom_site_symmetry_multiplicity
  _atom_site_fract_x
  _atom_site_fract_y
  _atom_site_fract_z
  _atom_site_occupancy
  N   N1        1.0  0.7078795913801418  0.38747225019511977  0.5575562066886861  1.0000
  C   C1        1.0  0.6472895699011636  0.35228042284198824  0.546521157157142  1.0000
  C   C2        1.0  0.5719222425916916  0.30850566513812905  0.5327947537299405  1.0000
  C   C3        1.0  0.5538420585465365  0.23707023425341722  0.4277687729204216  1.0000
  C   C4        1.0  0.4806642742699667  0.19445680555250666  0.41435865605321687  1.0000
  C   C5        1.0  0.4245179118900931  0.2229012722700321  0.5059419494848747  1.0000
  C   C6        1.0  0.3467487901684911  0.17772910494952399  0.4917725790939609  1.0000
  C   C7        1.0  0.2845781619759533  0.25949021699759744  0.5177373563870948  1.0000
  C   C8        1.0  0.2112580432288799  0.2166737531494798  0.5043408569207097  1.0000
  C   C9        1.0  0.1480376103321205  0.30112628449450174  0.5306703853380508  1.0000
  N   N2        1.0  0.0972213699447746  0.3690202771457307  0.5518385978572025  1.0000
  C   C10       1.0  0.19952497862214394  0.09183819270977067  0.46495414916541566  1.0000
  C   C11       1.0  0.2608382368099913  0.010063226748293408  0.4389809777654603  1.0000
  C   C12       1.0  0.3340389111878814  0.05248511061578709  0.45217481351028166  1.0000
  C   C13       1.0  0.4432895227345003  0.2948311115949487  0.6111873167510453  1.0000
  C   C14       1.0  0.5165201837931743  0.3372541158222768  0.6244417219857472  1.0000
  H   H1        1.0  0.5962481344840268  0.2145710604687383  0.35604847409769347  1.0000
  H   H2        1.0  0.46776095145271257  0.14075844257322445  0.3314207787951371  1.0000
  H   H3        1.0  0.2930828534165755  0.35696058160042266  0.5466452029072353  1.0000
  H   H4        1.0  0.1430575309273608  0.057800131154743584  0.454348504445246  1.0000
  H   H5        1.0  0.2516355460143572  0.9134127262742258  0.4088729696039981  1.0000
  H   H6        1.0  0.3806747853909072  0.9867364664510789  0.43310563479523223  1.0000
  H   H7        1.0  0.4016000005120743  0.3167914893317323  0.6842019532292747  1.0000
  H   H8        1.0  0.5299522232412218  0.39217285943926905  0.7063383489764632  1.0000
  C   C15       1.0  0.9025034420397863  0.9968770870492483  0.5545833125370985  1.0000
  C   C16       1.0  0.8938743228338065  0.006550047479737309  0.4187265683210042  1.0000
  C   C17       1.0  0.8886733961763331  0.894282150341304  0.35038483532855524  1.0000
  C   C18       1.0  0.8939115513282544  0.7712804558726772  0.419037103832435  1.0000
  C   C19       1.0  0.9026046985332283  0.759605150682996  0.5548226749124503  1.0000
  C   C20       1.0  0.9066536424870488  0.8730121756392117  0.6218506380747457  1.0000
  C   C21       1.0  0.8803451479920176  0.9043309313458943  0.20676185104447797  1.0000
  O   O1        1.0  0.9111535712039194  0.817821094088313  0.14228725345292403  1.0000
  C   C22       1.0  0.8370579364857689  0.01243934375995659  0.1362875545348441  1.0000
  C   C23       1.0  0.8580819413191262  0.05658120141554979  0.008837792299996483  1.0000
  C   C24       1.0  0.8174605834282769  0.15750774491598207  0.9400543650361124  1.0000
  O   O2        1.0  0.8414709113812164  0.19815560893031092  0.8136054459538618  1.0000
  C   C25       1.0  0.8056766270152375  0.29932314137465155  0.7326970882139343  1.0000
  C   C26       1.0  0.7544289186793077  0.21436380542217348  0.999467381467519  1.0000
  C   C27       1.0  0.7326339233408226  0.16996838888773858  0.1254114252361216  1.0000
  C   C28       1.0  0.7733887490597539  0.06931669184705314  0.19344072397691447  1.0000
  H   H9        1.0  0.9199339617697471  0.18590827776410723  0.8107172080759577  1.0000
  H   H10       1.0  0.8920245805256445  0.10156307544637744  0.36572465608279936  1.0000
  H   H11       1.0  0.890467841798584  0.684574295723998  0.3663658639397911  1.0000
  H   H12       1.0  0.9133065446557035  0.8647512077635608  0.726586226229958  1.0000
  H   H13       1.0  0.9065691308991239  0.4276430879045869  0.6068506928367241  1.0000
  H   H14       1.0  0.906664619310868  0.013374945919413683  0.9627520511966687  1.0000
  H   H15       1.0  0.8363412295044106  0.31094497749266914  0.6383770202727135  1.0000
  H   H16       1.0  0.8067741542614794  0.3927358628437654  0.7796994622376037  1.0000
  H   H17       1.0  0.7468054686044635  0.27387649375103074  0.7137976434667563  1.0000
  H   H18       1.0  0.7218069097806527  0.29240037847435585  0.9490585886800713  1.0000
  H   H19       1.0  0.6837675537364288  0.21334928507549256  0.17027961498024502  1.0000
  H   H20       1.0  0.7546288716649345  0.03507399869647099  0.29009372951709844  1.0000
  C   C29       1.0  0.9026289984268309  0.37816433803552885  0.17333207320966348  1.0000
  C   C30       1.0  0.9815542643140119  0.3752873292179535  0.17086965852405878  1.0000
  C   C31       1.0  0.02136173274947617  0.37234817137675136  0.05256910387437719  1.0000
  C   C32       1.0  0.981371198456893  0.37532404209122583  0.935626787045841  1.0000
  C   C33       1.0  0.9024791050101348  0.37831789822594186  0.9360738548241314  1.0000
  C   C34       1.0  0.863565588993694  0.37937595829341975  0.055485494582993455  1.0000
  C   C35       1.0  0.10469673818591141  0.37069437574923425  0.049717546787888534  1.0000
  O   O3        1.0  0.13780586652055749  0.42983445487483474  0.9547236480349288  1.0000
  C   C36       1.0  0.15047127850137376  0.3019414365961053  0.15453047828219924  1.0000
  C   C37       1.0  0.22109080513061352  0.34905465788565637  0.18461076883951844  1.0000
  C   C38       1.0  0.2650335790499321  0.28403786630089867  0.28219999771612714  1.0000
  C   C39       1.0  0.2392767256474495  0.1709543486021199  0.34990608688155045  1.0000
  C   C40       1.0  0.1696532067358143  0.12234695295325793  0.31978769391623296  1.0000
  C   C41       1.0  0.12549636978876477  0.18699517511465968  0.22230354971767596  1.0000
  H   H21       1.0  0.7536854741289382  0.3856053769382719  0.3851441931273374  1.0000
  H   H22       1.0  0.012160256772453248  0.3767873202219847  0.2610199799093136  1.0000
  H   H23       1.0  0.011984534114539258  0.37404454518610697  0.8442257960564747  1.0000
  H   H24       1.0  0.8027201557378818  0.3815947140309186  0.05657959572548821  1.0000
  H   H25       1.0  0.872172389005869  0.3805729825845796  0.608704134563975  1.0000
  H   H26       1.0  0.24195981942566291  0.4367391509370222  0.13339682604602587  1.0000
  H   H27       1.0  0.31911660350254434  0.32135869312462173  0.3052910647262559  1.0000
  H   H28       1.0  0.27339797803838595  0.12070971999667424  0.42533304932062066  1.0000
  H   H29       1.0  0.15000697919236994  0.034148597568954164  0.3716122978888259  1.0000
  H   H30       1.0  0.07231499513841477  0.1463494296871568  0.19901198419151034  1.0000
  Zn  Zn1       1.0  0.8202352152999025  0.38214394558263454  0.5559137380313346  1.0000
  Zn  Zn2       1.0  0.9848657243248023  0.374337997730686  0.5534917398604575  1.0000
  C   C42       1.0  0.9025050980027446  0.3731152640869142  0.7918977603339277  1.0000
  C   C43       1.0  0.9025976395744744  0.38336823263138586  0.3175078190910381  1.0000
  C   C44       1.0  0.9025827024851908  0.6154324437023131  0.5496022737889308  1.0000
  C   C45       1.0  0.9025199786944149  0.14104949539054878  0.5598033752118621  1.0000
  O   O4        1.0  0.9650635347008958  0.38214672492419544  0.3649753790091188  1.0000
  O   O5        1.0  0.9649899498789456  0.3684112581937862  0.7425915856899439  1.0000
  O   O6        1.0  0.9650517740026104  0.5640854854575137  0.5469362788384033  1.0000
  O   O7        1.0  0.9650016544203555  0.18647250959473083  0.5606305893148609  1.0000
  O   O8        1.0  0.8400992290240379  0.5700094363837886  0.5487748893966096  1.0000
  O   O9        1.0  0.8400374051176747  0.3743367694106987  0.7444301274920011  1.0000
  O   O10       1.0  0.8401109902903696  0.388072190568427  0.3668123593873782  1.0000
  O   O11       1.0  0.8400491099863934  0.1923979659698989  0.5624676670585977  1.0000
