data_image0
_chemical_formula_structural       NC10NC5H10C7OC6H10C7OC6H10Zn2C4O8
_chemical_formula_sum              "N2 C45 H30 O10 Zn2"
_cell_length_a       19.4436361288709
_cell_length_b       10.299379429549807
_cell_length_c       10.299382801718286
_cell_angle_alpha    85.54943384292815
_cell_angle_beta     89.6852200800954
_cell_angle_gamma    89.41578640036583

_space_group_name_H-M_alt    "P 1"
_space_group_IT_number       1

loop_
  _space_group_symop_operation_xyz
  'x, y, z'

loop_
  _atom_site_type_symbol
  _atom_site_label
  _atom_site_symmetry_multiplicity
  _atom_site_fract_x
  _atom_site_fract_y
  _atom_site_fract_z
  _atom_site_occupancy
  N   N1        1.0  0.6478742376752867  0.409124174638152  0.5615773352205631  1.0000
  C   C1        1.0  0.5890363461163255  0.41902674568483667  0.5759578228148658  1.0000
  C   C2        1.0  0.5157046161158649  0.4313765796782403  0.5939457912600166  1.0000
  C   C3        1.0  0.4735329891752517  0.3993771086141715  0.4992830410118436  1.0000
  C   C4        1.0  0.3976274242998812  0.40981602345681933  0.5046073867998628  1.0000
  C   C5        1.0  0.3578756341760987  0.3850676121199639  0.6116893645506325  1.0000
  C   C6        1.0  0.281756580543963  0.38898434463434106  0.5987284979982472  1.0000
  C   C7        1.0  0.2411807868564479  0.44664964093464743  0.6924789397898381  1.0000
  C   C8        1.0  0.1695185940844985  0.4502875119402987  0.6819336662142679  1.0000
  C   C9        1.0  0.13743741367153833  0.39586405544979386  0.5779246218873757  1.0000
  C   C10       1.0  0.0636459938015911  0.39956317187980717  0.5672240433305942  1.0000
  N   N2        1.0  0.004322697212245  0.40253706738467065  0.5586214875882889  1.0000
  C   C11       1.0  0.1772882863047991  0.3374916322958812  0.4845576720976208  1.0000
  C   C12       1.0  0.248966940363433  0.3337995322773468  0.4948511863125944  1.0000
  C   C13       1.0  0.38599328402478966  0.34460563208181383  0.7427993424541235  1.0000
  C   C14       1.0  0.4446500164868225  0.38773027543872085  0.7900265783560965  1.0000
  C   C15       1.0  0.4888642299379243  0.4855933165061004  0.71562345409659  1.0000
  H   H1        1.0  0.49564383814750806  0.3702576876905257  0.4089861860982871  1.0000
  H   H2        1.0  0.3729399372280444  0.43231120419827884  0.41144038640244873  1.0000
  H   H3        1.0  0.2650402264817777  0.48994356196760047  0.773312141262245  1.0000
  H   H4        1.0  0.1391636957318621  0.495605209649727  0.7548386267320646  1.0000
  H   H5        1.0  0.1529569181911505  0.2943933822106506  0.4040588850543869  1.0000
  H   H6        1.0  0.2786561906273052  0.2862383264094084  0.4226433711090132  1.0000
  H   H7        1.0  0.35502144092278937  0.2803855069375527  0.8070697629172778  1.0000
  H   H8        1.0  0.4597886946888693  0.3536619237841043  0.8879738617950981  1.0000
  H   H9        1.0  0.4587561570108001  0.5763124054950657  0.6903387158509935  1.0000
  H   H10       1.0  0.5321409274993756  0.5111812162057767  0.778699584936914  1.0000
  C   C16       1.0  0.8261092338319417  0.024438550911147106  0.5602534120314644  1.0000
  C   C17       1.0  0.86778195352986  0.013801585849015696  0.6716530609397788  1.0000
  C   C18       1.0  0.8881556132279138  0.8912094315018481  0.7286963382280565  1.0000
  C   C19       1.0  0.8676982857909099  0.7785810057618103  0.6713774733553663  1.0000
  C   C20       1.0  0.8260942808217135  0.7872125970183749  0.5599566295645271  1.0000
  C   C21       1.0  0.805391659645067  0.9106138578526478  0.5052392655063576  1.0000
  C   C22       1.0  0.9327563711111884  0.8798832214506137  0.8455235498804146  1.0000
  O   O1        1.0  0.9763882228145816  0.7882928847519872  0.8575178907808518  1.0000
  C   C23       1.0  0.9278557541090313  0.9723595647478434  0.9487485676404996  1.0000
  C   C24       1.0  0.9866741243862726  0.0007513000955159388  0.019823209832490418  1.0000
  C   C25       1.0  0.9823963741682101  0.08660911519547465  0.11835058812404908  1.0000
  C   C26       1.0  0.9193874119090422  0.1440727224032945  0.14763120294132004  1.0000
  C   C27       1.0  0.860463191304743  0.11537451189405701  0.07880152906826365  1.0000
  C   C28       1.0  0.8644647576985479  0.029601436404000037  0.9801887743882307  1.0000
  H   H11       1.0  0.7483384206493481  0.2519052213699622  0.34886769856050126  1.0000
  H   H12       1.0  0.8850754239311123  0.10107812262564497  0.7133464983317235  1.0000
  H   H13       1.0  0.8837913814550709  0.6839906546925928  0.714681058535237  1.0000
  H   H14       1.0  0.7732654571477315  0.9180100573576198  0.4193579238908596  1.0000
  H   H15       1.0  0.810590707410245  0.4631119786950195  0.516517769624673  1.0000
  H   H16       1.0  0.03601896070372246  0.9573901721718537  0.9983667735173347  1.0000
  H   H17       1.0  0.027978885709363466  0.10854745851717484  0.17206845359611045  1.0000
  H   H18       1.0  0.9161699608990234  0.21041745804434386  0.22399858830775476  1.0000
  H   H19       1.0  0.8115605673097145  0.15916660194760057  0.10225411619253921  1.0000
  H   H20       1.0  0.8179318218112783  0.006996380135455116  0.9296385235833127  1.0000
  C   C29       1.0  0.8261703668060884  0.4057510732597356  0.17873469669608588  1.0000
  C   C30       1.0  0.8984275562177794  0.40527929037367194  0.1768315245597214  1.0000
  C   C31       1.0  0.9348720626881986  0.4035531705711566  0.058814081955115505  1.0000
  C   C32       1.0  0.8982599526146444  0.40531042605445355  0.9415873347846788  1.0000
  C   C33       1.0  0.826033116375522  0.40590007381859805  0.9414753119723938  1.0000
  C   C34       1.0  0.7904072967996355  0.4057722348371635  0.060611475027769535  1.0000
  C   C35       1.0  0.011166235258902812  0.4044390643222926  0.05655203953433574  1.0000
  O   O2        1.0  0.04146958986704807  0.4645915292015659  0.9617502687022603  1.0000
  C   C36       1.0  0.0530829381220852  0.3370773187515703  0.1617365328902527  1.0000
  C   C37       1.0  0.11772909368405005  0.38634544541742777  0.19228224216649514  1.0000
  C   C38       1.0  0.15796827078778475  0.32266423121157217  0.29022747088943857  1.0000
  C   C39       1.0  0.13440360291056508  0.20878936745348153  0.3578313068403458  1.0000
  C   C40       1.0  0.0706695121667642  0.15805733749648865  0.32725557868551625  1.0000
  C   C41       1.0  0.030234410476011053  0.22136343759826826  0.2294141827526599  1.0000
  H   H21       1.0  0.6898101944924548  0.40865321206524974  0.38949002819854295  1.0000
  H   H22       1.0  0.9264474029956542  0.40771213775501347  0.26719687054063  1.0000
  H   H23       1.0  0.9262869144546388  0.404963852996447  0.8504033765289858  1.0000
  H   H24       1.0  0.7347024479774158  0.406136742651765  0.06127444173961383  1.0000
  H   H25       1.0  0.7982867298623394  0.40723163397912754  0.6138900370832965  1.0000
  H   H26       1.0  0.1368224861841516  0.47467089042268684  0.14115392078365763  1.0000
  H   H27       1.0  0.2074764935351796  0.36163543336372506  0.3136741000230858  1.0000
  H   H28       1.0  0.16564900469589938  0.15958181873703636  0.43353453140009557  1.0000
  H   H29       1.0  0.05269566434719186  0.06925526785642666  0.37900355587621504  1.0000
  H   H30       1.0  0.9815521254273865  0.17909460921846687  0.20577576099694994  1.0000
  Zn  Zn1       1.0  0.7507375633706517  0.40721980766187116  0.560731854961493  1.0000
  Zn  Zn2       1.0  0.9014593613184229  0.40443082812192577  0.5594776531941796  1.0000
  C   C42       1.0  0.8260576474931897  0.4006979392495158  0.7973030627786  1.0000
  C   C43       1.0  0.826140923018165  0.4109543048224269  0.3229065585105726  1.0000
  C   C44       1.0  0.8260944943562678  0.6430311126886854  0.5548375733658741  1.0000
  C   C45       1.0  0.8261040247424137  0.16861957195139654  0.5653721181972631  1.0000
  O   O3        1.0  0.8833291783530022  0.41163648758192384  0.3708159915318814  1.0000
  O   O4        1.0  0.883263749422173  0.39789800569693456  0.7484413461699391  1.0000
  O   O5        1.0  0.8832927324289116  0.5935851225018927  0.5526487538764835  1.0000
  O   O6        1.0  0.8833001439324599  0.21594938100041894  0.5666084868746675  1.0000
  O   O7        1.0  0.7688967293226632  0.5957012557365322  0.5536010217021714  1.0000
  O   O8        1.0  0.7688677462946463  0.40001569931658976  0.7493935441428283  1.0000
  O   O9        1.0  0.7689331755530177  0.41375413563702446  0.3717666281155252  1.0000
  O   O10       1.0  0.7689041411123279  0.21806701978522058  0.5675592208301465  1.0000
