data_image0
_chemical_formula_structural       NC12NC2H8C7OC3OC4H12C7OC3FC3H9Zn2C4O8
_chemical_formula_sum              "N2 C45 H29 O11 F1 Zn2"
_cell_length_a       19.240039667572717
_cell_length_b       10.299371110280156
_cell_length_c       10.29938172300155
_cell_angle_alpha    85.59389208423815
_cell_angle_beta     89.98344622294188
_cell_angle_gamma    90.01145957794125

_space_group_name_H-M_alt    "P 1"
_space_group_IT_number       1

loop_
  _space_group_symop_operation_xyz
  'x, y, z'

loop_
  _atom_site_type_symbol
  _atom_site_label
  _atom_site_symmetry_multiplicity
  _atom_site_fract_x
  _atom_site_fract_y
  _atom_site_fract_z
  _atom_site_occupancy
  N   N1        1.0  0.6548507315352871  0.42091563986192515  0.5679593913659926  1.0000
  C   C1        1.0  0.5947023627396629  0.42091572382269926  0.5679593094591091  1.0000
  C   C2        1.0  0.519884325632282  0.4209158410739464  0.5679591721964912  1.0000
  C   C3        1.0  0.48338772288937226  0.3564766071910388  0.6713479175062635  1.0000
  C   C4        1.0  0.4107169495415299  0.35636574740130533  0.6714344200590379  1.0000
  C   C5        1.0  0.37355209074006224  0.42091593358144785  0.5679589445484998  1.0000
  C   C6        1.0  0.4107629103157373  0.4854663067987497  0.46448366364430593  1.0000
  C   C7        1.0  0.4834335734874742  0.48535521153948524  0.46457028861352323  1.0000
  C   C8        1.0  0.2963470003067712  0.4209158548954388  0.5679588491053302  1.0000
  C   C9        1.0  0.2591405966456624  0.30766510528865965  0.6097890018791876  1.0000
  C   C10       1.0  0.1864699338225793  0.30777198281256535  0.6096977149380227  1.0000
  C   C11       1.0  0.1500147133603326  0.4209157257373628  0.567958909969285  1.0000
  C   C12       1.0  0.0751966761547585  0.420915612057315  0.5679591585885393  1.0000
  N   N2        1.0  0.0150483592660633  0.4209155712867234  0.5679593669925183  1.0000
  C   C13       1.0  0.18650700377099166  0.5340595444767167  0.5262200521370564  1.0000
  C   C14       1.0  0.25917772559434016  0.5341666020811175  0.5261286026662251  1.0000
  H   H1        1.0  0.511084763053176  0.30658652351981397  0.752071063437741  1.0000
  H   H2        1.0  0.3836057298958739  0.3072740379152308  0.7532733534057723  1.0000
  H   H3        1.0  0.38368759918402234  0.5345580433244388  0.38264467945899305  1.0000
  H   H4        1.0  0.5111663047333777  0.5352451950179749  0.38384741844062353  1.0000
  H   H5        1.0  0.2862195112984499  0.21851715047290954  0.6409246684687981  1.0000
  H   H6        1.0  0.1587406678149773  0.21952347668633854  0.6418666652957803  1.0000
  H   H7        1.0  0.1588064463259281  0.6223080260696554  0.4940511163209178  1.0000
  H   H8        1.0  0.2862852897741584  0.6233146360625257  0.49499289133351776  1.0000
  C   C15       1.0  0.8349060423969439  0.039544188038932226  0.5678445605906635  1.0000
  C   C16       1.0  0.8269189946079243  0.04879823853162457  0.4318618503628797  1.0000
  C   C17       1.0  0.8221054404172371  0.9362788480223095  0.36344412037344065  1.0000
  C   C18       1.0  0.8269534451995734  0.8135304340489566  0.43217293085409203  1.0000
  C   C19       1.0  0.8349997261886247  0.8022770681058795  0.568085408589712  1.0000
  C   C20       1.0  0.838747491381151  0.9158808936336067  0.6351724591846701  1.0000
  C   C21       1.0  0.8143965216793768  0.9459224099661079  0.21969963137347714  1.0000
  O   O1        1.0  0.8428969681363508  0.860867975878602  0.15567781186838392  1.0000
  C   C22       1.0  0.7743475488602186  0.0519741259708395  0.14859005343296383  1.0000
  C   C23       1.0  0.7937941963487493  0.097103057991627  0.02144973409224571  1.0000
  C   C24       1.0  0.7562115742147778  0.1960993733094767  0.9520701640339468  1.0000
  O   O2        1.0  0.7784210337474989  0.23787591761582205  0.8259745363913735  1.0000
  C   C25       1.0  0.7453038131843593  0.3373411068219587  0.7445409884753831  1.0000
  C   C26       1.0  0.6978997945957437  0.24997248405288874  0.01055723282712906  1.0000
  C   C27       1.0  0.6777398259091613  0.20455334290292937  0.13618052006228654  1.0000
  C   C28       1.0  0.715445903808446  0.10583814436610228  0.20480792574614548  1.0000
  H   H9        1.0  0.8510390810480833  0.2294202232360505  0.8242330043842445  1.0000
  H   H10       1.0  0.8252062092274499  0.14371972076441542  0.3788330682391019  1.0000
  H   H11       1.0  0.8237660174752073  0.7266572084939418  0.3794514118713803  1.0000
  H   H12       1.0  0.8449053673383519  0.9079428975415166  0.7400051650058346  1.0000
  H   H13       1.0  0.8386688800855969  0.47050670259039334  0.6201713559696429  1.0000
  H   H14       1.0  0.8387389380251369  0.056195938020485725  0.9760776837683953  1.0000
  H   H15       1.0  0.7736703573715572  0.35040934523195455  0.6506717519088521  1.0000
  H   H16       1.0  0.7463205198279912  0.43080928466248003  0.7915592193502734  1.0000
  H   H17       1.0  0.690838884716144  0.30910295840947044  0.7247771267486058  1.0000
  H   H18       1.0  0.6677182563907805  0.3264592920599869  0.9596696657432977  1.0000
  H   H19       1.0  0.6325325936309771  0.24562156926806966  0.18033085976505125  1.0000
  H   H20       1.0  0.6980930296467176  0.07071342771950828  0.30118490761402095  1.0000
  C   C29       1.0  0.8350113785155185  0.4208094819436863  0.18659727652912017  1.0000
  C   C30       1.0  0.8569899160692344  0.2903544330179162  0.1954173246085844  1.0000
  C   C31       1.0  0.8688304110674158  0.2250127469869483  0.0826572856336465  1.0000
  C   C32       1.0  0.8569234770307356  0.2906475684425667  0.9601513671571409  1.0000
  C   C33       1.0  0.834894358774304  0.4210117285428032  0.949332695964515  1.0000
  C   C34       1.0  0.8242409819411018  0.4854422790825561  0.06314513639337727  1.0000
  C   C35       1.0  0.8913347227980957  0.08684368418553357  0.09185895028754287  1.0000
  O   O3        1.0  0.8699189100718798  0.01359925654307692  0.007654569700142444  1.0000
  C   C36       1.0  0.9381389452812133  0.031770327661179376  0.19648676872329607  1.0000
  C   C37       1.0  0.9325237446045546  0.8998088915525029  0.2417182518236909  1.0000
  C   C38       1.0  0.9769605207551034  0.846601520573538  0.3392579143296177  1.0000
  F   F1        1.0  0.9707902742272639  0.7195337808250125  0.3828865935578276  1.0000
  C   C39       1.0  0.027731142276557375  0.9242254413740558  0.3917503398683524  1.0000
  C   C40       1.0  0.03434709234640687  0.054981424031218085  0.34645341756981063  1.0000
  C   C41       1.0  0.9900481899628225  0.10860056715873356  0.24898486091827343  1.0000
  H   H21       1.0  0.7925141431340763  0.6663807586944615  0.37732020779820163  1.0000
  H   H22       1.0  0.8641842459598278  0.23896373336711552  0.2902066870041278  1.0000
  H   H23       1.0  0.8655318321983212  0.24009785853184806  0.8731095985502684  1.0000
  H   H24       1.0  0.8072968410006438  0.5860130996583759  0.055541481097058476  1.0000
  H   H25       1.0  0.8258715831708897  0.4707531561988434  0.617746240715435  1.0000
  H   H26       1.0  0.8933628672287677  0.8382923574448237  0.20232588809578345  1.0000
  H   H27       1.0  0.062152424729380096  0.8830168253438462  0.46715400656611306  1.0000
  H   H28       1.0  0.07405312107822426  0.11475021273500041  0.3864841533469856  1.0000
  H   H29       1.0  0.9968939232229775  0.20955992628531783  0.21375601370735375  1.0000
  Zn  Zn1       1.0  0.758795993798403  0.4209121548335697  0.5679668716395454  1.0000
  Zn  Zn2       1.0  0.9111031128471997  0.42090846557600625  0.5679624822401299  1.0000
  C   C42       1.0  0.8349143105753167  0.4157998150152107  0.8051577183932601  1.0000
  C   C43       1.0  0.8349864594409896  0.42602244401825606  0.3307717634219187  1.0000
  C   C44       1.0  0.834979228460893  0.6581029365186217  0.5628647133667195  1.0000
  C   C45       1.0  0.8349214893813857  0.18371776222161285  0.5730648371957041  1.0000
  O   O4        1.0  0.8927778535998813  0.4277648958787357  0.37915637073019437  1.0000
  O   O5        1.0  0.8927204955646358  0.414053583265505  0.7567694054782041  1.0000
  O   O6        1.0  0.8927721382027201  0.6097164185977164  0.5611160901048908  1.0000
  O   O7        1.0  0.8927261590057716  0.23210206981224224  0.5748095887335805  1.0000
  O   O8        1.0  0.7771728956648875  0.6097185506000045  0.561119765140762  1.0000
  O   O9        1.0  0.7771212532258872  0.414057275563696  0.7567730117614977  1.0000
  O   O10       1.0  0.7771786115413017  0.4277685425065727  0.37915841560348906  1.0000
  O   O11       1.0  0.7771269169282741  0.2321057071770316  0.5748117309714689  1.0000
