data_image0
_chemical_formula_structural       NC12NC2H8C7OC3FC3H9C7OC6OCH12Zn2C4O8
_chemical_formula_sum              "N2 C45 H29 O11 F1 Zn2"
_cell_length_a       17.80743265337812
_cell_length_b       10.29937835083307
_cell_length_c       10.299362532796529
_cell_angle_alpha    85.57000454149363
_cell_angle_beta     91.54954799628842
_cell_angle_gamma    89.45609770286684

_space_group_name_H-M_alt    "P 1"
_space_group_IT_number       1

loop_
  _space_group_symop_operation_xyz
  'x, y, z'

loop_
  _atom_site_type_symbol
  _atom_site_label
  _atom_site_symmetry_multiplicity
  _atom_site_fract_x
  _atom_site_fract_y
  _atom_site_fract_z
  _atom_site_occupancy
  N   N1        1.0  0.7074885556015615  0.4062612792667377  0.601182313921768  1.0000
  C   C1        1.0  0.6566638085062535  0.43579781300280507  0.5324809757735287  1.0000
  C   C2        1.0  0.593432809283551  0.47253911822954886  0.44702515925703445  1.0000
  C   C3        1.0  0.605150299959053  0.5265187454733284  0.3204006694321979  1.0000
  C   C4        1.0  0.5438267287260174  0.5617572190926345  0.23734098238060852  1.0000
  C   C5        1.0  0.4706313120961773  0.5432793152838182  0.280245860480834  1.0000
  C   C6        1.0  0.4579370989122938  0.4891810400238725  0.40733850071226363  1.0000
  C   C7        1.0  0.5201179842541899  0.4539458148039719  0.4903816759090103  1.0000
  C   C8        1.0  0.3801737055893345  0.46958994101997575  0.4531037665651798  1.0000
  C   C9        1.0  0.3614141376897682  0.4968207452861939  0.5801432332034497  1.0000
  C   C10       1.0  0.2881887902434038  0.4783844302462983  0.6230886687696877  1.0000
  C   C11       1.0  0.2327801263402451  0.43246331588371567  0.5398326251281318  1.0000
  C   C12       1.0  0.15741828992963752  0.4134746330058987  0.5841790348891374  1.0000
  N   N2        1.0  0.09683271027350261  0.39820900902795864  0.6198304976036857  1.0000
  C   C13       1.0  0.2508482555526221  0.40506377834018004  0.41333614080634806  1.0000
  C   C14       1.0  0.32402070890598617  0.4235147918691593  0.3701348198490939  1.0000
  H   H1        1.0  0.6616133487879452  0.5413312961678773  0.2859623767271533  1.0000
  H   H2        1.0  0.5530173459685194  0.603822435217247  0.1395582275293339  1.0000
  H   H3        1.0  0.42398724317664616  0.5728935243564395  0.21465241821425263  1.0000
  H   H4        1.0  0.5116254498743001  0.41049519422570224  0.5880401512681481  1.0000
  H   H5        1.0  0.40310884316535867  0.5340238938879329  0.645711066052991  1.0000
  H   H6        1.0  0.27476596056587577  0.5002643772555391  0.7210936717029091  1.0000
  H   H7        1.0  0.20843699490293932  0.36912810189654377  0.34818110657186785  1.0000
  H   H8        1.0  0.3369148840798401  0.40009934239004363  0.2724333307185012  1.0000
  C   C15       1.0  0.9020850546559274  0.020851768622609068  0.6105667811462678  1.0000
  C   C16       1.0  0.8236990057199715  0.022475722745527227  0.5907876826210061  1.0000
  C   C17       1.0  0.7840680898871711  0.9060094031874265  0.5822844370423623  1.0000
  C   C18       1.0  0.8238827048349467  0.7872279227229304  0.5908033563392245  1.0000
  C   C19       1.0  0.9022433872857806  0.7836084318642853  0.6104575716503724  1.0000
  C   C20       1.0  0.94086803395815  0.9009503219566648  0.6205663839787257  1.0000
  C   C21       1.0  0.701390453310011  0.9076842315252797  0.5600303189576545  1.0000
  O   O1        1.0  0.6723622907409581  0.8235740217276312  0.4919793430472237  1.0000
  C   C22       1.0  0.6516435379749449  0.0046779609773186515  0.6149862269347721  1.0000
  C   C23       1.0  0.5847120280875114  0.04604107786726774  0.5479999581308448  1.0000
  C   C24       1.0  0.5369975374944482  0.13630109608000307  0.599775210774266  1.0000
  F   F1        1.0  0.4728868895579544  0.1762982679050089  0.5339854051776518  1.0000
  C   C25       1.0  0.5553009915541306  0.18525514587184122  0.7192563009831812  1.0000
  C   C26       1.0  0.6211541541062293  0.14366234976941294  0.7874054772090262  1.0000
  C   C27       1.0  0.6690240481633083  0.05347084775760136  0.7360423777472138  1.0000
  H   H9        1.0  0.05013960724423616  0.22525856943563283  0.6459024643450679  1.0000
  H   H10       1.0  0.7934697202412734  0.11460968402884286  0.5805267255789097  1.0000
  H   H11       1.0  0.7934682581086773  0.6973865254041017  0.5832943407692279  1.0000
  H   H12       1.0  0.0012978523881985726  0.8988943704583329  0.6358138569816261  1.0000
  H   H13       1.0  0.9324165200672094  0.4548443699609702  0.6169151426802781  1.0000
  H   H14       1.0  0.5697296953671903  0.00932124598740458  0.4551244945962585  1.0000
  H   H15       1.0  0.5183441400496763  0.2550201377253043  0.7593649526090931  1.0000
  H   H16       1.0  0.6349750771366813  0.1808934290916271  0.8804388826236478  1.0000
  H   H17       1.0  0.7190994825386164  0.020889357483887983  0.7915926776893811  1.0000
  C   C28       1.0  0.9021055726862317  0.40211076130914036  0.22914250345058984  1.0000
  C   C29       1.0  0.830779735983877  0.3449029691404426  0.2290229023095336  1.0000
  C   C30       1.0  0.7944814024554764  0.3173790409893722  0.11177536460568582  1.0000
  C   C31       1.0  0.8309913338790957  0.34506215721236866  0.9937787121600339  1.0000
  C   C32       1.0  0.9022228948305129  0.4023493987061275  0.9918818609165729  1.0000
  C   C33       1.0  0.9373073588146215  0.43080006549805994  0.11007996690663946  1.0000
  C   C34       1.0  0.7195448736225883  0.2556286883000254  0.11399868691951909  1.0000
  O   O2        1.0  0.7041794847009007  0.1767367634218706  0.20917143344296107  1.0000
  C   C35       1.0  0.6620425772725681  0.28337018963960015  0.008325664180419912  1.0000
  C   C36       1.0  0.6562909594269175  0.406866539115349  0.9401778926166164  1.0000
  C   C37       1.0  0.6013070198101276  0.4321842482729479  0.841845075725125  1.0000
  C   C38       1.0  0.5507510780070745  0.33556169260617685  0.8103897791341148  1.0000
  C   C39       1.0  0.5557126662568157  0.21227524428294964  0.8794178975926314  1.0000
  C   C40       1.0  0.610689847068832  0.1868304707991697  0.9778228152498567  1.0000
  O   O3        1.0  0.4966757081182541  0.3658407874412055  0.7108107551032878  1.0000
  C   C41       1.0  0.4418812337663232  0.2772092502813268  0.6688274294092782  1.0000
  H   H18       1.0  0.0368255229087322  0.5095677488539414  0.43668251879825415  1.0000
  H   H19       1.0  0.8029591364866125  0.3227365128149753  0.3202279616259167  1.0000
  H   H20       1.0  0.8041301699704744  0.3205366323356613  0.9034419295030323  1.0000
  H   H21       1.0  0.9922575085354363  0.47498881542603155  0.10934947743922252  1.0000
  H   H22       1.0  0.9296747618186775  0.42384053919895126  0.6637241288951512  1.0000
  H   H23       1.0  0.6937531471571657  0.4843455532783396  0.9637844163725795  1.0000
  H   H24       1.0  0.597747345126899  0.5277209986755713  0.7900963272062405  1.0000
  H   H25       1.0  0.5173876580861563  0.13549988993214912  0.8578667186544013  1.0000
  H   H26       1.0  0.6135195717492496  0.09112694143510724  0.02942343755897081  1.0000
  H   H27       1.0  0.4066035146858309  0.3266358330680159  0.5890469029584331  1.0000
  H   H28       1.0  0.4051896589919847  0.24575381758563197  0.7506246444844211  1.0000
  H   H29       1.0  0.46986871661845364  0.19130712591972454  0.6315251635435306  1.0000
  Zn  Zn1       1.0  0.8198448721136008  0.40393410294603793  0.6065712643531251  1.0000
  Zn  Zn2       1.0  0.9844763906975131  0.4005255948040578  0.6144521417612296  1.0000
  C   C42       1.0  0.9021979581250262  0.39713046305068356  0.8477084367797916  1.0000
  C   C43       1.0  0.9021251028169436  0.40733083619992594  0.37331518262556984  1.0000
  C   C44       1.0  0.9022088077657411  0.6394296252066025  0.605302843215054  1.0000
  C   C45       1.0  0.9021141966857191  0.16503011486728258  0.6157208429633014  1.0000
  O   O4        1.0  0.9646084594492025  0.4077835639876801  0.42469160350649493  1.0000
  O   O5        1.0  0.9646661145230256  0.3940897765742222  0.8023130457940382  1.0000
  O   O6        1.0  0.9646740337356146  0.5897494321659265  0.606568773420014  1.0000
  O   O7        1.0  0.9646004840459806  0.21212391881917436  0.6204357758151187  1.0000
  O   O8        1.0  0.839720722584475  0.5923357800954898  0.6005876276030486  1.0000
  O   O9        1.0  0.8397128036817375  0.3966776848450786  0.7963318305078912  1.0000
  O   O10       1.0  0.8396551484083381  0.41037142651128544  0.4187088268254404  1.0000
  O   O11       1.0  0.8396471730150907  0.21471177208414982  0.6144530965032768  1.0000
