data_image0
_chemical_formula_structural       NC9NC5H8C7OC3OC4H12C7OC6OCH12Zn2C4O8
_chemical_formula_sum              "N2 C46 H32 O12 Zn2"
_cell_length_a       17.807436237873137
_cell_length_b       10.299371110280156
_cell_length_c       10.299362532796529
_cell_angle_alpha    85.59679077391144
_cell_angle_beta     89.40785739381339
_cell_angle_gamma    88.40331171880233

_space_group_name_H-M_alt    "P 1"
_space_group_IT_number       1

loop_
  _space_group_symop_operation_xyz
  'x, y, z'

loop_
  _atom_site_type_symbol
  _atom_site_label
  _atom_site_symmetry_multiplicity
  _atom_site_fract_x
  _atom_site_fract_y
  _atom_site_fract_z
  _atom_site_occupancy
  N   N1        1.0  0.7073743654171762  0.38731725551484564  0.5575745705946795  1.0000
  C   C1        1.0  0.6467804788354109  0.3521242424143167  0.5465396615515301  1.0000
  C   C2        1.0  0.571408343757746  0.30834800976944376  0.5328134328766365  1.0000
  C   C3        1.0  0.5532913736329274  0.23690129354495548  0.42778878916409635  1.0000
  C   C4        1.0  0.48010889236973037  0.19428642388891992  0.41437884302252215  1.0000
  C   C5        1.0  0.4239946076748454  0.2227407314913028  0.5059609704974899  1.0000
  C   C6        1.0  0.346220523032793  0.17756704163172365  0.4917917804983436  1.0000
  C   C7        1.0  0.2840589891839461  0.25933094366882403  0.5177562272311247  1.0000
  C   C8        1.0  0.2107341782198347  0.2165130403288098  0.504359898317005  1.0000
  C   C9        1.0  0.1475229674233823  0.3009684008564022  0.5306890915303075  1.0000
  N   N2        1.0  0.096714141349581  0.3688646680921568  0.5518570345546849  1.0000
  C   C10       1.0  0.1989873181449869  0.09167324767554486  0.46497369199809446  1.0000
  C   C11       1.0  0.2602914790490492  0.009895490823070618  0.43900085126535804  1.0000
  C   C12       1.0  0.3334967746596004  0.05231879240566828  0.4521945190380472  1.0000
  C   C13       1.0  0.4428030814405472  0.29468187972969373  0.6112049978736491  1.0000
  C   C14       1.0  0.5160383849467669  0.3371063081804899  0.6244592343651021  1.0000
  H   H1        1.0  0.59567232903733  0.2143944132105744  0.35606940342015303  1.0000
  H   H2        1.0  0.4671765199845844  0.14057914899928914  0.3314420216554159  1.0000
  H   H3        1.0  0.2925738057987089  0.356804414501819  0.5466637057223838  1.0000
  H   H4        1.0  0.1425161557494359  0.05763404651388626  0.45436818229952003  1.0000
  H   H5        1.0  0.2510782427143189  0.9132417551580578  0.4088932264121634  1.0000
  H   H6        1.0  0.3801259697502586  0.9865680992035754  0.43312558309474847  1.0000
  H   H7        1.0  0.4011391331019676  0.3166501030964348  0.6842187047947426  1.0000
  H   H8        1.0  0.5294991092575639  0.3920338518225335  0.7063548187211133  1.0000
  C   C15       1.0  0.9019971747999839  0.996721772923058  0.5546017142913255  1.0000
  C   C16       1.0  0.893320470825197  0.0063801351607228884  0.4187466996819518  1.0000
  C   C17       1.0  0.8880956070007977  0.8941048945090767  0.35040583675540504  1.0000
  C   C18       1.0  0.8933578080868658  0.771110576921585  0.41905723123992145  1.0000
  C   C19       1.0  0.9020985151317613  0.7594498622769726  0.554841073619329  1.0000
  C   C20       1.0  0.9061709360954948  0.8728640895781031  0.6218681834414663  1.0000
  C   C21       1.0  0.8797170538681193  0.9041382428163015  0.20678468095088043  1.0000
  O   O1        1.0  0.910502894404144  0.8176214775801844  0.1423109041923145  1.0000
  C   C22       1.0  0.8364051582497524  0.012239082567147674  0.1363112816570422  1.0000
  C   C23       1.0  0.8573845229181664  0.056367245383995845  0.008863141998729507  1.0000
  C   C24       1.0  0.8167390731539029  0.15728639790991195  0.9400805904240048  1.0000
  O   O2        1.0  0.8407051114941689  0.19792067462893348  0.8136332811764486  1.0000
  C   C25       1.0  0.8048824884136134  0.2990795132405595  0.7327259534894646  1.0000
  C   C26       1.0  0.7537282182268336  0.2141488425133753  0.9994928504619542  1.0000
  C   C27       1.0  0.7319773356649348  0.16976695902396255  0.12543529082348348  1.0000
  C   C28       1.0  0.7727559891185241  0.06912257192454274  0.19346372347600793  1.0000
  H   H9        1.0  0.9195174072068764  0.18578048595208285  0.810732348962204  1.0000
  H   H10       1.0  0.8914521642289333  0.10138746792143616  0.3657454622167522  1.0000
  H   H11       1.0  0.8898956500893809  0.6843987570986607  0.36638666191045854  1.0000
  H   H12       1.0  0.9128605226317675  0.8646143758387137  0.7266024381967195  1.0000
  H   H13       1.0  0.906081170672507  0.427493390056782  0.6068684291693498  1.0000
  H   H14       1.0  0.9059510590588106  0.013156037844153756  0.962777987617895  1.0000
  H   H15       1.0  0.8355140546435066  0.3106912143995293  0.6384070863471032  1.0000
  H   H16       1.0  0.8059964785680034  0.3924972852481883  0.7797277291208902  1.0000
  H   H17       1.0  0.7460047103409738  0.2736308348179506  0.713826749353137  1.0000
  H   H18       1.0  0.7210885532981853  0.292179998997677  0.9490846994342306  1.0000
  H   H19       1.0  0.6831266814558133  0.2131526764260725  0.17030290934589076  1.0000
  H   H20       1.0  0.7540299651105917  0.03489026441377563  0.29011549851645535  1.0000
  C   C29       1.0  0.9019891952909237  0.37796805738141037  0.17335532871413784  1.0000
  C   C30       1.0  0.8306685498917721  0.32266741990923475  0.17767180765642232  1.0000
  C   C31       1.0  0.7943727394465921  0.2961140085335363  0.06268257642231001  1.0000
  C   C32       1.0  0.8308801331730971  0.3228209504804438  0.942414452318693  1.0000
  C   C33       1.0  0.9021064980926591  0.3782035531357666  0.9360874573059812  1.0000
  C   C34       1.0  0.9371883853013918  0.4057160997424505  0.052103646006775195  1.0000
  C   C35       1.0  0.719441787786024  0.23636740799477796  0.06956577046645074  1.0000
  O   O3        1.0  0.7040824928341735  0.15788845562833465  0.1656628766500421  1.0000
  C   C36       1.0  0.6619381557961216  0.26564408578702214  0.9675037906581587  1.0000
  C   C37       1.0  0.6561773810005014  0.3892901395968418  0.8997739446920652  1.0000
  C   C38       1.0  0.6011922545935754  0.4160758295439213  0.8048934542630786  1.0000
  C   C39       1.0  0.5506441836259974  0.3208068586192865  0.7765561107377805  1.0000
  C   C40       1.0  0.55561492327474  0.19739180336105377  0.84521583558905  1.0000
  C   C41       1.0  0.6105933004610725  0.17047923368870332  0.9401687899774189  1.0000
  O   O4        1.0  0.4965672444480121  0.3525295053407227  0.6803748942348018  1.0000
  C   C42       1.0  0.4417800980327447  0.2653645221501766  0.6417784884410707  1.0000
  H   H21       1.0  0.03669938481328594  0.4818228379299636  0.3725162135471898  1.0000
  H   H22       1.0  0.8028499642411128  0.3012448434189414  0.2706072266040671  1.0000
  H   H23       1.0  0.8040211471280567  0.29901375123742446  0.8537468872937248  1.0000
  H   H24       1.0  0.9921345269724247  0.4484355546263832  0.047955609523590015  1.0000
  H   H25       1.0  0.9295564064426257  0.39896068529940143  0.6062221204330513  1.0000
  H   H26       1.0  0.6936332968098305  0.46576595359735484  0.9210728146871587  1.0000
  H   H27       1.0  0.5976254846776101  0.5117046225729551  0.753412338290548  1.0000
  H   H28       1.0  0.5172961455020421  0.12164267528841455  0.82602662908144  1.0000
  H   H29       1.0  0.6134301422073083  0.07470316620268802  0.9915473754356392  1.0000
  H   H30       1.0  0.4064991372577325  0.3157319036845685  0.5642285706302119  1.0000
  H   H31       1.0  0.4050913452489907  0.23489023629381367  0.7258567680403414  1.0000
  H   H32       1.0  0.4697736425033808  0.1787175068028828  0.6026846330357638  1.0000
  Zn  Zn1       1.0  0.8197294140508753  0.3819887744144401  0.5559321228477723  1.0000
  Zn  Zn2       1.0  0.9843590747540839  0.37418256631191316  0.5535101555116124  1.0000
  C   C43       1.0  0.9020819517975152  0.37298545007180706  0.7919131408125728  1.0000
  C   C44       1.0  0.9020083349955207  0.3831874440704357  0.31752923907869257  1.0000
  C   C45       1.0  0.9020746906019509  0.6152765943493694  0.5496207389572934  1.0000
  C   C46       1.0  0.9020155398178414  0.14089474217491094  0.5598217105089134  1.0000
  O   O5        1.0  0.9644908559646823  0.38197103688730505  0.36499619468219846  1.0000
  O   O6        1.0  0.9645495338433909  0.3682761460902477  0.7426075938907648  1.0000
  O   O7        1.0  0.9645428283361116  0.5639293496358448  0.546954777947833  1.0000
  O   O8        1.0  0.9644975052812703  0.18631784526559692  0.5606489140805613  1.0000
  O   O9        1.0  0.8395909273436645  0.5698534981260439  0.5487933650984915  1.0000
  O   O10       1.0  0.8395976330441631  0.37420185486369606  0.7444461122861503  1.0000
  O   O11       1.0  0.8395389549693001  0.3878966999202933  0.3668331516736649  1.0000
  O   O12       1.0  0.8395456042965549  0.19224349903998372  0.5624859684362653  1.0000
