data_image0
_chemical_formula_structural       NC10NC5H10C7OC6H10C7OC3NC3H11Zn2C4O8
_chemical_formula_sum              "N3 C45 H31 O10 Zn2"
_cell_length_a       19.4436361288709
_cell_length_b       10.299379429549807
_cell_length_c       10.298749378158432
_cell_angle_alpha    85.5342726072926
_cell_angle_beta     89.71352480550038
_cell_angle_gamma    89.41578640036583

_space_group_name_H-M_alt    "P 1"
_space_group_IT_number       1

loop_
  _space_group_symop_operation_xyz
  'x, y, z'

loop_
  _atom_site_type_symbol
  _atom_site_label
  _atom_site_symmetry_multiplicity
  _atom_site_fract_x
  _atom_site_fract_y
  _atom_site_fract_z
  _atom_site_occupancy
  N   N1        1.0  0.6474958069480335  0.4095129949726144  0.5614623887157792  1.0000
  C   C1        1.0  0.5886616987126475  0.41941167882665864  0.5758440254763368  1.0000
  C   C2        1.0  0.5153347011181392  0.4317566504885111  0.5938334313669276  1.0000
  C   C3        1.0  0.4731381696106712  0.3997827677324646  0.49916311647691414  1.0000
  C   C4        1.0  0.3972340055030292  0.41022024335007723  0.5044878877413623  1.0000
  C   C5        1.0  0.357510387287065  0.3854428866611892  0.6115784225730021  1.0000
  C   C6        1.0  0.28138792381561334  0.38936312263014283  0.5986165202984013  1.0000
  C   C7        1.0  0.2408367946781892  0.44700307722871857  0.6923744538279011  1.0000
  C   C8        1.0  0.1691718275787449  0.45064379872949845  0.6818283375637597  1.0000
  C   C9        1.0  0.1370632837077071  0.39624845694574296  0.5778109817186994  1.0000
  C   C10       1.0  0.0632690486514976  0.39995046585140726  0.5671095480626942  1.0000
  N   N2        1.0  0.0039434888390353  0.4029266867149306  0.5585063048773036  1.0000
  C   C11       1.0  0.1768895926827501  0.3379012718317571  0.48443657083645575  1.0000
  C   C12       1.0  0.24857095483418992  0.33420638937122016  0.4947309076215334  1.0000
  C   C13       1.0  0.3856625305051271  0.34494546625720757  0.7426988776707637  1.0000
  C   C14       1.0  0.444331687852881  0.3880573436099988  0.7899298875717364  1.0000
  C   C15       1.0  0.4885263267873177  0.48594049660161853  0.7155208176473788  1.0000
  H   H1        1.0  0.4952252626276646  0.3706877549707508  0.40885904580673826  1.0000
  H   H2        1.0  0.3725220073771192  0.43274060808310066  0.41131344222971356  1.0000
  H   H3        1.0  0.2647175004918019  0.49027514822190077  0.7732141148022376  1.0000
  H   H4        1.0  0.1388361095949282  0.4959417894836433  0.7547391240259036  1.0000
  H   H5        1.0  0.1525370463610062  0.2948247813906617  0.4039313510148479  1.0000
  H   H6        1.0  0.2782412081393171  0.28666470201306704  0.4225173221835281  1.0000
  H   H7        1.0  0.3547075961341641  0.2807079681620104  0.806974434079266  1.0000
  H   H8        1.0  0.4594961347407335  0.353962515804499  0.887884998124534  1.0000
  H   H9        1.0  0.4584116017668158  0.5766664203135217  0.6902340588605627  1.0000
  H   H10       1.0  0.5318196188773805  0.5115113461790393  0.7786019889955822  1.0000
  C   C16       1.0  0.8257304547973188  0.0248277291155663  0.56013835973  1.0000
  C   C17       1.0  0.8674324823274788  0.014160651590799489  0.671546910750739  1.0000
  C   C18       1.0  0.8878211493870249  0.8915530778632944  0.7285947464525533  1.0000
  C   C19       1.0  0.8673487420849367  0.7789401459977321  0.671271301143711  1.0000
  C   C20       1.0  0.8257154237073944  0.7876018554461256  0.5598415535467327  1.0000
  C   C21       1.0  0.8049984070874742  0.9110179069426391  0.5051198169422291  1.0000
  C   C22       1.0  0.9324526430253394  0.8801952882237922  0.8454312939419855  1.0000
  O   O1        1.0  0.9760876502874296  0.7886017093323422  0.8574265933281293  1.0000
  C   C23       1.0  0.9275791832138316  0.9726437287446591  0.9486645605675041  1.0000
  C   C24       1.0  0.9864162523263961  0.0010162518907823603  0.019744882440369316  1.0000
  C   C25       1.0  0.9821644234097245  0.08684743403429573  0.11828013420197092  1.0000
  C   C26       1.0  0.9191631645082908  0.1443031263929373  0.14756308887693048  1.0000
  C   C27       1.0  0.8602208356913098  0.11562352124738817  0.07872791472177276  1.0000
  C   C28       1.0  0.8641964583222808  0.029877101791886185  0.9801072797491421  1.0000
  H   H11       1.0  0.7479040287192678  0.25235153929125675  0.3487357541107694  1.0000
  H   H12       1.0  0.8847369217423735  0.1014259182055568  0.7132436799275743  1.0000
  H   H13       1.0  0.8834532303721657  0.6843380895272544  0.7145783467777882  1.0000
  H   H14       1.0  0.7728496103003235  0.9184373210512103  0.4192316124203779  1.0000
  H   H15       1.0  0.8102004220837871  0.4635129790901793  0.5163992223426639  1.0000
  H   H16       1.0  0.03575544372806583  0.9576609238609545  0.998286731509322  1.0000
  H   H17       1.0  0.02776106743877227  0.10877125686842914  0.17200229234894082  1.0000
  H   H18       1.0  0.9159658047870778  0.21062721914991167  0.22393657687525614  1.0000
  H   H19       1.0  0.8113243817739775  0.15940927182715092  0.10218237597733404  1.0000
  H   H20       1.0  0.8176502233062894  0.007285709772317572  0.9295529893981376  1.0000
  C   C29       1.0  0.825691215044839  0.40624337986871395  0.1785891566639206  1.0000
  C   C30       1.0  0.8632579869273362  0.5224208926898624  0.1682124372341125  1.0000
  C   C31       1.0  0.8815639002863463  0.5819819768949619  0.045731982144421535  1.0000
  C   C32       1.0  0.8632607194373318  0.5224697065105592  0.9329683661316039  1.0000
  C   C33       1.0  0.8257546393154157  0.4061861722924196  0.9413907622457249  1.0000
  C   C34       1.0  0.8070498940000461  0.3489944262134035  0.06462232129811962  1.0000
  C   C35       1.0  0.9217918932593864  0.704013864591905  0.034670443804967865  1.0000
  O   O2        1.0  0.9647675894585045  0.72156365915403  0.9429599904609156  1.0000
  C   C36       1.0  0.9132677548850283  0.8061282030965247  0.1275911336432094  1.0000
  C   C37       1.0  0.8489223954364074  0.8298924931366956  0.18482023245946633  1.0000
  C   C38       1.0  0.8412269846217987  0.9275424712437179  0.27154636939018006  1.0000
  N   N3        1.0  0.7757439774955065  0.95060536313972  0.3297530694642581  1.0000
  C   C39       1.0  0.8979794295828413  0.002749432980039934  0.30044371032647565  1.0000
  C   C40       1.0  0.9617827609626041  0.9809459246936669  0.24275901309273218  1.0000
  C   C41       1.0  0.9694385294485968  0.8836083679966293  0.15640988822433366  1.0000
  H   H21       1.0  0.755620056705484  0.18569448917820264  0.4056292998901936  1.0000
  H   H22       1.0  0.8789645054618512  0.5659790701099743  0.2556112646580986  1.0000
  H   H23       1.0  0.8777650398221329  0.5677263509984156  0.838424047585205  1.0000
  H   H24       1.0  0.7780959663350904  0.2594400743668086  0.07186908311470108  1.0000
  H   H25       1.0  0.7551360026578531  0.18622642042255189  0.7500186063621452  1.0000
  H   H26       1.0  0.8045457042446785  0.7737018787819849  0.16116744482839218  1.0000
  H   H27       1.0  0.7330960098112905  0.8951180262152609  0.3089006526200473  1.0000
  H   H28       1.0  0.7694407713442921  0.023244494462185905  0.39426483521204525  1.0000
  H   H29       1.0  0.8926929660671276  0.07846591875561248  0.367191181008091  1.0000
  H   H30       1.0  0.005424638637457457  0.03961007790893678  0.2650102929951281  1.0000
  H   H31       1.0  0.01940503584630382  0.8680395473863958  0.11300075250778763  1.0000
  Zn  Zn1       1.0  0.7503589102082847  0.40760885653828094  0.5606168408931183  1.0000
  Zn  Zn2       1.0  0.9010803781915062  0.40482021602188034  0.5593625389006671  1.0000
  C   C42       1.0  0.8257412332098485  0.40102304051275195  0.7972069534689843  1.0000
  C   C43       1.0  0.8256997010419863  0.41140764030497423  0.32277253946734263  1.0000
  C   C44       1.0  0.8257142904833027  0.6434217548495984  0.5547220882766484  1.0000
  C   C45       1.0  0.8257265923743473  0.16900736651727044  0.5652574749392583  1.0000
  O   O3        1.0  0.882900560739939  0.4120768726555071  0.3706858010030416  1.0000
  O   O4        1.0  0.8829344802420038  0.3982363147811121  0.7483413322475279  1.0000
  O   O5        1.0  0.8829119527053488  0.5939763563230651  0.5525330938754214  1.0000
  O   O6        1.0  0.8829230368372841  0.21633684136321452  0.5664939424167308  1.0000
  O   O7        1.0  0.7685162001286664  0.5960922321499873  0.5534854377982543  1.0000
  O   O8        1.0  0.7685387276256657  0.40035375101193216  0.7492936063119804  1.0000
  O   O9        1.0  0.7685048080403614  0.4141942637438323  0.3716365135534754  1.0000
  O   O10       1.0  0.7685272841431761  0.2184542231549198  0.5674447523467816  1.0000
