data_image0
_chemical_formula_structural       NC8NC6H8C7OC6H10C7OC4NC3H9Zn2C4O8
_chemical_formula_sum              "N3 C45 H27 O10 Zn2"
_cell_length_a       17.457602349358154
_cell_length_b       10.299379429549807
_cell_length_c       10.299375074045738
_cell_angle_alpha    85.51714373298503
_cell_angle_beta     92.86983099302364
_cell_angle_gamma    91.68701110263541

_space_group_name_H-M_alt    "P 1"
_space_group_IT_number       1

loop_
  _space_group_symop_operation_xyz
  'x, y, z'

loop_
  _atom_site_type_symbol
  _atom_site_label
  _atom_site_symmetry_multiplicity
  _atom_site_fract_x
  _atom_site_fract_y
  _atom_site_fract_z
  _atom_site_occupancy
  N   N1        1.0  0.722486990546249  0.4534298592341277  0.6258794795273213  1.0000
  C   C1        1.0  0.6614107907210585  0.4075062047741216  0.6152812653033499  1.0000
  C   C2        1.0  0.5854294143278287  0.35038288970062803  0.6021066269384052  1.0000
  C   C3        1.0  0.5268947851193557  0.39051854839419  0.6769917742765863  1.0000
  C   C4        1.0  0.4523514030050756  0.33551337676861226  0.6644307716234212  1.0000
  C   C5        1.0  0.39022552601785543  0.37789063088010044  0.7437370328166326  1.0000
  C   C6        1.0  0.3156822686438816  0.3963811227994911  0.6879639368822963  1.0000
  C   C7        1.0  0.2571476332489144  0.4363328053350284  0.7629571144063181  1.0000
  C   C8        1.0  0.1811663586924597  0.45543002110414976  0.7049682266645978  1.0000
  N   N2        1.0  0.1200903305860114  0.4707778024872138  0.6583453144693621  1.0000
  C   C9        1.0  0.27266405243246317  0.4580369579880106  0.8942318319337217  1.0000
  C   C10       1.0  0.3464225707690787  0.43993532686775594  0.9503923902925584  1.0000
  C   C11       1.0  0.404945566008316  0.40016353505762914  0.8758568830675704  1.0000
  C   C12       1.0  0.4376314087379968  0.23969563306758235  0.575551906118053  1.0000
  C   C13       1.0  0.4961542863450629  0.19983851788933715  0.5010666700695314  1.0000
  C   C14       1.0  0.5699128627452865  0.254955863004112  0.5141776018860698  1.0000
  H   H1        1.0  0.5392326212085868  0.4656916880368127  0.7435959037543836  1.0000
  H   H2        1.0  0.3033445695500413  0.38144865768649283  0.5859409865781313  1.0000
  H   H3        1.0  0.2277983815040988  0.4888991131627731  0.9530580846094672  1.0000
  H   H4        1.0  0.3582465501778855  0.45642567699257697  0.0520414550927929  1.0000
  H   H5        1.0  0.461428357785408  0.3851534736201687  0.9219711527615513  1.0000
  H   H6        1.0  0.3811484764695655  0.19436169196292807  0.5649173428726837  1.0000
  H   H7        1.0  0.48433031746475996  0.12578235304892682  0.4332637319576733  1.0000
  H   H8        1.0  0.6147785617267052  0.22322376991599913  0.45586283594391985  1.0000
  C   C15       1.0  0.9213006880178166  0.0807123777136427  0.642267452180791  1.0000
  C   C16       1.0  0.9677996469080571  0.07281115142487304  0.7578144822595065  1.0000
  C   C17       1.0  0.9905331809429233  0.9515550472382489  0.8168855442514558  1.0000
  C   C18       1.0  0.9677062824940675  0.8375851077566325  0.7575305649532307  1.0000
  C   C19       1.0  0.9212839692784216  0.843485585877362  0.6419691672898165  1.0000
  C   C20       1.0  0.89818379985571  0.9655274073449827  0.5851914573813108  1.0000
  C   C21       1.0  0.040298965168096945  0.9431581390860305  0.9381514100611539  1.0000
  O   O1        1.0  0.08897010405311678  0.854490705923815  0.9544822995977318  1.0000
  C   C22       1.0  0.03484618393594663  0.03524767743547996  0.040895164587384736  1.0000
  C   C23       1.0  0.10046508189062586  0.06754894155360369  0.11781878496440634  1.0000
  C   C24       1.0  0.09570646164078878  0.1530644019421672  0.2159265360905529  1.0000
  C   C25       1.0  0.02542640673465013  0.2062809550512945  0.23894730834093103  1.0000
  C   C26       1.0  0.9596897340772726  0.17366485242082885  0.16425826214515793  1.0000
  C   C27       1.0  0.9641402712337304  0.08821563534087407  0.06603768432887958  1.0000
  H   H9        1.0  0.8345225486169155  0.30307548672398665  0.4231415844544233  1.0000
  H   H10       1.0  0.9870953244710106  0.16122551108683303  0.8012287604978283  1.0000
  H   H11       1.0  0.9856632040017522  0.7440510807365229  0.8024357940471256  1.0000
  H   H12       1.0  0.8623369679672456  0.9708145805110026  0.4961128295870114  1.0000
  H   H13       1.0  0.9039846179146759  0.5183683020479135  0.5969872392570386  1.0000
  H   H14       1.0  0.15550439649766679  0.027513026444608846  0.10126476339006873  1.0000
  H   H15       1.0  0.14655900232083763  0.17803327796666912  0.2741771123981346  1.0000
  H   H16       1.0  0.02184757513451907  0.27236692798275763  0.314999202474769  1.0000
  H   H17       1.0  0.9051439533917893  0.21416030462179592  0.1828524898901478  1.0000
  H   H18       1.0  0.9122279900324026  0.06251445872984807  0.010860450872678395  1.0000
  C   C28       1.0  0.9213184022334499  0.462242478442054  0.26073362679027845  1.0000
  C   C29       1.0  0.980370818695028  0.5579353558431472  0.2570757330549813  1.0000
  C   C30       1.0  0.009559173788548314  0.6072544776728281  0.1379242712478923  1.0000
  C   C31       1.0  0.9802466079387326  0.5576921868880227  0.021840367106919167  1.0000
  C   C32       1.0  0.9212662249698291  0.4619555009752354  0.023503033205165114  1.0000
  C   C33       1.0  0.8920058404592315  0.41502993391724163  0.14344395466650872  1.0000
  C   C34       1.0  0.07246535662871012  0.707323672394907  0.13404536948556878  1.0000
  O   O2        1.0  0.12149300551969855  0.7047775164080119  0.04841555244807538  1.0000
  C   C35       1.0  0.07974133771686076  0.8102926021855941  0.22722602320377905  1.0000
  C   C36       1.0  0.15269693035254162  0.8600394708528574  0.2649215589769047  1.0000
  C   C37       1.0  0.16012915647592907  0.9583812640531542  0.35170700849611336  1.0000
  C   C38       1.0  0.23504919681404646  0.008004503509115857  0.3905941394093424  1.0000
  N   N3        1.0  0.295276468957137  0.047890380104539165  0.42185125250222755  1.0000
  C   C39       1.0  0.09461283783192487  0.008376857534155846  0.4005302071682344  1.0000
  C   C40       1.0  0.021912781002773052  0.960652905500035  0.3623538005271667  1.0000
  C   C41       1.0  0.014327966878377563  0.8625744549511769  0.27583134529583786  1.0000
  H   H19       1.0  0.8106864209186104  0.2802302902339906  0.47513784019476546  1.0000
  H   H20       1.0  0.004322000752057464  0.593183675943511  0.3472013750915235  1.0000
  H   H21       1.0  0.003082023400175826  0.5949264906228999  0.9299456998586586  1.0000
  H   H22       1.0  0.8464809971810117  0.34125705932642725  0.14546012573262757  1.0000
  H   H23       1.0  0.899051053647574  0.4243973493835329  0.6967832081524836  1.0000
  H   H24       1.0  0.2037014710847107  0.8215423703076492  0.22772146327101805  1.0000
  H   H25       1.0  0.09972906900961687  0.08448249491146997  0.46759762254002335  1.0000
  H   H26       1.0  0.9712904452924238  0.00014543698882540923  0.3994359050785208  1.0000
  H   H27       1.0  0.9573435867225416  0.8286927895037903  0.2458872580400535  1.0000
  Zn  Zn1       1.0  0.8372267253727942  0.45843261518967937  0.6352559183315643  1.0000
  Zn  Zn2       1.0  0.0053505810160101586  0.46576439407783643  0.6489795127963047  1.0000
  C   C42       1.0  0.9212745085948846  0.4568356643947875  0.8793251395463229  1.0000
  C   C43       1.0  0.9213046336565512  0.4673630636045787  0.40491056827368643  1.0000
  C   C44       1.0  0.9212835301868723  0.6993069801843343  0.6368498480583371  1.0000
  C   C45       1.0  0.9212955547251203  0.22489018489179968  0.6473859249304426  1.0000
  O   O3        1.0  0.9851021399523586  0.47185828456211043  0.4585057017020744  1.0000
  O   O4        1.0  0.9850791186581065  0.45790411432746536  0.8361455232959516  1.0000
  O   O5        1.0  0.9850855435322077  0.6537027302800142  0.6403449391306224  1.0000
  O   O6        1.0  0.9850956577154285  0.27605967543513676  0.6543061838021424  1.0000
  O   O7        1.0  0.8574815913009556  0.6481373313318195  0.6299292426357057  1.0000
  O   O8        1.0  0.8574751663938776  0.4523402758019428  0.825729756942243  1.0000
  O   O9        1.0  0.857498187846909  0.46629440136767975  0.44808837390496814  1.0000
  O   O10       1.0  0.8574917056003877  0.2704957829145711  0.6438889533802765  1.0000
