data_image0
_chemical_formula_structural       NC9NC5H8C7OC6H10C7OC6OCH12Zn2C4O8
_chemical_formula_sum              "N2 C45 H30 O11 Zn2"
_cell_length_a       17.807436237873137
_cell_length_b       10.299379429549807
_cell_length_c       10.299362532796529
_cell_angle_alpha    85.55652278512687
_cell_angle_beta     89.40785739381339
_cell_angle_gamma    88.38769231292811

_space_group_name_H-M_alt    "P 1"
_space_group_IT_number       1

loop_
  _space_group_symop_operation_xyz
  'x, y, z'

loop_
  _atom_site_type_symbol
  _atom_site_label
  _atom_site_symmetry_multiplicity
  _atom_site_fract_x
  _atom_site_fract_y
  _atom_site_fract_z
  _atom_site_occupancy
  N   N1        1.0  0.7071601467997635  0.387401696173012  0.5565996537845816  1.0000
  C   C1        1.0  0.6465716944462391  0.3522065410093196  0.5455894761141105  1.0000
  C   C2        1.0  0.571206318950058  0.3084276438737672  0.5318940105432719  1.0000
  C   C3        1.0  0.5531003810651308  0.23697657896283553  0.4269195749604129  1.0000
  C   C4        1.0  0.4799244800548807  0.1943591155038129  0.41353957579212297  1.0000
  C   C5        1.0  0.4238058016696486  0.22281515501030946  0.5051017074206527  1.0000
  C   C6        1.0  0.3460386923934302  0.17763871560221278  0.4909642625680788  1.0000
  C   C7        1.0  0.2838645332060177  0.25940759429312066  0.5168712509204945  1.0000
  C   C8        1.0  0.2105463338457177  0.2165870847922411  0.503505011658596  1.0000
  C   C9        1.0  0.1473220821168517  0.3010475857923536  0.5297748551086385  1.0000
  N   N2        1.0  0.0965027720355627  0.36894798561239606  0.5508950850291763  1.0000
  C   C10       1.0  0.1988187505496124  0.09173969362161083  0.4642065346690387  1.0000
  C   C11       1.0  0.2601355389315919  0.009956959272039434  0.43829116205293617  1.0000
  C   C12       1.0  0.333334283869631  0.05238284299761364  0.45145501747398864  1.0000
  C   C13       1.0  0.4426031668491568  0.29476068202931605  0.6102951792123008  1.0000
  C   C14       1.0  0.5158319195088623  0.3371876926916768  0.6235196025602272  1.0000
  H   H1        1.0  0.5954848118049467  0.21446832872133248  0.3552160055958109  1.0000
  H   H2        1.0  0.4670004007246406  0.14064857165921052  0.3306404964230394  1.0000
  H   H3        1.0  0.2923642987341793  0.3568869979608713  0.5457102313628204  1.0000
  H   H4        1.0  0.1423528442197391  0.057698420624878066  0.453624945518762  1.0000
  H   H5        1.0  0.2509372271064066  0.9132973406663936  0.40825145919183314  1.0000
  H   H6        1.0  0.3799736316651127  0.9866281478040606  0.43243228686391433  1.0000
  H   H7        1.0  0.4009358263503357  0.3167302425172043  0.683293448287319  1.0000
  H   H8        1.0  0.5292841623404518  0.3921185795617512  0.7053765873922855  1.0000
  C   C15       1.0  0.901843268864415  0.9967824395385564  0.5539012827155261  1.0000
  C   C16       1.0  0.9474008125963491  0.9847701494414453  0.664978144469337  1.0000
  C   C17       1.0  0.9696746541103303  0.8615058803550336  0.7218635791021886  1.0000
  C   C18       1.0  0.9473093269770155  0.7495523250611514  0.6647032056206963  1.0000
  C   C19       1.0  0.9018268319559287  0.7595569515434302  0.5536046193599817  1.0000
  C   C20       1.0  0.8791944850627236  0.883641528273646  0.4990476049670489  1.0000
  C   C21       1.0  0.01843235382476527  0.8487074533378929  0.8383453544318393  1.0000
  O   O1        1.0  0.06609501421004027  0.7556658895437574  0.8500030733148545  1.0000
  C   C22       1.0  0.013115632193589688  0.9413580319806787  0.9416068414922765  1.0000
  C   C23       1.0  0.07738700606383042  0.9677993257047591  0.012226993727592395  1.0000
  C   C24       1.0  0.07274898777949157  0.05381013594320638  0.11078609822338326  1.0000
  C   C25       1.0  0.003935437540353082  0.11337447481485197  0.14055223366911085  1.0000
  C   C26       1.0  0.9395492311213994  0.08663047095777454  0.0721778372704377  1.0000
  C   C27       1.0  0.9438855477869629  0.0007135853880306797  0.9735354872798894  1.0000
  H   H9        1.0  0.8168212649019764  0.2268154057680556  0.3431180084770229  1.0000
  H   H10       1.0  0.9663048304215023  0.07147546231916513  0.7065376887629993  1.0000
  H   H11       1.0  0.964902756256225  0.6544308839141969  0.7078821338096553  1.0000
  H   H12       1.0  0.8440734056772974  0.8920979888869877  0.4134151054321875  1.0000
  H   H13       1.0  0.8848772821839587  0.43596778340798037  0.5102858720238721  1.0000
  H   H14       1.0  0.1312781635806124  0.9227931893017548  0.9903903079239917  1.0000
  H   H15       1.0  0.12255693980095494  0.0742367977662961  0.16415176476548754  1.0000
  H   H16       1.0  0.00044780788165854624  0.1798345266514061  0.2169434525033095  1.0000
  H   H17       1.0  0.8861417950529588  0.13205306262943184  0.09600723818484536  1.0000
  H   H18       1.0  0.8930405700126982  0.9796521908883989  0.9233447240660362  1.0000
  C   C28       1.0  0.9017764203031422  0.37805192898989426  0.17238698191561075  1.0000
  C   C29       1.0  0.8304643139934125  0.32274792558090337  0.17674232256805245  1.0000
  C   C30       1.0  0.7941726037171376  0.2961928980013233  0.061771751353494775  1.0000
  C   C31       1.0  0.8306758735677544  0.3229014654969269  0.9414848593389706  1.0000
  C   C32       1.0  0.9018936867414756  0.37828743907797047  0.9351189450162738  1.0000
  C   C33       1.0  0.9369713256791861  0.40580166026740283  0.05111579967932811  1.0000
  C   C34       1.0  0.7192508776566344  0.2364426609171011  0.06869693144299016  1.0000
  O   O2        1.0  0.703903700807262  0.1579589318390846  0.16484918755684919  1.0000
  C   C35       1.0  0.6617427249924491  0.2657211206679648  0.9666143778796967  1.0000
  C   C36       1.0  0.6559628577458481  0.3893747003368637  0.8987976414666763  1.0000
  C   C37       1.0  0.6009735953033875  0.4161620206257268  0.8038983277877834  1.0000
  C   C38       1.0  0.5504402350208765  0.320887251045755  0.7756279331315099  1.0000
  C   C39       1.0  0.5554300314516204  0.19746468398843464  0.8443743860988704  1.0000
  C   C40       1.0  0.6104125642652569  0.170550476251621  0.9393462529000072  1.0000
  O   O3        1.0  0.4963583974813272  0.35261182860251905  0.6794244240048171  1.0000
  C   C41       1.0  0.4415847103970899  0.2654415400151573  0.640889272121846  1.0000
  H   H19       1.0  0.03647057338725501  0.48191303077894876  0.37147488432812126  1.0000
  H   H20       1.0  0.8026490362484966  0.30132404518088696  0.2696927959164501  1.0000
  H   H21       1.0  0.8038205636431444  0.29909281720138203  0.8528340244733452  1.0000
  H   H22       1.0  0.9919108709480438  0.4485237153200228  0.04693774272712714  1.0000
  H   H23       1.0  0.9293403899383773  0.3990458346482946  0.6052390213738108  1.0000
  H   H24       1.0  0.6934069647615682  0.46585516912563274  0.9200427692075466  1.0000
  H   H25       1.0  0.5973920591414564  0.5117966342110831  0.7523500100865337  1.0000
  H   H26       1.0  0.517122950263407  0.12171094535811355  0.8252384111776294  1.0000
  H   H27       1.0  0.6132641949984214  0.07476857924525393  0.9907921435819071  1.0000
  H   H28       1.0  0.4062959722872307  0.315811987218076  0.5633039593739295  1.0000
  H   H29       1.0  0.404900663212835  0.23496539930638471  0.7249889670775813  1.0000
  H   H30       1.0  0.4695916342182362  0.17878925079775554  0.6018563066330103  1.0000
  Zn  Zn1       1.0  0.8195160182155982  0.3820728907484845  0.5549609505494477  1.0000
  Zn  Zn2       1.0  0.9841468842920552  0.37426620751213524  0.5525444689112937  1.0000
  C   C42       1.0  0.9018699461847595  0.3730690184081742  0.7909482954680966  1.0000
  C   C43       1.0  0.9017947540711047  0.3832716333628854  0.3165572244328856  1.0000
  C   C44       1.0  0.9018252722966531  0.615374910014518  0.5484856270724459  1.0000
  C   C45       1.0  0.901839371826482  0.1409641840437732  0.5590199634980713  1.0000
  O   O4        1.0  0.9642774628682946  0.3820551521417348  0.36402503484866067  1.0000
  O   O5        1.0  0.9643382554043107  0.3683594277894193  0.7416460579404427  1.0000
  O   O6        1.0  0.9643013386684249  0.5640245399919686  0.5458557495844898  1.0000
  O   O7        1.0  0.9643143234116479  0.18639005186379975  0.5598152466516644  1.0000
  O   O8        1.0  0.8393485229155697  0.5699490490622694  0.547690173626872  1.0000
  O   O9        1.0  0.839385439603748  0.37428549723793814  0.7434804121310852  1.0000
  O   O10       1.0  0.8393246468786404  0.38798117584700864  0.3658578276675277  1.0000
  O   O11       1.0  0.8393615074340901  0.19231606630990927  0.5616481368412756  1.0000
