data_image0
_chemical_formula_structural       NC8NC6H8C7OC6OCH12C6NCOC6H11Zn2C4O8
_chemical_formula_sum              "N3 C45 H31 O11 Zn2"
_cell_length_a       17.457602349358154
_cell_length_b       10.299359160628079
_cell_length_c       10.299662537453274
_cell_angle_alpha    85.5452158657264
_cell_angle_beta     92.86302956752768
_cell_angle_gamma    91.71072845926622

_space_group_name_H-M_alt    "P 1"
_space_group_IT_number       1

loop_
  _space_group_symop_operation_xyz
  'x, y, z'

loop_
  _atom_site_type_symbol
  _atom_site_label
  _atom_site_symmetry_multiplicity
  _atom_site_fract_x
  _atom_site_fract_y
  _atom_site_fract_z
  _atom_site_occupancy
  N   N1        1.0  0.72295916264492  0.4533917330789514  0.6266640084884063  1.0000
  C   C1        1.0  0.6618718299120453  0.40746918953928857  0.6160428414913088  1.0000
  C   C2        1.0  0.5858766049898244  0.35034725632681685  0.602839652451568  1.0000
  C   C3        1.0  0.527347105794655  0.39048205800010627  0.6777426294497428  1.0000
  C   C4        1.0  0.45279037988749404  0.3354782172130151  0.6651541305340094  1.0000
  C   C5        1.0  0.3906699026927702  0.3778545668535729  0.7444792090681731  1.0000
  C   C6        1.0  0.3161353362881482  0.39634450727993675  0.6887173952679813  1.0000
  C   C7        1.0  0.2576057757582946  0.43629533750685856  0.7637283053856947  1.0000
  C   C8        1.0  0.18163350438266623  0.4553919830175466  0.705751083085157  1.0000
  N   N2        1.0  0.12056471317295761  0.47073930606999115  0.6591375466605831  1.0000
  C   C9        1.0  0.2731186060282944  0.45799918425192887  0.8950095794313675  1.0000
  C   C10       1.0  0.346868506795507  0.4398980957346099  0.9511590398914107  1.0000
  C   C11       1.0  0.4053864416091228  0.40012715260365384  0.8766058758391484  1.0000
  C   C12       1.0  0.4380518371903478  0.23966267553037746  0.5762296441659882  1.0000
  C   C13       1.0  0.4965696287836066  0.19980641121674125  0.501726706267597  1.0000
  C   C14       1.0  0.5703415394378477  0.25492242368893603  0.5148651726012134  1.0000
  H   H1        1.0  0.5396997129798767  0.4656534646410546  0.7443826566677123  1.0000
  H   H2        1.0  0.30380092688126376  0.38141223231667176  0.5866903319140815  1.0000
  H   H3        1.0  0.2282567926332127  0.48886068258259696  0.9538494998876546  1.0000
  H   H4        1.0  0.35868962559090484  0.4563882167507358  0.0528130213025465  1.0000
  H   H5        1.0  0.46186211947606814  0.38511754030918444  0.9227109584914401  1.0000
  H   H6        1.0  0.3815579270609515  0.1943298307812864  0.5655724287485451  1.0000
  H   H7        1.0  0.4847312616843938  0.12575194982989446  0.4338884781862653  1.0000
  H   H8        1.0  0.6152031200693658  0.22319100972530603  0.4565362798745036  1.0000
  C   C15       1.0  0.9216753273109628  0.0806834455307297  0.6428622155985744  1.0000
  C   C16       1.0  0.8582299816106004  0.08322747269291231  0.5532824174770261  1.0000
  C   C17       1.0  0.8267800178382018  0.9675504160080549  0.5070525975562916  1.0000
  C   C18       1.0  0.8584126938405163  0.8479738369832805  0.5535524496371027  1.0000
  C   C19       1.0  0.9218558851157889  0.8434378430998726  0.642951209624508  1.0000
  C   C20       1.0  0.9532278172292866  0.9603679005730277  0.6868891031537923  1.0000
  C   C21       1.0  0.7592549784553021  0.9723494590672922  0.4136030185959789  1.0000
  O   O1        1.0  0.7104987338153227  0.05909062597309833  0.4211876421712668  1.0000
  C   C22       1.0  0.7470391471870361  0.8788159437357368  0.31155652196021943  1.0000
  C   C23       1.0  0.8094506697873144  0.8282138231130354  0.2525978504724995  1.0000
  C   C24       1.0  0.7971326693564758  0.7413253029957945  0.15550876489881804  1.0000
  C   C25       1.0  0.7226055918520999  0.7041722227671312  0.11465878471119684  1.0000
  C   C26       1.0  0.6599360133239235  0.7557983455832342  0.17228460426171255  1.0000
  C   C27       1.0  0.6721838526727537  0.8427426767450407  0.269414381672465  1.0000
  O   O2        1.0  0.7133268562053349  0.6165762179599786  0.01700142029481655  1.0000
  C   C28       1.0  0.6410336363368987  0.570594222443807  0.9662283780404399  1.0000
  H   H9        1.0  0.041196053377861475  0.28311185349828083  0.8123011332475163  1.0000
  H   H10       1.0  0.833560820744186  0.17549141487441755  0.5182824109865392  1.0000
  H   H11       1.0  0.8329479070778881  0.7582369097616052  0.521020819535869  1.0000
  H   H12       1.0  0.0021674748668758514  0.9576009797651793  0.7558557029665731  1.0000
  H   H13       1.0  0.9459968886036798  0.514183605793079  0.6776414110872886  1.0000
  H   H14       1.0  0.8677756229109189  0.8568379824317087  0.28049282715075585  1.0000
  H   H15       1.0  0.8458294708992943  0.7030200935696956  0.11130408589670271  1.0000
  H   H16       1.0  0.6015792271965755  0.7294503967293237  0.14274239094328922  1.0000
  H   H17       1.0  0.6230584164302053  0.8809837801212135  0.31253327818528764  1.0000
  H   H18       1.0  0.6506212702585027  0.5026454202365973  0.890535628798788  1.0000
  H   H19       1.0  0.6073278064960486  0.653487623671722  0.9209649572683998  1.0000
  H   H20       1.0  0.6088166809048505  0.5175890299263104  0.045133900468445676  1.0000
  C   C29       1.0  0.9218184477951612  0.462203501881695  0.26153503931219446  1.0000
  C   C30       1.0  0.00014330273252971537  0.4979961184871262  0.264121209795652  1.0000
  C   C31       1.0  0.03982499763556446  0.5141528342671022  0.14875886140113947  1.0000
  C   C32       1.0  8.98198959342622e-06  0.49768017778948725  0.02896691271432439  1.0000
  C   C33       1.0  0.9217127785954121  0.46191781620474837  0.02427833799977619  1.0000
  C   C34       1.0  0.8831249585551468  0.44393969334377137  0.14117220771816963  1.0000
  N   N3        1.0  0.11972445210089355  0.5527252211031546  0.15480430640575693  1.0000
  C   C35       1.0  0.17401352386729396  0.5152429159222796  0.06502136359486088  1.0000
  O   O3        1.0  0.1599971459318914  0.4160709422494584  0.0023155016372069515  1.0000
  C   C36       1.0  0.2476902930206455  0.5887877345876391  0.04869515357939247  1.0000
  C   C37       1.0  0.2569763454581462  0.7172660331350829  0.08581984370492979  1.0000
  C   C38       1.0  0.32659239467729595  0.785860404253858  0.06932136348667806  1.0000
  C   C39       1.0  0.3874805321597148  0.7274885573627647  0.015313493496854402  1.0000
  C   C40       1.0  0.378817368321708  0.6004838514250403  0.9772338491919648  1.0000
  C   C41       1.0  0.30933202136643856  0.5314381403694266  0.9934138802893031  1.0000
  H   H21       1.0  0.7738950439805722  0.395885123207838  0.4638127680498494  1.0000
  H   H22       1.0  0.030884884065619733  0.5125568454966163  0.356053620727772  1.0000
  H   H23       1.0  0.0297282602167257  0.514941114558122  0.9392825201535131  1.0000
  H   H24       1.0  0.8227477446749976  0.41633077357723747  0.13831464569045204  1.0000
  H   H25       1.0  0.891431052557804  0.44986934241881893  0.6948805290562734  1.0000
  H   H26       1.0  0.14067378793387553  0.6008441353146545  0.235442479737761  1.0000
  H   H27       1.0  0.21037176584790052  0.7657690459068309  0.1257922887019558  1.0000
  H   H28       1.0  0.33321557029397497  0.8846311582803328  0.09798773225825452  1.0000
  H   H29       1.0  0.4412875612141691  0.7808154509324812  0.002595505545740062  1.0000
  H   H30       1.0  0.4259898479769584  0.5554230042815993  0.9351111379192489  1.0000
  H   H31       1.0  0.30402354229913797  0.4329473727220139  0.9634798706637722  1.0000
  Zn  Zn1       1.0  0.8376995339435133  0.45839438228360874  0.6360426682540499  1.0000
  Zn  Zn2       1.0  0.00582432363060259  0.4657260046919238  0.6497695182569345  1.0000
  C   C42       1.0  0.9217297964079844  0.45679789432997975  0.880102783831691  1.0000
  C   C43       1.0  0.9217958974538296  0.46732421133561797  0.40570968023453746  1.0000
  C   C44       1.0  0.9218185167338536  0.6992628266795933  0.6377588227445001  1.0000
  C   C45       1.0  0.9217071193797798  0.224857716101319  0.6480537056948723  1.0000
  O   O4        1.0  0.9855908095086592  0.47181941476253275  0.4593052741569381  1.0000
  O   O5        1.0  0.985537709402717  0.45786624305213763  0.8369251774808135  1.0000
  O   O6        1.0  0.9856084919127881  0.653659704299367  0.6412306442122171  1.0000
  O   O7        1.0  0.9855199696446786  0.2760259603405335  0.6549997053672068  1.0000
  O   O8        1.0  0.8580038305566994  0.648094424134493  0.6308124764526464  1.0000
  O   O9        1.0  0.8579330484220705  0.4523025232714417  0.8265069406569681  1.0000
  O   O10       1.0  0.8579861487846889  0.46625565031131777  0.448885475920086  1.0000
  O   O11       1.0  0.8579153089018795  0.2704621865635817  0.6445800044975514  1.0000
