data_image0
_chemical_formula_structural       NC10NC3NCH9C7OC3NC3H11C7OC4NC3H9Zn2C4O8
_chemical_formula_sum              "N5 C45 H29 O10 Zn2"
_cell_length_a       19.437513618241372
_cell_length_b       10.298746005989749
_cell_length_c       10.299375074045738
_cell_angle_alpha    85.54279281073397
_cell_angle_beta     90.34040482055526
_cell_angle_gamma    89.53148363849229

_space_group_name_H-M_alt    "P 1"
_space_group_IT_number       1

loop_
  _space_group_symop_operation_xyz
  'x, y, z'

loop_
  _atom_site_type_symbol
  _atom_site_label
  _atom_site_symmetry_multiplicity
  _atom_site_fract_x
  _atom_site_fract_y
  _atom_site_fract_z
  _atom_site_occupancy
  N   N1        1.0  0.6480536980367714  0.4111389354066406  0.5757743138445945  1.0000
  C   C1        1.0  0.5891219083755133  0.42815159444174067  0.5728007220451579  1.0000
  C   C2        1.0  0.5156833675004155  0.44940734358877754  0.5691097358672452  1.0000
  C   C3        1.0  0.4739123691336762  0.3482146977170155  0.5574346832989676  1.0000
  C   C4        1.0  0.3980234344643317  0.35828342123396006  0.5502145134673522  1.0000
  C   C5        1.0  0.3584549029194307  0.43910917176459474  0.6159722478517435  1.0000
  C   C6        1.0  0.282272090150852  0.43050397991004075  0.6075264571778156  1.0000
  C   C7        1.0  0.24912557479175504  0.30914790675357784  0.6121517959629741  1.0000
  C   C8        1.0  0.17739046802010822  0.30277883263911143  0.6049824454343442  1.0000
  C   C9        1.0  0.1378312026627213  0.4172929493349089  0.5935499335980374  1.0000
  C   C10       1.0  0.0639815959792615  0.41058574388836044  0.586212432987046  1.0000
  N   N2        1.0  0.004611610278708001  0.40519374061637414  0.5803135410115341  1.0000
  C   C11       1.0  0.1702610823205548  0.538338094753277  0.5896698588871268  1.0000
  C   C12       1.0  0.24198061521397163  0.5449611519033071  0.5969012719435423  1.0000
  C   C13       1.0  0.3871455354070547  0.531360795485931  0.7059102594281044  1.0000
  N   N3        1.0  0.4441366561341305  0.5945873577201042  0.6855146262834491  1.0000
  C   C14       1.0  0.4879779308809449  0.5853766376880867  0.5724004220002463  1.0000
  H   H1        1.0  0.4962878287694537  0.253156703007257  0.545298612258178  1.0000
  H   H2        1.0  0.3733036035462305  0.2887923035356339  0.49188321240294863  1.0000
  H   H3        1.0  0.2785675490867913  0.2192242371956863  0.6231596241264172  1.0000
  H   H4        1.0  0.15278823497737043  0.20854365328146063  0.6088556176390936  1.0000
  H   H5        1.0  0.1401337377423536  0.6276057585045418  0.5809741872444483  1.0000
  H   H6        1.0  0.266101364459658  0.6396091692371737  0.5930127013519122  1.0000
  H   H7        1.0  0.3571431726865449  0.5517096724206121  0.790283893573348  1.0000
  H   H8        1.0  0.5307369024734935  0.6556918050091789  0.5781746706530766  1.0000
  H   H9        1.0  0.458314496102567  0.6135286389978596  0.48175487319578636  1.0000
  C   C15       1.0  0.8263030755257422  0.02676472922618367  0.5780263990039178  1.0000
  C   C16       1.0  0.858494995032606  0.034781749760695924  0.4559272259561242  1.0000
  C   C17       1.0  0.8740493589700408  0.9217245022765835  0.39348974136527204  1.0000
  C   C18       1.0  0.8584955138880528  0.7995451597440991  0.4558780935628093  1.0000
  C   C19       1.0  0.8263688152008973  0.789557807678197  0.5780727922920526  1.0000
  C   C20       1.0  0.81031085162279  0.9037330454759838  0.6382149952131009  1.0000
  C   C21       1.0  0.9086284731369333  0.9299889366670122  0.26510945247857665  1.0000
  O   O1        1.0  0.9506374309168899  0.8413203018282057  0.24043102983907194  1.0000
  C   C22       1.0  0.8955525331643629  0.0387835451110381  0.1647334145444821  1.0000
  C   C23       1.0  0.8304066564803391  0.09926658067309702  0.15179614013020726  1.0000
  C   C24       1.0  0.818356592044375  0.20117578509824408  0.055732227005919954  1.0000
  N   N4        1.0  0.7521093185998293  0.26251902916108927  0.04368434203543581  1.0000
  C   C25       1.0  0.8714950415934147  0.24220932966847553  0.9712712717156085  1.0000
  C   C26       1.0  0.9360130256433619  0.1815727201232571  0.9823444096106022  1.0000
  C   C27       1.0  0.9480095936287982  0.08008899991629836  0.07810342205357368  1.0000
  H   H10       1.0  0.766430237563021  0.21889544059552923  0.8096087029428125  1.0000
  H   H11       1.0  0.872179632205887  0.12908831681724076  0.4098778684180009  1.0000
  H   H12       1.0  0.8709066585943873  0.7121651571417692  0.40833638459370736  1.0000
  H   H13       1.0  0.7855000851930001  0.8968012361758891  0.7323332845504014  1.0000
  H   H14       1.0  0.7659242604630696  0.56336426488067  0.8091592733394466  1.0000
  H   H15       1.0  0.7887383589563679  0.06653242780218349  0.21523074170546286  1.0000
  H   H16       1.0  0.7121310183961777  0.23270713555911837  0.1061289581982181  1.0000
  H   H17       1.0  0.742569209368017  0.3383211192859399  0.9723217677566396  1.0000
  H   H18       1.0  0.8628291730236693  0.320734296527027  0.8966709596501583  1.0000
  H   H19       1.0  0.9768384958798442  0.2132862249377827  0.9165666790140525  1.0000
  H   H20       1.0  0.9984681409330969  0.03460318776292515  0.08527360267702755  1.0000
  C   C28       1.0  0.8263593495636984  0.40830323531926505  0.19666314827324594  1.0000
  C   C29       1.0  0.8793255211257981  0.5005388956207282  0.1888995085179459  1.0000
  C   C30       1.0  0.905505788500277  0.5481492384752107  0.06771957343165225  1.0000
  C   C31       1.0  0.8792141077327622  0.5003029975336257  0.953672759725086  1.0000
  C   C32       1.0  0.8263125285277966  0.4080193075543106  0.9594360912635524  1.0000
  C   C33       1.0  0.8000679211939524  0.36280679855686016  0.08141162448806782  1.0000
  C   C34       1.0  0.9619283397033908  0.6445355515277296  0.05946614275511353  1.0000
  O   O2        1.0  0.005894267794562369  0.6391170479183306  0.9703906477292898  1.0000
  C   C35       1.0  0.9684640729623717  0.7470807665541894  0.1521819797722861  1.0000
  C   C36       1.0  0.03389323925145993  0.7925547634067014  0.1847742838240365  1.0000
  C   C37       1.0  0.040568597502073755  0.8904635737029918  0.2710818555519967  1.0000
  C   C38       1.0  0.10775939536485613  0.9356988511239352  0.3047276830337007  1.0000
  N   N5        1.0  0.1617732267186267  0.9720573004400805  0.3317713761088803  1.0000
  C   C39       1.0  0.9818212580075186  0.9442986778629956  0.3245305437734711  1.0000
  C   C40       1.0  0.9166214610038453  0.9008326771481605  0.2914403267016792  1.0000
  C   C41       1.0  0.9098092953068194  0.8031961553886291  0.2054065882181484  1.0000
  H   H21       1.0  0.7271293780047982  0.23276791633324057  0.41875805553479895  1.0000
  H   H22       1.0  0.9008077942464416  0.5343849082433818  0.27735828821505404  1.0000
  H   H23       1.0  0.8996960125221105  0.5362004101266467  0.8601905148286906  1.0000
  H   H24       1.0  0.7592351016313829  0.2916991707841152  0.08659300752701782  1.0000
  H   H25       1.0  0.8063868016550494  0.3717617020887154  0.634260121576983  1.0000
  H   H26       1.0  0.07962816570255349  0.7510686092263783  0.14397342957137216  1.0000
  H   H27       1.0  0.9864173630130496  0.020106464529128676  0.3912727821281392  1.0000
  H   H28       1.0  0.8712293873762328  0.9432918954301277  0.33209678553901933  1.0000
  H   H29       1.0  0.8587042061693742  0.7726520810158028  0.17945078934558123  1.0000
  Zn  Zn1       1.0  0.7509486141821122  0.40941978830376846  0.5770917458396612  1.0000
  Zn  Zn2       1.0  0.901716698768725  0.4069022132859068  0.5790067787305011  1.0000
  C   C42       1.0  0.8263194149957261  0.40289885895798583  0.815255309942946  1.0000
  C   C43       1.0  0.82634754447134  0.4134247538520752  0.3408433631113299  1.0000
  C   C44       1.0  0.826353173116571  0.6453756475618393  0.5728885797557501  1.0000
  C   C45       1.0  0.8263137347651347  0.17094640564553676  0.5832101617919376  1.0000
  O   O3        1.0  0.8835592844522426  0.4141825094326892  0.3899583049705877  1.0000
  O   O4        1.0  0.8835371626185361  0.4002293425244463  0.7675934598141523  1.0000
  O   O5        1.0  0.8835636513501587  0.5960324282361995  0.5718806006883146  1.0000
  O   O6        1.0  0.883532744280461  0.2183794339072811  0.5856710660643734  1.0000
  O   O7        1.0  0.7691325172206289  0.5979425685429351  0.5704274578454511  1.0000
  O   O8        1.0  0.7691060286246195  0.4021410432944079  0.766140247817539  1.0000
  O   O9        1.0  0.7691281505959847  0.4160941655233352  0.38850353149930417  1.0000
  O   O10       1.0  0.7691016104146148  0.22029108067212322  0.5842163899648047  1.0000
