data_image0
_chemical_formula_structural       NC12NC2H8C6SCOC6H10C7OC4NC3H9Zn2C4O8
_chemical_formula_sum              "N3 C45 H27 S1 O10 Zn2"
_cell_length_a       17.80743265337812
_cell_length_b       10.302038109246572
_cell_length_c       10.299375074045738
_cell_angle_alpha    85.54623755187913
_cell_angle_beta     91.52722468557046
_cell_angle_gamma    89.45358301258409

_space_group_name_H-M_alt    "P 1"
_space_group_IT_number       1

loop_
  _space_group_symop_operation_xyz
  'x, y, z'

loop_
  _atom_site_type_symbol
  _atom_site_label
  _atom_site_symmetry_multiplicity
  _atom_site_fract_x
  _atom_site_fract_y
  _atom_site_fract_z
  _atom_site_occupancy
  N   N1        1.0  0.7077678176776255  0.4068265621374927  0.6015070160753953  1.0000
  C   C1        1.0  0.656957619264959  0.4364018879403422  0.5328108670606571  1.0000
  C   C2        1.0  0.5937447167388739  0.47319144517549927  0.44736150560175525  1.0000
  C   C3        1.0  0.6054890320000595  0.5272426989023011  0.32074645486475206  1.0000
  C   C4        1.0  0.5441830600031203  0.5625282034343317  0.2376929132486627  1.0000
  C   C5        1.0  0.47097855820538365  0.544026082391186  0.2805945419710696  1.0000
  C   C6        1.0  0.4582574195558247  0.48985589325673273  0.40767773024019793  1.0000
  C   C7        1.0  0.5204207092394352  0.45457364752176366  0.49071476020069915  1.0000
  C   C8        1.0  0.380484332872609  0.4702389293862559  0.45343956238754135  1.0000
  C   C9        1.0  0.3616961373610314  0.4973751656472509  0.5804917086660029  1.0000
  C   C10       1.0  0.2884616949141598  0.4789145940044248  0.6234339078549065  1.0000
  C   C11       1.0  0.23307238392469273  0.4330632882250791  0.5401619138248526  1.0000
  C   C12       1.0  0.1577011547807611  0.4140495437517948  0.5845049949839451  1.0000
  N   N2        1.0  0.0971080240138064  0.39876377198332347  0.6201537817235843  1.0000
  C   C13       1.0  0.2511690243996436  0.40575799403927393  0.41365272646117024  1.0000
  C   C14       1.0  0.3243506289502082  0.42423343524845825  0.3704546352690541  1.0000
  H   H1        1.0  0.6619593735867341  0.5420746932619891  0.28631076514431597  1.0000
  H   H2        1.0  0.5533943838714783  0.604648625186633  0.13991755112519733  1.0000
  H   H3        1.0  0.42434835002380666  0.5736769342064987  0.21500643887207138  1.0000
  H   H4        1.0  0.5119075248732989  0.41106829292011504  0.5883654606382447  1.0000
  H   H5        1.0  0.4033755796782107  0.5345230472256868  0.6460723857109019  1.0000
  H   H6        1.0  0.27501676198385  0.5007213427555115  0.7214489300314919  1.0000
  H   H7        1.0  0.2087729090411524  0.3698769483983122  0.3484852100955329  1.0000
  H   H8        1.0  0.3372668727111695  0.40089140464307804  0.2727427215939493  1.0000
  C   C15       1.0  0.902370366314863  0.021518154851456694  0.6107869828381165  1.0000
  C   C16       1.0  0.838152455706433  0.02764762316958147  0.5281884646543686  1.0000
  C   C17       1.0  0.806553698738795  0.9137317457019088  0.4866238578630546  1.0000
  C   C18       1.0  0.8383940947070029  0.7925100411684638  0.5281460290771076  1.0000
  C   C19       1.0  0.9025126892898554  0.7840620704664407  0.610885377374278  1.0000
  C   C20       1.0  0.93420882935803  0.8992255406286559  0.6516937256817208  1.0000
  S   S1        1.0  0.7250403920913328  0.9229934764450659  0.38010652232883024  1.0000
  C   C21       1.0  0.7802824138825232  0.9303992425273568  0.23632409401948107  1.0000
  O   O1        1.0  0.7983997456829822  0.8247738178691105  0.19083979033305698  1.0000
  C   C22       1.0  0.8050631880752366  0.056076968680348394  0.17201060969236281  1.0000
  C   C23       1.0  0.858184965319134  0.057354465555704115  0.07304396863361906  1.0000
  C   C24       1.0  0.8823337049367432  0.1752138521572968  0.01247483198677335  1.0000
  C   C25       1.0  0.8537671469404934  0.2930278071662724  0.0496095804129606  1.0000
  C   C26       1.0  0.8008713922783497  0.2932187236563397  0.14723394533275602  1.0000
  C   C27       1.0  0.776472225720093  0.17566803988647184  0.2081112743210769  1.0000
  H   H9        1.0  0.023326589886188742  0.21727059068006027  0.7666401095518902  1.0000
  H   H10       1.0  0.8125953730432862  0.12071076293254568  0.49568733956485955  1.0000
  H   H11       1.0  0.8130790706345038  0.7052948191861979  0.49516794529363595  1.0000
  H   H12       1.0  0.9837166378723147  0.8935798324850089  0.715368353061749  1.0000
  H   H13       1.0  0.9270216024870968  0.45353303700407394  0.6420270267126171  1.0000
  H   H14       1.0  0.8814263508186175  0.9673205025117089  0.042858177629594874  1.0000
  H   H15       1.0  0.9233192296492183  0.17514796930571874  0.9367368801798803  1.0000
  H   H16       1.0  0.8725483964801569  0.38416141911802293  0.0026327694438523785  1.0000
  H   H17       1.0  0.7786147091847185  0.38461584892066814  0.17570616864003985  1.0000
  H   H18       1.0  0.7350467002071235  0.17913117173081305  0.2826957674257071  1.0000
  C   C28       1.0  0.9024670787200132  0.4029318991083264  0.22945064632341539  1.0000
  C   C29       1.0  0.9603116188204571  0.49482263703053264  0.22378867522771762  1.0000
  C   C30       1.0  0.9889033665237537  0.5422618319758887  0.10364768949771741  1.0000
  C   C31       1.0  0.9601899399955703  0.4945874781400419  0.988557502902486  1.0000
  C   C32       1.0  0.9024159265973636  0.40264834225234947  0.9922217183847213  1.0000
  C   C33       1.0  0.8737541449806102  0.3576065816332539  0.11315591168135364  1.0000
  C   C34       1.0  0.05052245816426404  0.6382813235631661  0.09763295384071857  1.0000
  O   O2        1.0  0.0985302238305481  0.6326032439608829  0.010296698120818348  1.0000
  C   C35       1.0  0.057668581161937515  0.7407542467204966  0.19061402397237592  1.0000
  C   C36       1.0  0.12911767314698164  0.7858244883450605  0.2257980914355282  1.0000
  C   C37       1.0  0.13641583008226865  0.8836616888350197  0.31237612078755994  1.0000
  C   C38       1.0  0.209788500429831  0.9284828173565196  0.348683398311449  1.0000
  N   N3        1.0  0.26877186025446287  0.9645083394499665  0.3778665970017727  1.0000
  C   C39       1.0  0.07227208773509841  0.9378284433034187  0.36350384976760375  1.0000
  C   C40       1.0  0.0010736394191477316  0.8947641795477577  0.327831074615307  1.0000
  C   C41       1.0  0.9936261217823135  0.7971999920091533  0.2415214830970389  1.0000
  H   H19       1.0  0.7940974289678179  0.22804367031228168  0.44760798569084725  1.0000
  H   H20       1.0  0.9837721546281488  0.5285299164707065  0.3130996291795243  1.0000
  H   H21       1.0  0.9825583206872242  0.5303514349558209  0.8958879836505655  1.0000
  H   H22       1.0  0.8291604806815759  0.28676486267293044  0.11671707074907522  1.0000
  H   H23       1.0  0.880654826932167  0.3665210039871287  0.6662550059128023  1.0000
  H   H24       1.0  0.17905374972882648  0.7440800052409788  0.18680413627118586  1.0000
  H   H25       1.0  0.07729777690702622  0.013584187283896654  0.430432846346974  1.0000
  H   H26       1.0  0.9515120283518874  0.937479371425801  0.36669426290687523  1.0000
  H   H27       1.0  0.9378194786786512  0.7669696584764001  0.2135416443753424  1.0000
  Zn  Zn1       1.0  0.8201229932048435  0.4044963458373225  0.6068955566603558  1.0000
  Zn  Zn2       1.0  0.9847528433062454  0.40108339344060595  0.6147758332846878  1.0000
  C   C42       1.0  0.9024229729577633  0.3975295226019635  0.848040878218324  1.0000
  C   C43       1.0  0.9024546616033317  0.40805181758364717  0.37363072546242293  1.0000
  C   C44       1.0  0.9024822462434835  0.6399270340140486  0.6056911733091139  1.0000
  C   C45       1.0  0.9023953318452139  0.1656527473841296  0.615980496723064  1.0000
  O   O3        1.0  0.9649266633863285  0.4084692469721465  0.42500940030260126  1.0000
  O   O4        1.0  0.9649012179685795  0.3945207619674651  0.8026427770101612  1.0000
  O   O5        1.0  0.964948239597236  0.5902598349254702  0.6069436354914775  1.0000
  O   O6        1.0  0.9648795855889165  0.21273018450293568  0.620708441754571  1.0000
  O   O7        1.0  0.8399961947420849  0.5928495559410818  0.6009629454944898  1.0000
  O   O8        1.0  0.8399491734057386  0.39711204293659774  0.7966620179657602  1.0000
  O   O9        1.0  0.8399746189696738  0.4110604832757161  0.4190270797860862  1.0000
  O   O10       1.0  0.8399275411609297  0.21532141148380024  0.6147262186087874  1.0000
