data_image0
_chemical_formula_structural       NC10NC3NCH9C6SCOC6H10C7OC4NC3H9Zn2C4O8
_chemical_formula_sum              "N4 C45 H28 S1 O10 Zn2"
_cell_length_a       19.437513618241372
_cell_length_b       10.302038109246572
_cell_length_c       10.299375074045738
_cell_angle_alpha    85.54623755187913
_cell_angle_beta     90.34040482055526
_cell_angle_gamma    89.54061355658763

_space_group_name_H-M_alt    "P 1"
_space_group_IT_number       1

loop_
  _space_group_symop_operation_xyz
  'x, y, z'

loop_
  _atom_site_type_symbol
  _atom_site_label
  _atom_site_symmetry_multiplicity
  _atom_site_fract_x
  _atom_site_fract_y
  _atom_site_fract_z
  _atom_site_occupancy
  N   N1        1.0  0.6481731430431918  0.4106794448084954  0.5758608962195035  1.0000
  C   C1        1.0  0.5892427934082252  0.427686564235354  0.572888348255217  1.0000
  C   C2        1.0  0.515806051713229  0.44893539215256406  0.5691986662530981  1.0000
  C   C3        1.0  0.474026487955845  0.34777569631018146  0.55751740487052  1.0000
  C   C4        1.0  0.3981384055475464  0.3578411412812115  0.5502978528193172  1.0000
  C   C5        1.0  0.3585767154496843  0.43864057358652775  0.6160605463790665  1.0000
  C   C6        1.0  0.2823931742998167  0.4300381837273357  0.6076142277217282  1.0000
  C   C7        1.0  0.2492363868289004  0.3087216261516883  0.6122321205377059  1.0000
  C   C8        1.0  0.1775007409508061  0.30235462591499584  0.6050623792257526  1.0000
  C   C9        1.0  0.1379511685719493  0.4168314548862073  0.5936368935609553  1.0000
  C   C10       1.0  0.0641009941611187  0.41012643341868826  0.5862989814201267  1.0000
  N   N2        1.0  0.0047305520576914  0.4047361858737579  0.58039975861082  1.0000
  C   C11       1.0  0.1703912940233109  0.537837185967067  0.5897642457418257  1.0000
  C   C12       1.0  0.2421113875214166  0.5444580865381698  0.5969960651650441  1.0000
  C   C13       1.0  0.387275156520511  0.5308621586258464  0.7060042181809874  1.0000
  N   N3        1.0  0.44427162902191786  0.5940681332267468  0.6856124643892278  1.0000
  C   C14       1.0  0.4881121241328751  0.5848604123602612  0.5724976949695988  1.0000
  H   H1        1.0  0.4963939014648353  0.252748654084088  0.5453755014154091  1.0000
  H   H2        1.0  0.373412692595585  0.28837265106090015  0.4919622880315808  1.0000
  H   H3        1.0  0.27867074958901394  0.21882723725474085  0.6232344313104259  1.0000
  H   H4        1.0  0.1528905314279917  0.2081501311184779  0.6089297695011509  1.0000
  H   H5        1.0  0.14027150545281564  0.6270757826639244  0.5810740512397294  1.0000
  H   H6        1.0  0.2662401481916016  0.6390752848839081  0.5931133018330084  1.0000
  H   H7        1.0  0.35727451621845  0.5512044096235631  0.7903791008596306  1.0000
  H   H8        1.0  0.5308770475104686  0.6551526838789068  0.5782762579064635  1.0000
  H   H9        1.0  0.4584510722637153  0.613003246904384  0.481853873469992  1.0000
  C   C15       1.0  0.8263899854086726  0.026430397341669076  0.5780893975694725  1.0000
  C   C16       1.0  0.7675792795258972  0.032210281984510036  0.49781782925717133  1.0000
  C   C17       1.0  0.7386411657710544  0.9181223900509277  0.4573982102545766  1.0000
  C   C18       1.0  0.7678005723094475  0.7970740153960103  0.4977666378384946  1.0000
  C   C19       1.0  0.8265203246636149  0.7889750877216402  0.5781826350018726  1.0000
  C   C20       1.0  0.8555476217760185  0.9043111024751128  0.6178424668228997  1.0000
  S   S1        1.0  0.6639913514535652  0.9269403860002814  0.35383452700563156  1.0000
  C   C21       1.0  0.7145819462759562  0.9346468736231033  0.20805039209624598  1.0000
  O   O1        1.0  0.7311737827558804  0.8291200744632129  0.16190960297601342  1.0000
  C   C22       1.0  0.7372761574202819  0.06045949912172266  0.1428389710599487  1.0000
  C   C23       1.0  0.7859250341567209  0.062026175541392004  0.04194745092062546  1.0000
  C   C24       1.0  0.8080404285947412  0.18001702087574367  0.9805032794740431  1.0000
  C   C25       1.0  0.7818791999829189  0.29767546783034726  0.01867314330381764  1.0000
  C   C26       1.0  0.7334373145274549  0.2975784351774653  0.11821419732708915  1.0000
  C   C27       1.0  0.7110925793181141  0.17989492942322438  0.17997563538947037  1.0000
  H   H10       1.0  0.937161588248873  0.22284128376114132  0.7295596493777372  1.0000
  H   H11       1.0  0.7441741257692005  0.1251342964037463  0.4662427705820642  1.0000
  H   H12       1.0  0.744617095596524  0.7097209857667608  0.4657058494240729  1.0000
  H   H13       1.0  0.9008868291380867  0.8989349004784531  0.6797231680604163  1.0000
  H   H14       1.0  0.8489655657481204  0.4585794736725106  0.6084361985729656  1.0000
  H   H15       1.0  0.8072094744938206  0.9721187318575661  0.010919503289457344  1.0000
  H   H16       1.0  0.845574935969389  0.18017425133051046  0.9032802083202682  1.0000
  H   H17       1.0  0.7990790517427044  0.38891131945601853  0.971015789698118  1.0000
  H   H18       1.0  0.7130546637849398  0.3888544015158524  0.14749289635699991  1.0000
  H   H19       1.0  0.6731551195985377  0.1831325527245098  0.25606119136509253  1.0000
  C   C28       1.0  0.8264785545439907  0.40784466807281583  0.1967495566598667  1.0000
  C   C29       1.0  0.8794525333380788  0.5000502948902197  0.18899157615066908  1.0000
  C   C30       1.0  0.9056368306613922  0.5476451350154046  0.06781456226260096  1.0000
  C   C31       1.0  0.8793410999775914  0.4998144736155061  0.9537648128839571  1.0000
  C   C32       1.0  0.8264317094751938  0.40756083275952193  0.9595224822293935  1.0000
  C   C33       1.0  0.80018327515572  0.3623630457162905  0.08149524137808517  1.0000
  C   C34       1.0  0.9620675404260002  0.64400006306144  0.059567045501186744  1.0000
  O   O2        1.0  0.006033009871193151  0.6385833238080529  0.9704912180156033  1.0000
  C   C35       1.0  0.9686119535630286  0.7465118876392294  0.15228917432140565  1.0000
  C   C36       1.0  0.03404496897122877  0.7919710773926745  0.1848842684929275  1.0000
  C   C37       1.0  0.040728614654200745  0.8898480069317423  0.27119784755093  1.0000
  C   C38       1.0  0.10792324142983212  0.935068554984686  0.30484645050544534  1.0000
  N   N4        1.0  0.16194015032267606  0.9714151653775294  0.3318923744034099  1.0000
  C   C39       1.0  0.9819858319996562  0.9436655814753556  0.3246498388994419  1.0000
  C   C40       1.0  0.9167823558424962  0.9002137340222336  0.29155695491125  1.0000
  C   C41       1.0  0.909961925760812  0.8026090043581922  0.20551722580431586  1.0000
  H   H20       1.0  0.7272337249035952  0.23236650634231926  0.4188336937099133  1.0000
  H   H21       1.0  0.9009376713341033  0.5338852866812636  0.2774524325165444  1.0000
  H   H22       1.0  0.8998260432818371  0.5357001974065458  0.8602847705228021  1.0000
  H   H23       1.0  0.7593444367307669  0.2912785717844595  0.08667226151049778  1.0000
  H   H24       1.0  0.8065029135992403  0.37131503338077265  0.6343442879074526  1.0000
  H   H25       1.0  0.07977638385175445  0.7504984318026966  0.14408086880007676  1.0000
  H   H26       1.0  0.986588353709693  0.019448683849697446  0.39139672854537655  1.0000
  H   H27       1.0  0.871393876149877  0.9426591268678004  0.3322160188924659  1.0000
  H   H28       1.0  0.8588542512385633  0.7720748756502838  0.17955955285795455  1.0000
  Zn  Zn1       1.0  0.7510679136723603  0.40896085748886657  0.5771782227339295  1.0000
  Zn  Zn2       1.0  0.9018357851603499  0.4064441022358216  0.5790931011554834  1.0000
  C   C42       1.0  0.8264381625258318  0.40244205146747847  0.815341386736604  1.0000
  C   C43       1.0  0.8264671829594878  0.41296451895295516  0.3409300857357811  1.0000
  C   C44       1.0  0.826492444948604  0.644839885546135  0.5729895340470736  1.0000
  C   C45       1.0  0.8264128488193436  0.1705651257794467  0.5832820068230318  1.0000
  O   O3        1.0  0.8836789870801558  0.4137220277955931  0.3900450740881769  1.0000
  O   O4        1.0  0.8836556841890288  0.3997734042734393  0.767679372815949  1.0000
  O   O5        1.0  0.8836987465550706  0.5955127332035499  0.5719785274583871  1.0000
  O   O6        1.0  0.8836358732748175  0.21798270904851114  0.5857458214143119  1.0000
  O   O7        1.0  0.7692677741082182  0.5974222515364385  0.5705255018148159  1.0000
  O   O8        1.0  0.769224712009874  0.40168448256144096  0.7662262781143718  1.0000
  O   O9        1.0  0.769248015034878  0.4156330614188277  0.3885904179091888  1.0000
  O   O10       1.0  0.769204901219162  0.2198937333489781  0.5842912626064658  1.0000
