data_image0
_chemical_formula_structural       NC9NC5H8C7OC4NC3H9C7OC3NC3H11Zn2C4O8
_chemical_formula_sum              "N4 C45 H28 O10 Zn2"
_cell_length_a       17.807436237873137
_cell_length_b       10.299371701877257
_cell_length_c       10.298749378158432
_cell_angle_alpha    85.57636868446646
_cell_angle_beta     89.40102399035862
_cell_angle_gamma    88.40037932452064

_space_group_name_H-M_alt    "P 1"
_space_group_IT_number       1

loop_
  _space_group_symop_operation_xyz
  'x, y, z'

loop_
  _atom_site_type_symbol
  _atom_site_label
  _atom_site_symmetry_multiplicity
  _atom_site_fract_x
  _atom_site_fract_y
  _atom_site_fract_z
  _atom_site_occupancy
  N   N1        1.0  0.7074238284130179  0.387873208237274  0.5574891213618354  1.0000
  C   C1        1.0  0.6468316838163578  0.35268449969278026  0.5464520742951977  1.0000
  C   C2        1.0  0.5714617155773996  0.3089136214481636  0.5327231861529955  1.0000
  C   C3        1.0  0.5533534807338929  0.23750757822418533  0.4276867323986724  1.0000
  C   C4        1.0  0.4801731118361585  0.19489793941999234  0.4142741930166627  1.0000
  C   C5        1.0  0.4240522175135505  0.22331681788579516  0.5058655221146067  1.0000
  C   C6        1.0  0.3462803691825584  0.17814865520207168  0.4916935873183037  1.0000
  C   C7        1.0  0.2841147676020909  0.2599024300596211  0.517663030886883  1.0000
  C   C8        1.0  0.2107920741905978  0.21708975253602625  0.5042641033842719  1.0000
  C   C9        1.0  0.1475766925913121  0.301534841887642  0.5305984136231487  1.0000
  N   N2        1.0  0.0967645134117863  0.3694228513859661  0.5517704704809177  1.0000
  C   C10       1.0  0.1990514086800212  0.09226532299727364  0.4648702909821214  1.0000
  C   C11       1.0  0.2603596382563122  0.010497696584238714  0.438892452205764  1.0000
  C   C12       1.0  0.3335628408128793  0.05291585112318287  0.45208868745839714  1.0000
  C   C13       1.0  0.4428519274752944  0.2952172077755426  0.6111213953878312  1.0000
  C   C14       1.0  0.5160851340828418  0.3376364657711306  0.6243782048715261  1.0000
  H   H1        1.0  0.5957396189046339  0.21502844324777692  0.35596013346659894  1.0000
  H   H2        1.0  0.467247556833657  0.14122278051381199  0.33132813331388444  1.0000
  H   H3        1.0  0.2926248636532511  0.3573646185864652  0.546576281337467  1.0000
  H   H4        1.0  0.1425819269035066  0.05823025913116098  0.45426271946869967  1.0000
  H   H5        1.0  0.2511511735993522  0.9138557061719742  0.40877897345549963  1.0000
  H   H6        1.0  0.3801951930639109  0.9871726019689245  0.4330158969703286  1.0000
  H   H7        1.0  0.4011827309632341  0.3171571861231135  0.6841424150568836  1.0000
  H   H8        1.0  0.5295390702029248  0.39253229450731597  0.706282972970798  1.0000
  C   C15       1.0  0.9020584522570112  0.9972793128099329  0.5545033393740728  1.0000
  C   C16       1.0  0.9056962934392242  0.006458935452048342  0.41777639345218964  1.0000
  C   C17       1.0  0.906678073547557  0.8939604001482435  0.3487652390133711  1.0000
  C   C18       1.0  0.9057056152352913  0.7711901521183252  0.41809367242716156  1.0000
  C   C19       1.0  0.9021370668780618  0.7600064237609624  0.5547674134683673  1.0000
  C   C20       1.0  0.9001364740118091  0.8736610610823493  0.6221685253980431  1.0000
  C   C21       1.0  0.9113083771437015  0.9034722965256837  0.2044381438171834  1.0000
  O   O1        1.0  0.9474612386515158  0.8160167122188297  0.14895779908380757  1.0000
  C   C22       1.0  0.8749128658317158  0.01211697530945055  0.12305536729755184  1.0000
  C   C23       1.0  0.9070771921660706  0.05524680549289562  0.0026051016625017187  1.0000
  C   C24       1.0  0.8726633160511164  0.15678726317526848  0.9243148195994766  1.0000
  C   C25       1.0  0.906284888299688  0.2010322655200396  0.8016568630098959  1.0000
  N   N3        1.0  0.9333151365090877  0.2365956873983015  0.70305760333579  1.0000
  C   C26       1.0  0.8055241435285421  0.21514405759089983  0.9654753300408436  1.0000
  C   C27       1.0  0.7727254759351277  0.1718338027207309  0.0841952532846888  1.0000
  C   C28       1.0  0.8069236491611764  0.07060104227117936  0.162477305245867  1.0000
  H   H9        1.0  0.8963487186693538  0.18721652348395268  0.8125914838106698  1.0000
  H   H10       1.0  0.9086119039131076  0.10124880582103768  0.3648436089074856  1.0000
  H   H11       1.0  0.9070193140441434  0.684294688676457  0.3650587724131964  1.0000
  H   H12       1.0  0.8973323753279816  0.865780331618865  0.7275752490581973  1.0000
  H   H13       1.0  0.9013985125867753  0.4282197631909167  0.6073068446920662  1.0000
  H   H14       1.0  0.9591735203482314  0.010689452831451174  0.9702610323870142  1.0000
  H   H15       1.0  0.7784363456756277  0.293648845032459  0.905629904853094  1.0000
  H   H16       1.0  0.7205007659205064  0.2164135183677809  0.1153881293177359  1.0000
  H   H17       1.0  0.779790441148621  0.03716962417282477  0.2530378559937585  1.0000
  C   C29       1.0  0.9020631126838053  0.3786725243780593  0.1732348407569302  1.0000
  C   C30       1.0  0.9431111077625033  0.49359238644521186  0.1626528872443489  1.0000
  C   C31       1.0  0.9631137538878675  0.552540446389673  0.04007459157054294  1.0000
  C   C32       1.0  0.9431140985166363  0.4936411062747914  0.9274088308871065  1.0000
  C   C33       1.0  0.9021323827648542  0.3786132092728367  0.9360359135873955  1.0000
  C   C34       1.0  0.8816943947500996  0.32204761515676705  0.059370140706592744  1.0000
  C   C35       1.0  0.007069283089450762  0.6732257395508392  0.028791533964309002  1.0000
  O   O2        1.0  0.054013062286408564  0.6893439862902417  0.9367614923180843  1.0000
  C   C36       1.0  0.9977712401749255  0.7756174486291219  0.12185324272414144  1.0000
  C   C37       1.0  0.9274909032834894  0.8015220082719916  0.17959763296093323  1.0000
  C   C38       1.0  0.9190975085973622  0.8994220505102004  0.2664550951832301  1.0000
  N   N4        1.0  0.8475744518862681  0.9246631225214204  0.3251853726809022  1.0000
  C   C39       1.0  0.9810965703473694  0.9727353129060394  0.2949686483522205  1.0000
  C   C40       1.0  0.050785103866323844  0.9488094544674897  0.23677429469276934  1.0000
  C   C41       1.0  0.05913523686344235  0.8512231336926539  0.1502943809128694  1.0000
  H   H18       1.0  0.8254981475125315  0.16046969761397323  0.40065496535602785  1.0000
  H   H19       1.0  0.9602724870763236  0.5366250572896643  0.24996222015983238  1.0000
  H   H20       1.0  0.9589625496760632  0.5384121538705611  0.832785567523775  1.0000
  H   H21       1.0  0.8500573740633023  0.23346257625766675  0.0667750738285644  1.0000
  H   H22       1.0  0.8249694901145114  0.16101770758518819  0.7450484078638073  1.0000
  H   H23       1.0  0.8790120277079158  0.7468119797685615  0.15624686559607692  1.0000
  H   H24       1.0  0.8009839180361434  0.8705987867331895  0.3046221185035425  1.0000
  H   H25       1.0  0.8406986215733278  0.9975075352119374  0.389799305716527  1.0000
  H   H26       1.0  0.9753316934405664  0.048623045970594525  0.3618126824288479  1.0000
  H   H27       1.0  0.09846166382069876  0.006017326264870615  0.2587310578050601  1.0000
  H   H28       1.0  0.11371082804682953  0.8339921364673377  0.1064872236518486  1.0000
  Zn  Zn1       1.0  0.8197791390141927  0.3825453679329318  0.5558463524626229  1.0000
  Zn  Zn2       1.0  0.9844091844922622  0.37474010469624974  0.5534239132121439  1.0000
  C   C42       1.0  0.9021170962283412  0.37345084515251403  0.791848412810779  1.0000
  C   C43       1.0  0.9020730252135593  0.3838361808515711  0.3174219544553851  1.0000
  C   C44       1.0  0.9021178680898135  0.6158353655883355  0.5495419574811378  1.0000
  C   C45       1.0  0.902072197020833  0.1414501027726438  0.5597284793157846  1.0000
  O   O3        1.0  0.9645525956473786  0.3826014286777193  0.36489316194558286  1.0000
  O   O4        1.0  0.9645879208974861  0.3687606034387012  0.7425382557646538  1.0000
  O   O5        1.0  0.9645877020984064  0.5644892088862319  0.5468740915879535  1.0000
  O   O6        1.0  0.9645527582614872  0.18687283519137954  0.5605572295693722  1.0000
  O   O7        1.0  0.8396355090648127  0.5704126401027694  0.5487130369252233  1.0000
  O   O8        1.0  0.8396357280149911  0.374685594963313  0.7443771323909938  1.0000
  O   O9        1.0  0.839600402668338  0.38852637506541643  0.36673047702536143  1.0000
  O   O10       1.0  0.8396005652872626  0.192797772282854  0.5623946420218908  1.0000
