data_image0
_chemical_formula_structural       NC10NC3NH7C6NCOC6H11C7OC6OCH12Zn2C4O8
_chemical_formula_sum              "N4 C44 H30 O11 Zn2"
_cell_length_a       19.210446455230148
_cell_length_b       10.29965916528486
_cell_length_c       10.299362532796529
_cell_angle_alpha    85.59689086151258
_cell_angle_beta     90.00583596421428
_cell_angle_gamma    89.96405462056514

_space_group_name_H-M_alt    "P 1"
_space_group_IT_number       1

loop_
  _space_group_symop_operation_xyz
  'x, y, z'

loop_
  _atom_site_type_symbol
  _atom_site_label
  _atom_site_symmetry_multiplicity
  _atom_site_fract_x
  _atom_site_fract_y
  _atom_site_fract_z
  _atom_site_occupancy
  N   N1        1.0  0.6554888336651818  0.41971462134070325  0.567850908470497  1.0000
  C   C1        1.0  0.5952604926039645  0.4219221203673853  0.5680828600408354  1.0000
  C   C2        1.0  0.5204563112323569  0.42465901486112045  0.5683702198526619  1.0000
  C   C3        1.0  0.48485680603887327  0.5408895098079101  0.5835242730468297  1.0000
  C   C4        1.0  0.4121913293598409  0.541041025951335  0.5834717315046314  1.0000
  C   C5        1.0  0.3752896249232519  0.4253679799726575  0.5684569608883931  1.0000
  C   C6        1.0  0.2979673691174958  0.42401151180177044  0.5683058753421482  1.0000
  C   C7        1.0  0.260210625198994  0.52755974192857  0.5049825362141094  1.0000
  C   C8        1.0  0.1874321466090982  0.526157532411367  0.5048729512982499  1.0000
  C   C9        1.0  0.1514090119465422  0.4214645779684232  0.5680358031921051  1.0000
  C   C10       1.0  0.076479371731204  0.420162505770846  0.5678985006463961  1.0000
  N   N2        1.0  0.016241422806476  0.41911559552703204  0.5677881442590502  1.0000
  C   C11       1.0  0.1884421037368309  0.31804202833066486  0.6313341799826595  1.0000
  C   C12       1.0  0.2612224188538607  0.319169994809817  0.6314939101466293  1.0000
  C   C13       1.0  0.4134991759233236  0.3109577555888716  0.5535917336236564  1.0000
  N   N3        1.0  0.4842693334711122  0.31340268564037843  0.5537581869528232  1.0000
  H   H1        1.0  0.5129664356911149  0.6303232131159513  0.5956052126604434  1.0000
  H   H2        1.0  0.3849314146214531  0.6310569754598194  0.5969475924043903  1.0000
  H   H3        1.0  0.2869354097344657  0.6087952728298145  0.45402208592825444  1.0000
  H   H4        1.0  0.1592833984626457  0.6065657742101076  0.4552425786358951  1.0000
  H   H5        1.0  0.1610774320736773  0.23667039749828556  0.6808647174670339  1.0000
  H   H6        1.0  0.2887265424240706  0.23888134974702457  0.6825620376728101  1.0000
  H   H7        1.0  0.3872248250198967  0.2200789046695968  0.5400693112877348  1.0000
  C   C14       1.0  0.8358072078220677  0.0380544981962998  0.5677040617610183  1.0000
  C   C15       1.0  0.8362609290876178  0.0472923585467262  0.4308907084287579  1.0000
  C   C16       1.0  0.8375159706953011  0.9351084156071456  0.36205626256457535  1.0000
  C   C17       1.0  0.8363921247697181  0.8121019396083481  0.4311870640165514  1.0000
  C   C18       1.0  0.8359296866281724  0.8007657185578131  0.567946196339427  1.0000
  C   C19       1.0  0.8358847841755711  0.9143492084085303  0.6354327292587085  1.0000
  N   N4        1.0  0.8369104452331758  0.9481388804873228  0.2219930198803346  1.0000
  C   C20       1.0  0.8695285776888312  0.8569311925606528  0.14226281916870054  1.0000
  O   O1        1.0  0.9175553706006724  0.7840473265526515  0.18923157047840644  1.0000
  C   C21       1.0  0.8492759001516221  0.8507254311501882  0.0039028706357890908  1.0000
  C   C22       1.0  0.784902635472882  0.9006752888284862  0.9575692275819923  1.0000
  C   C23       1.0  0.7662313139776252  0.89365258575633  0.82705245581728  1.0000
  C   C24       1.0  0.8112846813071394  0.8364643931426229  0.7415897120786861  1.0000
  C   C25       1.0  0.8750449791769968  0.7857276068205409  0.786547270177294  1.0000
  C   C26       1.0  0.8939820257758322  0.7923935038795603  0.9169595232328107  1.0000
  H   H8        1.0  0.8342869431370096  0.2278938856659991  0.8257780180563963  1.0000
  H   H9        1.0  0.83617321427451  0.14188517670769696  0.37706882378037454  1.0000
  H   H10       1.0  0.8346559497781088  0.7252979070002722  0.3783831061403069  1.0000
  H   H11       1.0  0.8355443241058534  0.906362457093844  0.7409003841550534  1.0000
  H   H12       1.0  0.8348262080210874  0.4689696001149228  0.6204068059995425  1.0000
  H   H13       1.0  0.8170424221811033  0.03429061822568458  0.1760569904262912  1.0000
  H   H14       1.0  0.7484348601723979  0.9434525702190606  0.0220566021158608  1.0000
  H   H15       1.0  0.7166176552417135  0.9321575407998304  0.7922760597307263  1.0000
  H   H16       1.0  0.7966929193017195  0.8311001488120381  0.6406368319324338  1.0000
  H   H17       1.0  0.9098655124506753  0.7411567418649051  0.720296499272933  1.0000
  H   H18       1.0  0.943769683818853  0.7527014551832003  0.9495172265663485  1.0000
  C   C27       1.0  0.8358141085234384  0.41928968502478736  0.18645823234031678  1.0000
  C   C28       1.0  0.7697279653824622  0.3607202196124284  0.1897387540503217  1.0000
  C   C29       1.0  0.7360961066096535  0.33250322330934634  0.07422231632127074  1.0000
  C   C30       1.0  0.76992401934114  0.360883447943267  0.9544844720149412  1.0000
  C   C31       1.0  0.8359228074312726  0.41953055303132514  0.9491920650510339  1.0000
  C   C32       1.0  0.868429908813858  0.4486509935181704  0.06571783093861217  1.0000
  C   C33       1.0  0.6666645700250875  0.26932237058082875  0.08001710927377625  1.0000
  O   O2        1.0  0.6524300581070261  0.1901413319354499  0.1758909989977131  1.0000
  C   C34       1.0  0.6133841248460355  0.29596141423856404  0.9771199993739637  1.0000
  C   C35       1.0  0.6080509593601916  0.4193398291031214  0.9093067019800141  1.0000
  C   C36       1.0  0.5571040101346204  0.44360344027510545  0.8136276557975002  1.0000
  C   C37       1.0  0.5102637581509284  0.3460192860111886  0.7845559850760684  1.0000
  C   C38       1.0  0.514864903900765  0.2228356363955004  0.8532876873063655  1.0000
  C   C39       1.0  0.565805594696571  0.19844483958651593  0.9490390991990436  1.0000
  O   O3        1.0  0.46015849942893977  0.3752613596116976  0.6875894120170085  1.0000
  C   C40       1.0  0.4093907214787815  0.28558658355968336  0.6481971250583389  1.0000
  H   H19       1.0  0.9606373658203446  0.5293186333358806  0.3875758285754618  1.0000
  H   H20       1.0  0.7439511005096234  0.3380226341051975  0.2822700986054498  1.0000
  H   H21       1.0  0.7450362079846239  0.3358453089307314  0.8654267656010348  1.0000
  H   H22       1.0  0.9193433416842899  0.4938887830391565  0.06236790651716828  1.0000
  H   H23       1.0  0.8613580394465723  0.4415458073678762  0.619725446735218  1.0000
  H   H24       1.0  0.6427596168572478  0.49753101900903474  0.9311497158210176  1.0000
  H   H25       1.0  0.5538027086395578  0.5390659883869795  0.7620949046957963  1.0000
  H   H26       1.0  0.47935676559964246  0.14533154571202256  0.8335418060424482  1.0000
  H   H27       1.0  0.568430556015393  0.10280155054853468  0.00045871806343522614  1.0000
  H   H28       1.0  0.3767020831142705  0.33433475051306605  0.5701348760045075  1.0000
  H   H29       1.0  0.3753946243643099  0.2534308049039944  0.7317424841637163  1.0000
  H   H30       1.0  0.4353256472422731  0.20022564196771508  0.6095096946420719  1.0000
  Zn  Zn1       1.0  0.7595942378792376  0.41953829382071706  0.5678402940028164  1.0000
  Zn  Zn2       1.0  0.9121360024685043  0.41928134408859674  0.567809391088155  1.0000
  C   C41       1.0  0.8358998677527835  0.41431147128992163  0.8050173828493505  1.0000
  C   C42       1.0  0.8358320386276016  0.424509802437703  0.33063242989018593  1.0000
  C   C43       1.0  0.835902224085626  0.6565954623349886  0.5627253026369334  1.0000
  C   C44       1.0  0.835829630002207  0.18222425123354302  0.5729245788560353  1.0000
  O   O4        1.0  0.8937268599080045  0.42615854482543347  0.37900687834160873  1.0000
  O   O5        1.0  0.893780716008853  0.4124667301816687  0.756619105645626  1.0000
  O   O6        1.0  0.8937818386010731  0.6081141187907912  0.5609665372042509  1.0000
  O   O7        1.0  0.8937256852512291  0.23051116556325812  0.5746593494223229  1.0000
  O   O8        1.0  0.7780045030414942  0.608308472435152  0.5609903356723636  1.0000
  O   O9        1.0  0.7780033806868076  0.4126626440742174  0.756642835364022  1.0000
  O   O10       1.0  0.7779495244024915  0.4263544129698149  0.37902904665315607  1.0000
  O   O11       1.0  0.777948349755253  0.23070702444978775  0.5746816150982466  1.0000
