data_image0
_chemical_formula_structural       NC10NC5H10C7OC6OCH12C7OC3OC4H12Zn2C4O8
_chemical_formula_sum              "N2 C47 H34 O12 Zn2"
_cell_length_a       19.4436361288709
_cell_length_b       10.299359160628079
_cell_length_c       10.299374482448636
_cell_angle_alpha    85.55316158380268
_cell_angle_beta     89.68637327173957
_cell_angle_gamma    89.44098980803524

_space_group_name_H-M_alt    "P 1"
_space_group_IT_number       1

loop_
  _space_group_symop_operation_xyz
  'x, y, z'

loop_
  _atom_site_type_symbol
  _atom_site_label
  _atom_site_symmetry_multiplicity
  _atom_site_fract_x
  _atom_site_fract_y
  _atom_site_fract_z
  _atom_site_occupancy
  N   N1        1.0  0.648182549956151  0.4096742076001887  0.5622123392269041  1.0000
  C   C1        1.0  0.5893471371915587  0.4195703180083765  0.5765981042901509  1.0000
  C   C2        1.0  0.5160184992629123  0.4319120721301173  0.5945926562296588  1.0000
  C   C3        1.0  0.4738382479911836  0.3999537992462445  0.49991124832121625  1.0000
  C   C4        1.0  0.3979351708079256  0.410390050548463  0.5052408301041824  1.0000
  C   C5        1.0  0.3581790086830763  0.38559747931811095  0.6123143782592431  1.0000
  C   C6        1.0  0.2820606977805123  0.38951951987502254  0.5993549784513608  1.0000
  C   C7        1.0  0.2414994663468565  0.44714297376316714  0.6931364854481199  1.0000
  C   C8        1.0  0.1698379824516464  0.4507851454352043  0.6825926238698017  1.0000
  C   C9        1.0  0.13774286051221013  0.39640772702240956  0.5785537439549571  1.0000
  C   C10       1.0  0.0639521617366546  0.40011120714921855  0.5678546019069506  1.0000
  N   N2        1.0  0.0046294448712468  0.40308861077495517  0.5592532010472455  1.0000
  C   C11       1.0  0.1775790118617987  0.3380770129259181  0.4851553990422708  1.0000
  C   C12       1.0  0.2492569412639885  0.33438072057146284  0.49544746660145433  1.0000
  C   C13       1.0  0.386288950260302  0.34508183771472134  0.7434091112796057  1.0000
  C   C14       1.0  0.4449562813391527  0.388184838485097  0.7906588175382672  1.0000
  C   C15       1.0  0.48919223189947547  0.48607532904361106  0.716300642493281  1.0000
  H   H1        1.0  0.49594119590031743  0.3708736201277263  0.40959727674594215  1.0000
  H   H2        1.0  0.3732517107823939  0.4329236141439641  0.4120816304601942  1.0000
  H   H3        1.0  0.2653699721765996  0.4904010751811807  0.773993357728411  1.0000
  H   H4        1.0  0.1394945183768723  0.4960702854091954  0.7555219720827391  1.0000
  H   H5        1.0  0.1532366271643914  0.2950144336026952  0.4046330471446056  1.0000
  H   H6        1.0  0.2789342460721357  0.2868518684214547  0.42321419967823326  1.0000
  H   H7        1.0  0.3553030396028145  0.28083718691299864  0.8076505489905461  1.0000
  H   H8        1.0  0.4600883106682159  0.3540765522849403  0.888592850842822  1.0000
  H   H9        1.0  0.45910486612592194  0.5768014427301167  0.6910590261100815  1.0000
  H   H10       1.0  0.5324756649279352  0.5116356063636183  0.7793912726713654  1.0000
  C   C16       1.0  0.8263283559192648  0.02500456373889204  0.5607019496081356  1.0000
  C   C17       1.0  0.7694542569791942  0.03135576201365109  0.47677460355418133  1.0000
  C   C18       1.0  0.741261749471115  0.9175656711609711  0.4333466815226623  1.0000
  C   C19       1.0  0.7696180445749061  0.796091163959546  0.4770283577874548  1.0000
  C   C20       1.0  0.8264902198654734  0.787748103349407  0.5607748545239748  1.0000
  C   C21       1.0  0.8546128712938384  0.9027955722991444  0.6019177638356852  1.0000
  C   C22       1.0  0.6807304232914579  0.9264169603124922  0.3459130545556466  1.0000
  O   O1        1.0  0.6370207480771971  0.01609453690750562  0.35784279518544126  1.0000
  C   C23       1.0  0.6697834637104809  0.8336046214348024  0.24495339818300343  1.0000
  C   C24       1.0  0.7257371245353695  0.7792367956558811  0.1804317977687726  1.0000
  C   C25       1.0  0.7146983589744951  0.6930762963978823  0.08443874443697097  1.0000
  C   C26       1.0  0.647887539061831  0.6604043736736143  0.0502296364485848  1.0000
  C   C27       1.0  0.591702591565575  0.7158115513772245  0.1134413585588061  1.0000
  C   C28       1.0  0.6026784568682017  0.80203209138902  0.20948135694923886  1.0000
  O   O2        1.0  0.6395734598926976  0.5733533326065723  0.9533974457806114  1.0000
  C   C29       1.0  0.5747656904048679  0.5317166182882019  0.9090660280474272  1.0000
  H   H11       1.0  0.9334698910508499  0.22026097554101098  0.7194925776992134  1.0000
  H   H12       1.0  0.7473401709070189  0.12510000531094234  0.4439724109373986  1.0000
  H   H13       1.0  0.7467905841870854  0.7078827834035913  0.44676548825407036  1.0000
  H   H14       1.0  0.8984836904992385  0.8970919061258533  0.6665242452928166  1.0000
  H   H15       1.0  0.848130832889184  0.4570453190862254  0.5933143041903266  1.0000
  H   H16       1.0  0.7780235027724316  0.8043534275335584  0.2031295507940234  1.0000
  H   H17       1.0  0.7583563149105162  0.6518331342661706  0.035893602893194654  1.0000
  H   H18       1.0  0.5393877461005544  0.6929728160705131  0.08909917682162272  1.0000
  H   H19       1.0  0.5586362819757358  0.8432368013798885  0.2569788953503338  1.0000
  H   H20       1.0  0.5833641282175439  0.4631800101183665  0.8325175340679896  1.0000
  H   H21       1.0  0.544550786360573  0.6166329339643025  0.8668055569267978  1.0000
  H   H22       1.0  0.5458802174071475  0.4806620697164727  0.9908439966301179  1.0000
  C   C30       1.0  0.8264730173935767  0.40646267031226846  0.17935532493584883  1.0000
  C   C31       1.0  0.8983177868333835  0.4197999578448568  0.17638894895487023  1.0000
  C   C32       1.0  0.9344677313175553  0.42799993789401714  0.05760586511039145  1.0000
  C   C33       1.0  0.8981533726936544  0.4197391232267633  0.9411514568968302  1.0000
  C   C34       1.0  0.8263455411866137  0.40629002835285544  0.9421213935824033  1.0000
  C   C35       1.0  0.7909014701331153  0.4000710175295481  0.061726286294536026  1.0000
  C   C36       1.0  0.010411277745645098  0.4407231586588045  0.054437771044649086  1.0000
  O   O3        1.0  0.044143373356453575  0.386556662440124  0.9683053991127588  1.0000
  C   C37       1.0  0.04808455437249304  0.5149102357236623  0.1489001295658401  1.0000
  C   C38       1.0  0.11517996597516733  0.47695191441169915  0.18650383775383927  1.0000
  C   C39       1.0  0.15193243980461535  0.5465385685121922  0.274408907007998  1.0000
  O   O4        1.0  0.21846814649280466  0.5034161124322742  0.30914571363281373  1.0000
  C   C40       1.0  0.26157418685829614  0.5644918207195551  0.3971862091005023  1.0000
  C   C41       1.0  0.12120957351324435  0.6564953263011704  0.32458925490433943  1.0000
  C   C42       1.0  0.05491747252799262  0.6957720495688355  0.2864684533649988  1.0000
  C   C43       1.0  0.0185619196529474  0.6259450475128838  0.198801098898594  1.0000
  H   H23       1.0  0.6910102502705401  0.37930382990905276  0.3924280016023938  1.0000
  H   H24       1.0  0.9263309024294065  0.42237445347829183  0.2667479754920328  1.0000
  H   H25       1.0  0.9260084146038057  0.42508019732545455  0.8495271719940947  1.0000
  H   H26       1.0  0.7355144017798192  0.3897880918357777  0.06320942992768797  1.0000
  H   H27       1.0  0.7988248047347161  0.4000387727060586  0.6151204235237349  1.0000
  H   H28       1.0  0.13901446306845133  0.39219753058528717  0.14841926017934193  1.0000
  H   H29       1.0  0.3110711912930215  0.5102189061209368  0.40672879785390426  1.0000
  H   H30       1.0  0.23673774815066229  0.5631497115570461  0.49462692178062473  1.0000
  H   H31       1.0  0.2721698951118281  0.666304140067244  0.359446631047575  1.0000
  H   H32       1.0  0.14817380841129224  0.7124361650423949  0.39256184971933816  1.0000
  H   H33       1.0  0.031729028091660005  0.7810035580817607  0.32457664624866434  1.0000
  H   H34       1.0  0.9677086870122334  0.6596121213774315  0.16900227830819814  1.0000
  Zn  Zn1       1.0  0.751045423426812  0.40777027347184736  0.561365907955341  1.0000
  Zn  Zn2       1.0  0.9017665588797118  0.40498193458389564  0.5601103128813549  1.0000
  C   C44       1.0  0.8263670111049263  0.40114891424478727  0.79794182837971  1.0000
  C   C45       1.0  0.8264466173981341  0.411604901986923  0.3235345063736441  1.0000
  C   C46       1.0  0.8264569422994451  0.643574610457786  0.5555857066322893  1.0000
  C   C47       1.0  0.8263566344303489  0.16917764637494725  0.5658906976416513  1.0000
  O   O5        1.0  0.8836356415307647  0.41226685597706414  0.37144586442901306  1.0000
  O   O6        1.0  0.883571841185939  0.3983696958983578  0.7490771287621862  1.0000
  O   O7        1.0  0.8836436904823214  0.5941315254406037  0.5533728522938051  1.0000
  O   O8        1.0  0.8835637408217132  0.216505036698742  0.5671500439484527  1.0000
  O   O9        1.0  0.7692481900510857  0.5962471723099394  0.5543261773098858  1.0000
  O   O10       1.0  0.7691763410942449  0.400486903119609  0.7500303846793217  1.0000
  O   O11       1.0  0.769240141736149  0.41438401829396043  0.37239755888285786  1.0000
  O   O12       1.0  0.7691682410060416  0.2186221897046534  0.5681018357728809  1.0000
