data_image0
_chemical_formula_structural       NC10NC5H10C7OC6OCH12C7OC6H10Zn2C4O8
_chemical_formula_sum              "N2 C46 H32 O11 Zn2"
_cell_length_a       19.4436361288709
_cell_length_b       10.299359160628079
_cell_length_c       10.299382801718286
_cell_angle_alpha    85.57723515363111
_cell_angle_beta     89.6852200800954
_cell_angle_gamma    89.44098980803524

_space_group_name_H-M_alt    "P 1"
_space_group_IT_number       1

loop_
  _space_group_symop_operation_xyz
  'x, y, z'

loop_
  _atom_site_type_symbol
  _atom_site_label
  _atom_site_symmetry_multiplicity
  _atom_site_fract_x
  _atom_site_fract_y
  _atom_site_fract_z
  _atom_site_occupancy
  N   N1        1.0  0.6482008756440161  0.4090679723353825  0.562260187681259  1.0000
  C   C1        1.0  0.589365279522001  0.41897014842234204  0.5766454739974407  1.0000
  C   C2        1.0  0.5160364122392216  0.4313194898480066  0.5946394270922646  1.0000
  C   C3        1.0  0.47385736775342885  0.3993212950688769  0.49996117010738894  1.0000
  C   C4        1.0  0.3979542226406324  0.4097597935599613  0.5052905745260212  1.0000
  C   C5        1.0  0.3581966957826757  0.3850123693026921  0.6123605593567323  1.0000
  C   C6        1.0  0.2820785500574339  0.3889289455999021  0.5994015908275894  1.0000
  C   C7        1.0  0.24151612330775774  0.4465919419450304  0.6931799768487841  1.0000
  C   C8        1.0  0.1698547738020138  0.45022966785578444  0.6826364661619726  1.0000
  C   C9        1.0  0.13776097791655  0.39580838202109137  0.5786010485800808  1.0000
  C   C10       1.0  0.0639704155096274  0.39950735091346035  0.5679022625911949  1.0000
  N   N2        1.0  0.0046478082755592  0.40248112780579937  0.5593011479794159  1.0000
  C   C11       1.0  0.1775983196984693  0.3374382870258028  0.4852058118916236  1.0000
  C   C12       1.0  0.2492761179204976  0.3337463342650664  0.4954975369388088  1.0000
  C   C13       1.0  0.3863049664586802  0.3445520030729585  0.7434509296464082  1.0000
  C   C14       1.0  0.4449716953043972  0.38767492642228496  0.7906990634716182  1.0000
  C   C15       1.0  0.4892085936157289  0.4855340642649779  0.7163433630088263  1.0000
  H   H1        1.0  0.49596146678222935  0.37020303556062695  0.40965020411079967  1.0000
  H   H2        1.0  0.3732719499993445  0.43225407709095376  0.4121344751476941  1.0000
  H   H3        1.0  0.2653855985556957  0.4898841362188362  0.7740341582752943  1.0000
  H   H4        1.0  0.1395103801877062  0.49554555808861567  0.7555633873429608  1.0000
  H   H5        1.0  0.1532569613191528  0.2943417558954686  0.4046861397151611  1.0000
  H   H6        1.0  0.2789543433960974  0.28618702535506846  0.4232666738824935  1.0000
  H   H7        1.0  0.3553182369956294  0.28033443932036306  0.807690229452299  1.0000
  H   H8        1.0  0.4601024763903612  0.35360793356900655  0.8886298376077646  1.0000
  H   H9        1.0  0.459121549565609  0.5762495349626686  0.6911025866469755  1.0000
  H   H10       1.0  0.5324912225065349  0.5111209434024413  0.7794318935798401  1.0000
  C   C16       1.0  0.8263467008581843  0.024397691626604656  0.5607498483270816  1.0000
  C   C17       1.0  0.7694736716354228  0.030713502397180514  0.47682529530988527  1.0000
  C   C18       1.0  0.7412817176489553  0.9169051003998641  0.43339881852581263  1.0000
  C   C19       1.0  0.7696374559968455  0.7954490113371534  0.47707904109841537  1.0000
  C   C20       1.0  0.826508563875165  0.7871412619770765  0.5608227508167019  1.0000
  C   C21       1.0  0.854630690906128  0.9022060786083956  0.6019642909244107  1.0000
  C   C22       1.0  0.6807515058768013  0.9257195236431268  0.34596810128185473  1.0000
  O   O1        1.0  0.6370416786090007  0.015402130347708543  0.3578974448991661  1.0000
  C   C23       1.0  0.6698058331027709  0.8328646156812212  0.24501180476800144  1.0000
  C   C24       1.0  0.7257603163041076  0.7784695847241085  0.1804923515824166  1.0000
  C   C25       1.0  0.7147227742470792  0.6922686105227687  0.08450249282472067  1.0000
  C   C26       1.0  0.6479123903552908  0.6595822637161373  0.05029452328882478  1.0000
  C   C27       1.0  0.5917266371779735  0.7150160942949514  0.11350414176212986  1.0000
  C   C28       1.0  0.6027012783784039  0.8012771290442137  0.20954094401616197  1.0000
  O   O2        1.0  0.6395995453854415  0.5724903938881083  0.9534655551207947  1.0000
  C   C29       1.0  0.5747923409349578  0.5308349874711049  0.9091356127026904  1.0000
  H   H11       1.0  0.9334862120834821  0.21972105662431396  0.7195351919896393  1.0000
  H   H12       1.0  0.7473600036519259  0.12444391483024186  0.444024194324544  1.0000
  H   H13       1.0  0.746810381332116  0.7072278706085904  0.44681717868977566  1.0000
  H   H14       1.0  0.8985006866532069  0.8965296534029212  0.6665686223281211  1.0000
  H   H15       1.0  0.8481487621590538  0.45645219779400337  0.5933611175954934  1.0000
  H   H16       1.0  0.7780464052411927  0.8035957869845975  0.20318934924411192  1.0000
  H   H17       1.0  0.7583813489275335  0.6510049795989388  0.03595896682547339  1.0000
  H   H18       1.0  0.5394121019724136  0.6921670952410999  0.08916277011381024  1.0000
  H   H19       1.0  0.5586584980939969  0.8425018661110936  0.25703690173614513  1.0000
  H   H20       1.0  0.5833917544159092  0.4622661030495083  0.8325896661975563  1.0000
  H   H21       1.0  0.5445779755322327  0.6157334842518293  0.866876547977649  1.0000
  H   H22       1.0  0.5459058256153653  0.47981492013036114  0.9909108597782321  1.0000
  C   C30       1.0  0.8264962228827728  0.40569500549164217  0.17941591457367068  1.0000
  C   C31       1.0  0.8987533029341914  0.40522324142243304  0.17751251381437205  1.0000
  C   C32       1.0  0.9351974092863838  0.4034971904654532  0.05949423474327453  1.0000
  C   C33       1.0  0.8985857065483731  0.405254375861382  0.9422683391274784  1.0000
  C   C34       1.0  0.8263590069908515  0.4058440001076826  0.9421566020546859  1.0000
  C   C35       1.0  0.7907331577816185  0.40571616622505013  0.0612927031601187  1.0000
  C   C36       1.0  0.011491787209136461  0.40438304888310306  0.0572326216208765  1.0000
  O   O3        1.0  0.04180908528606597  0.4645331146075651  0.9624600002842105  1.0000
  C   C37       1.0  0.053392875476998336  0.33702399000620664  0.16238447191059113  1.0000
  C   C38       1.0  0.11805045149509219  0.38629015163433245  0.19295405620234551  1.0000
  C   C39       1.0  0.15827486715847372  0.32261147732591544  0.29086842542077984  1.0000
  C   C40       1.0  0.13468380284660575  0.20874115541707106  0.3584170783492624  1.0000
  C   C41       1.0  0.07093795231079159  0.1580111488849536  0.3278167657808553  1.0000
  C   C42       1.0  0.030517525108147536  0.22131472405055752  0.23000604757463883  1.0000
  H   H23       1.0  0.6901367232910623  0.4085970285466167  0.3901726524338225  1.0000
  H   H24       1.0  0.9267737136512431  0.4076559917707192  0.2678790387373853  1.0000
  H   H25       1.0  0.9266125880519986  0.4049078166262903  0.8510842129247234  1.0000
  H   H26       1.0  0.7350283934530822  0.40608065950141636  0.06195584651009223  1.0000
  H   H27       1.0  0.798612929136135  0.407175507159516  0.6145719724310301  1.0000
  H   H28       1.0  0.13716431802045248  0.47461207381776216  0.14186853675886169  1.0000
  H   H29       1.0  0.20779212351308285  0.36158112512867735  0.31433393974692114  1.0000
  H   H30       1.0  0.16591779821790764  0.15953556932223267  0.4340964572491832  1.0000
  H   H31       1.0  0.052943519983360554  0.06921262107668635  0.3795217100629851  1.0000
  H   H32       1.0  0.9818254420555635  0.17904758154453004  0.20634714261809406  1.0000
  Zn  Zn1       1.0  0.7510637599030817  0.407163681313947  0.5614137845782701  1.0000
  Zn  Zn2       1.0  0.9017849113594876  0.4043748130112339  0.5601582312895108  1.0000
  C   C43       1.0  0.826382332242706  0.40064207302346744  0.7979818319401282  1.0000
  C   C44       1.0  0.8264679852149481  0.41089802952571364  0.3235902978405192  1.0000
  C   C45       1.0  0.8264753524487392  0.642965581109767  0.5556337756158196  1.0000
  C   C46       1.0  0.8263749132347623  0.1685729620697496  0.5659384236831013  1.0000
  O   O4        1.0  0.8836563986811938  0.4115801850766485  0.37150006144318026  1.0000
  O   O5        1.0  0.8835877851411608  0.39784225114501415  0.7491187585017778  1.0000
  O   O6        1.0  0.8836621288361127  0.5935215630547155  0.5534209949194053  1.0000
  O   O7        1.0  0.8835820035748084  0.2159008833899927  0.5671977280798373  1.0000
  O   O8        1.0  0.7692666162540307  0.5956376118883047  0.5543742882095717  1.0000
  O   O9        1.0  0.7691922728995011  0.39995986030138364  0.7500719826952982  1.0000
  O   O10       1.0  0.7692608867565147  0.41369774867028086  0.3724517242253744  1.0000
  O   O11       1.0  0.7691864916278324  0.21801843771369578  0.5681494882293745  1.0000
