data_image0
_chemical_formula_structural       NC9NC5H8C7OC3FC3H9C7OC6H10Zn2C4O8
_chemical_formula_sum              "N2 C44 H27 O10 F1 Zn2"
_cell_length_a       17.807436237873137
_cell_length_b       10.29937835083307
_cell_length_c       10.299382801718286
_cell_angle_alpha    85.56292937340861
_cell_angle_beta     89.37299496534968
_cell_angle_gamma    88.41049276798935

_space_group_name_H-M_alt    "P 1"
_space_group_IT_number       1

loop_
  _space_group_symop_operation_xyz
  'x, y, z'

loop_
  _atom_site_type_symbol
  _atom_site_label
  _atom_site_symmetry_multiplicity
  _atom_site_fract_x
  _atom_site_fract_y
  _atom_site_fract_z
  _atom_site_occupancy
  N   N1        1.0  0.7079835299677878  0.38751657464451306  0.55690412296649  1.0000
  C   C1        1.0  0.6473908721918811  0.35232362304664777  0.5458856128776397  1.0000
  C   C2        1.0  0.5720202656193538  0.30854746690614787  0.532179782695732  1.0000
  C   C3        1.0  0.5539347301894822  0.23710975393172906  0.4271873750850008  1.0000
  C   C4        1.0  0.4807537536475585  0.19449496389421217  0.4137972856620922  1.0000
  C   C5        1.0  0.4246095221050381  0.22294033930401946  0.5053672107732441  1.0000
  C   C6        1.0  0.3468370164373631  0.1777667289049607  0.4912190703817063  1.0000
  C   C7        1.0  0.2846725131489519  0.25953045290889354  0.5171454216160363  1.0000
  C   C8        1.0  0.2113491869267166  0.21671262123797108  0.5037690450163341  1.0000
  C   C9        1.0  0.1481350805542029  0.30116785051943884  0.5300588824625723  1.0000
  N   N2        1.0  0.0973239262546723  0.36906401212492335  0.5511951861868374  1.0000
  C   C10       1.0  0.1996067706145044  0.09187307277797507  0.4644410074340133  1.0000
  C   C11       1.0  0.2609139028603983  0.010095494418059126  0.4385062686039196  1.0000
  C   C12       1.0  0.33411775515459907  0.05251873350303127  0.4516801669266184  1.0000
  C   C13       1.0  0.4433865213713816  0.29487247651310855  0.6105787724787219  1.0000
  C   C14       1.0  0.5166203604302948  0.3372968359937065  0.6238132397647549  1.0000
  H   H1        1.0  0.5963391206645455  0.21460986138421334  0.35547765041608725  1.0000
  H   H2        1.0  0.46784640816822515  0.1407948854569292  0.33088464554183794  1.0000
  H   H3        1.0  0.2931845063082447  0.35700393131831376  0.546007459048359  1.0000
  H   H4        1.0  0.1431367730539177  0.057833923836633216  0.4538513599100913  1.0000
  H   H5        1.0  0.2517039717639126  0.9134419063289299  0.4084436842108188  1.0000
  H   H6        1.0  0.3807487039825674  0.9867679889197739  0.4326418887363257  1.0000
  H   H7        1.0  0.4016986442489897  0.31683355580024886  0.6835830880263136  1.0000
  H   H8        1.0  0.5300565139618103  0.3922173340552093  0.7056840560635809  1.0000
  C   C15       1.0  0.9025781202875637  0.9969089334721154  0.5541148005928749  1.0000
  C   C16       1.0  0.8241984441450014  0.0006284826712854574  0.5392392613706658  1.0000
  C   C17       1.0  0.784570226027404  0.8852215065222175  0.5332152075400107  1.0000
  C   C18       1.0  0.824382139071122  0.765375774880639  0.5392434431173656  1.0000
  C   C19       1.0  0.9027364922916632  0.759661379832469  0.5539956844503586  1.0000
  C   C20       1.0  0.9413578717402706  0.8759706285885593  0.5616882775061078  1.0000
  C   C21       1.0  0.7018997987694066  0.8891068120637089  0.5161330977999898  1.0000
  O   O1        1.0  0.6728952667677814  0.8057791749826434  0.449897246852371  1.0000
  C   C22       1.0  0.6521332816929778  0.9874232354886824  0.574201863108514  1.0000
  C   C23       1.0  0.5852247609632093  0.03058110188584906  0.5114019570455905  1.0000
  C   C24       1.0  0.5374917971111892  0.1221098755408574  0.5661628783695534  1.0000
  F   F1        1.0  0.47340373922845025  0.16382633105974787  0.5043829783707912  1.0000
  C   C25       1.0  0.5557535302403626  0.17056225268809366  0.6845004361337721  1.0000
  C   C26       1.0  0.6215832886657392  0.12720338172250467  0.7485307256290819  1.0000
  C   C27       1.0  0.6694715127178507  0.0357389295924293  0.6941722407519448  1.0000
  H   H9        1.0  0.05062134455897893  0.1973578188519416  0.5801886787224215  1.0000
  H   H10       1.0  0.7939725386473775  0.09357088528784763  0.5308693099065762  1.0000
  H   H11       1.0  0.7939701070933509  0.6763474683111372  0.5336370519425744  1.0000
  H   H12       1.0  0.0017827774801335572  0.8722991291014045  0.5731554706874036  1.0000
  H   H13       1.0  0.9329075769042381  0.43009078497851244  0.5585657141873055  1.0000
  H   H14       1.0  0.570274853558977  0.9942713859151906  0.4194625974812345  1.0000
  H   H15       1.0  0.5187823681290237  0.24130994753594348  0.7269216120411894  1.0000
  H   H16       1.0  0.635371722831438  0.16405534613135364  0.8407006865993558  1.0000
  H   H17       1.0  0.719527844211875  0.0018140967951449927  0.746590543756577  1.0000
  C   C28       1.0  0.9027322397383742  0.3782083651326098  0.17268436401676457  1.0000
  C   C29       1.0  0.981657290102518  0.37533126440556996  0.17022330146675624  1.0000
  C   C30       1.0  0.02146453835922557  0.3723920126694784  0.05192412816144687  1.0000
  C   C31       1.0  0.9814742269956409  0.3753679784516788  0.9349804127342352  1.0000
  C   C32       1.0  0.902582357825208  0.37836193022868536  0.9354260734610671  1.0000
  C   C33       1.0  0.8636689210703664  0.3794200240971497  0.05483721595322999  1.0000
  C   C34       1.0  0.10479941990620545  0.3707381642094958  0.0490733483252479  1.0000
  O   O2        1.0  0.1379129785538158  0.4298801326351842  0.9540516549386147  1.0000
  C   C35       1.0  0.15056880978828668  0.30198302866204463  0.15391859230182225  1.0000
  C   C36       1.0  0.22119186577220717  0.3490977550394223  0.18397674060390057  1.0000
  C   C37       1.0  0.26512976914114916  0.28407888641601486  0.2815965260494464  1.0000
  C   C38       1.0  0.2393644444044729  0.17099175612991635  0.349355762166911  1.0000
  C   C39       1.0  0.16973728420628098  0.1223828076600535  0.3192602136883764  1.0000
  C   C40       1.0  0.12558529019926423  0.1870330950857162  0.22174568614101076  1.0000
  H   H18       1.0  0.7537892728650163  0.38564964174818095  0.3844929867975808  1.0000
  H   H19       1.0  0.012263394928573312  0.37683130332859616  0.2603729178867642  1.0000
  H   H20       1.0  0.012087466803369029  0.37408844067151126  0.8435800230823762  1.0000
  H   H21       1.0  0.80282365402641  0.38163885071543646  0.05593027432568043  1.0000
  H   H22       1.0  0.872275810754255  0.38061708662867266  0.6080552933571544  1.0000
  H   H23       1.0  0.2420674487048382  0.43678504927608985  0.1327215878830743  1.0000
  H   H24       1.0  0.319215589378707  0.32140090549788947  0.30467005303045624  1.0000
  H   H25       1.0  0.27348193286014255  0.12074552240011793  0.424806338558936  1.0000
  H   H26       1.0  0.1500844495307012  0.0341816346745043  0.3711262690931423  1.0000
  H   H27       1.0  0.07240087068702783  0.14638605118158776  0.19847322328804573  1.0000
  Zn  Zn1       1.0  0.8203387547325702  0.3821880998130065  0.555264158503874  1.0000
  Zn  Zn2       1.0  0.9849686789968057  0.37438190259078064  0.5528458289696341  1.0000
  C   C41       1.0  0.9026079610770902  0.3731591298853294  0.7912524241030341  1.0000
  C   C42       1.0  0.9027012707211687  0.38341242597306224  0.31685766417357897  1.0000
  C   C43       1.0  0.9027037180706287  0.6154840506109116  0.548843053414831  1.0000
  C   C44       1.0  0.9026054572133317  0.1410859475722812  0.5592671051696618  1.0000
  O   O3        1.0  0.96516707434177  0.3821908792433568  0.3643257981754242  1.0000
  O   O4        1.0  0.9650924605658985  0.36845497371714475  0.7419484602460924  1.0000
  O   O5        1.0  0.9651689430748519  0.5641354520265291  0.5462011904897557  1.0000
  O   O6        1.0  0.9650905356768353  0.18651041286861658  0.5600729713803538  1.0000
  O   O7        1.0  0.8402168418724287  0.5700595922004545  0.5480370169115802  1.0000
  O   O8        1.0  0.8401403596976618  0.3743806742315532  0.7437842171784634  1.0000
  O   O9        1.0  0.8402149738208643  0.38811653418362835  0.36615999370541585  1.0000
  O   O10       1.0  0.840138435131799  0.19243605853952794  0.561907264280179  1.0000
