data_image0
_chemical_formula_structural       NC9NC5H8C7OC6H10C7OC3NC3H11Zn2C4O8
_chemical_formula_sum              "N3 C44 H29 O10 Zn2"
_cell_length_a       17.807436237873137
_cell_length_b       10.299379429549807
_cell_length_c       10.298749378158432
_cell_angle_alpha    85.5342726072926
_cell_angle_beta     89.40102399035862
_cell_angle_gamma    88.38769231292811

_space_group_name_H-M_alt    "P 1"
_space_group_IT_number       1

loop_
  _space_group_symop_operation_xyz
  'x, y, z'

loop_
  _atom_site_type_symbol
  _atom_site_label
  _atom_site_symmetry_multiplicity
  _atom_site_fract_x
  _atom_site_fract_y
  _atom_site_fract_z
  _atom_site_occupancy
  N   N1        1.0  0.7072508998378357  0.38795961659931355  0.5564687513978845  1.0000
  C   C1        1.0  0.6466631397434449  0.35276871722164427  0.5454575752112785  1.0000
  C   C2        1.0  0.571298625342463  0.3089951138218252  0.5317608675947838  1.0000
  C   C3        1.0  0.5531992876699953  0.23758462488969534  0.42677691185059463  1.0000
  C   C4        1.0  0.4800242279201599  0.19497233322854535  0.41339569924638564  1.0000
  C   C5        1.0  0.4238997926140295  0.2233929810409463  0.5049661346705971  1.0000
  C   C6        1.0  0.3461335722222253  0.1782220062077191  0.49082740768914035  1.0000
  C   C7        1.0  0.2839577841465376  0.2599808710185392  0.516736745553676  1.0000
  C   C8        1.0  0.2106404251815055  0.21716552799688804  0.5033692941037493  1.0000
  C   C9        1.0  0.1474145217500409  0.30161587486180497  0.5296415199733433  1.0000
  N   N2        1.0  0.0965938837453971  0.36950811103708237  0.5507636652935215  1.0000
  C   C10       1.0  0.1989153127564845  0.09233332694526597  0.46406725312416985  1.0000
  C   C11       1.0  0.2602337305538952  0.010560609716568248  0.438149530235576  1.0000
  C   C12       1.0  0.3334316478214441  0.05298140519074512  0.45131457949040943  1.0000
  C   C13       1.0  0.4426905438092918  0.29529784741664633  0.6101691464880312  1.0000
  C   C14       1.0  0.5159184649903306  0.33771974641616764  0.6233947691626609  1.0000
  H   H1        1.0  0.5955882267340453  0.21510409037244904  0.355066839668954  1.0000
  H   H2        1.0  0.4671053608259608  0.14129383253110106  0.330489101736287  1.0000
  H   H3        1.0  0.2924557364389626  0.3574491274974281  0.545578341411316  1.0000
  H   H4        1.0  0.142450071738467  0.05829614407137673  0.4534847043265724  1.0000
  H   H5        1.0  0.2510373074592376  0.9139126024174253  0.4081071030653025  1.0000
  H   H6        1.0  0.380072191661114  0.9872340628913491  0.4322901237035017  1.0000
  H   H7        1.0  0.4010186135826728  0.3172391917374058  0.6831740357967715  1.0000
  H   H8        1.0  0.5293655611070254  0.39261899294197256  0.7052591776278856  1.0000
  C   C15       1.0  0.9019341915611497  0.9973414029716308  0.553770135612792  1.0000
  C   C16       1.0  0.9474847513937867  0.9852861781127091  0.6648570709586925  1.0000
  C   C17       1.0  0.9697550162659658  0.8619999209853331  0.7217476645477416  1.0000
  C   C18       1.0  0.9473932830610885  0.750068460005079  0.6645821071757696  1.0000
  C   C19       1.0  0.9019177733052162  0.7601160296463852  0.5534734453527637  1.0000
  C   C20       1.0  0.8792888566556138  0.8842216944086275  0.4989114831687249  1.0000
  C   C21       1.0  0.01850539225000336  0.8491564700343139  0.8382400036426274  1.0000
  O   O1        1.0  0.06616731966233136  0.7561104001587531  0.849898779767474  1.0000
  C   C22       1.0  0.013182178107106202  0.9417671348077201  0.9415108555166074  1.0000
  C   C23       1.0  0.07744911177239544  0.9681811315829368  0.012137412313555362  1.0000
  C   C24       1.0  0.07280489663616696  0.054153845573353454  0.11070545516248065  1.0000
  C   C25       1.0  0.00398947486690826  0.11370667888105745  0.14047429010747248  1.0000
  C   C26       1.0  0.9396075674521887  0.08698910391634285  0.07209369281540112  1.0000
  C   C27       1.0  0.9439500862036584  0.0011103467716773174  0.9734423969221608  1.0000
  H   H9        1.0  0.8169254404862847  0.22745584368222493  0.34296774537937735  1.0000
  H   H10       1.0  0.9663861561844374  0.07197542689654801  0.7064203842992118  1.0000
  H   H11       1.0  0.9649839974878842  0.6549303288205439  0.7077649512739703  1.0000
  H   H12       1.0  0.844173161368585  0.8927112547234977  0.4132712175981985  1.0000
  H   H13       1.0  0.884970947176715  0.4365436055930914  0.5101507694271747  1.0000
  H   H14       1.0  0.131341642259319  0.9231834357578249  0.9902987461347272  1.0000
  H   H15       1.0  0.1226094933193973  0.07455987985848811  0.1640759614520163  1.0000
  H   H16       1.0  0.0004970421504832956  0.18013720306681869  0.2168724368829691  1.0000
  H   H17       1.0  0.886198633122691  0.13240248476194516  0.0959252548249353  1.0000
  H   H18       1.0  0.893108264147249  0.9800683526082601  0.9232470818937595  1.0000
  C   C28       1.0  0.9018913305110041  0.37875835990965756  0.172221235172753  1.0000
  C   C29       1.0  0.9429250066102091  0.49368537683576164  0.16155479211543633  1.0000
  C   C30       1.0  0.9629203078254219  0.5526371068599352  0.03893315759090288  1.0000
  C   C31       1.0  0.9429279912938664  0.4937340996986159  0.926310699939179  1.0000
  C   C32       1.0  0.901960607982697  0.3786990411115032  0.9350223516119232  1.0000
  C   C33       1.0  0.8815296680235837  0.32212992524697315  0.05839816598338898  1.0000
  C   C34       1.0  0.006860799676570162  0.6733299138332005  0.0275613716718075  1.0000
  O   O2        1.0  0.05380257054493831  0.6894491640873994  0.9355194798257611  1.0000
  C   C35       1.0  0.9975499987865639  0.7757279977732618  0.12054780163536316  1.0000
  C   C36       1.0  0.9272664341949581  0.8016341702223693  0.17827314673573147  1.0000
  C   C37       1.0  0.9188608411936577  0.8995403076731976  0.2650586324532762  1.0000
  N   N3        1.0  0.8473346394527489  0.9247829511822141  0.32377035261329934  1.0000
  C   C38       1.0  0.9808507681337036  0.9728581345197964  0.2935182854169269  1.0000
  C   C39       1.0  0.05054228280726547  0.9489307864680554  0.23534152214481674  1.0000
  C   C40       1.0  0.05890457502995927  0.851338390012758  0.14893335422038811  1.0000
  H   H19       1.0  0.82535355334488  0.16054194793566823  0.3998017833675782  1.0000
  H   H20       1.0  0.9600810240664684  0.5367207268749561  0.24883248723826124  1.0000
  H   H21       1.0  0.9587708639945232  0.5385079347196824  0.8316545207216102  1.0000
  H   H22       1.0  0.8499036850054064  0.2335393710831728  0.06586822718219931  1.0000
  H   H23       1.0  0.824824827664986  0.16108999202573804  0.744194822976223  1.0000
  H   H24       1.0  0.8787943754721208  0.7469207354971594  0.15496260240384419  1.0000
  H   H25       1.0  0.8007508420022467  0.8707152493727415  0.3032468467530278  1.0000
  H   H26       1.0  0.8404497327483762  0.9976318991331183  0.3883307301437744  1.0000
  H   H27       1.0  0.9750764356386848  0.04875059232049672  0.3603065265270273  1.0000
  H   H28       1.0  0.0982117146783974  0.0061422200018173  0.25725622579970353  1.0000
  H   H29       1.0  0.1134823131903051  0.8341063199933005  0.10513886525782068  1.0000
  Zn  Zn1       1.0  0.8196068742862749  0.38263144458602905  0.5548298995482901  1.0000
  Zn  Zn2       1.0  0.9842378922977448  0.3748256953971667  0.5524131987587311  1.0000
  C   C41       1.0  0.9019459646751665  0.3735363555847113  0.7908386462261672  1.0000
  C   C42       1.0  0.9019005996507485  0.38392233787010044  0.3164045525302033  1.0000
  C   C43       1.0  0.9019165354998897  0.615935966771813  0.5483539888223656  1.0000
  C   C44       1.0  0.9019299726888531  0.14152116894291433  0.5588892806099486  1.0000
  O   O3        1.0  0.9643803239343092  0.3826875088211332  0.36387666781516503  1.0000
  O   O4        1.0  0.9644173737469875  0.36884582185855797  0.7415319374646112  1.0000
  O   O5        1.0  0.9643927672238264  0.5645866132810755  0.5457238728300744  1.0000
  O   O6        1.0  0.9644048742710086  0.18694672936055112  0.5596846358879968  1.0000
  O   O7        1.0  0.8394398361325236  0.5705104132877781  0.5475584632368933  1.0000
  O   O8        1.0  0.8394644426123694  0.374771182270478  0.7433664580133559  1.0000
  O   O9        1.0  0.8394273927087699  0.3886128240933293  0.365709626850532  1.0000
  O   O10       1.0  0.8394519430514437  0.1928720353359452  0.5615176923029386  1.0000
