data_image0
_chemical_formula_structural       NC10NC3NH7C7OC6OCH12C6NCOC6H11Zn2C4O8
_chemical_formula_sum              "N4 C44 H30 O11 Zn2"
_cell_length_a       19.210446455230148
_cell_length_b       10.299359160628079
_cell_length_c       10.299662537453274
_cell_angle_alpha    85.5452158657264
_cell_angle_beta     89.97714991374127
_cell_angle_gamma    89.96984927250973

_space_group_name_H-M_alt    "P 1"
_space_group_IT_number       1

loop_
  _space_group_symop_operation_xyz
  'x, y, z'

loop_
  _atom_site_type_symbol
  _atom_site_label
  _atom_site_symmetry_multiplicity
  _atom_site_fract_x
  _atom_site_fract_y
  _atom_site_fract_z
  _atom_site_occupancy
  N   N1        1.0  0.6559500387380974  0.4207598941922257  0.5675040644590439  1.0000
  C   C1        1.0  0.5957217552500695  0.4229673364226003  0.5677355353645932  1.0000
  C   C2        1.0  0.5209176453170562  0.42570416064821504  0.5680222992349238  1.0000
  C   C3        1.0  0.4853203825443007  0.541929653013616  0.5831511143375814  1.0000
  C   C4        1.0  0.4126549281813132  0.5420812120942695  0.5830985381712448  1.0000
  C   C5        1.0  0.3757509742131261  0.4264130991406485  0.5681088861913992  1.0000
  C   C6        1.0  0.2984286853246352  0.4250566717229738  0.5679580958009218  1.0000
  C   C7        1.0  0.260694546551078  0.5286530011223729  0.504610440223759  1.0000
  C   C8        1.0  0.1879160212640262  0.5272508018562465  0.5045011615278361  1.0000
  C   C9        1.0  0.151870262386233  0.42250980509845815  0.5676885781662686  1.0000
  C   C10       1.0  0.0769405883428363  0.4212077667355749  0.5675515591244489  1.0000
  N   N2        1.0  0.0167026122086001  0.42016088366896653  0.5674414306847955  1.0000
  C   C11       1.0  0.1888807625477174  0.31903917906570434  0.6310112431297867  1.0000
  C   C12       1.0  0.2616610960287353  0.3201670883315859  0.6311707286711232  1.0000
  C   C13       1.0  0.4139583040961816  0.312007763761607  0.5532685029959499  1.0000
  N   N3        1.0  0.4847285496710023  0.3144526927831306  0.553434421804633  1.0000
  H   H1        1.0  0.5134316247983048  0.6313592193190003  0.5952126445009802  1.0000
  H   H2        1.0  0.3853962834642905  0.6320920971929653  0.5965548946497032  1.0000
  H   H3        1.0  0.2874374091608878  0.6099271439050322  0.4536308826502875  1.0000
  H   H4        1.0  0.1597849495153286  0.6076967074342849  0.45485189550723293  1.0000
  H   H5        1.0  0.1614983889874398  0.23762990828837505  0.6805608837756667  1.0000
  H   H6        1.0  0.2891471640248409  0.23983980142651373  0.6822577575034778  1.0000
  H   H7        1.0  0.3876826488348312  0.2211339692792278  0.5397657740229378  1.0000
  C   C14       1.0  0.8362477410781631  0.03908225650001085  0.5674412740097314  1.0000
  C   C15       1.0  0.7786829723882547  0.04448998386267555  0.48305322570545517  1.0000
  C   C16       1.0  0.750148020456331  0.9302324681475458  0.4393969648356828  1.0000
  C   C17       1.0  0.7788487495171493  0.8092281011643379  0.48330830647428624  1.0000
  C   C18       1.0  0.8364115634697858  0.8018285043236335  0.5675154929416077  1.0000
  C   C19       1.0  0.8648757162856273  0.9173425429022392  0.6088862127717065  1.0000
  C   C20       1.0  0.6888816938259857  0.9380793544596461  0.3514729781313115  1.0000
  O   O1        1.0  0.644644533260353  0.027021207105422107  0.3630473384068451  1.0000
  C   C21       1.0  0.6777981148250337  0.8450972188718024  0.2504261062758215  1.0000
  C   C22       1.0  0.734424882673971  0.7916780611944538  0.1863602829950297  1.0000
  C   C23       1.0  0.7232486042930124  0.7053455323782916  0.09027918273185476  1.0000
  C   C24       1.0  0.6556292394630755  0.6715563428248973  0.05552777347554394  1.0000
  C   C25       1.0  0.5987683341902728  0.7260111504344104  0.11828186160558318  1.0000
  C   C26       1.0  0.6098809545296169  0.8124026571201021  0.21440939500616696  1.0000
  O   O2        1.0  0.647210524656738  0.5843791475748293  0.9586296905094707  1.0000
  C   C27       1.0  0.581617967257347  0.5416602142414771  0.9137724220112116  1.0000
  H   H8        1.0  0.944690415221424  0.23611591843187885  0.7270997782829054  1.0000
  H   H9        1.0  0.7563003291324994  0.13786740537255482  0.45007190332814706  1.0000
  H   H10       1.0  0.7557442247715278  0.7206405650312034  0.45286046676874414  1.0000
  H   H11       1.0  0.9092792897955916  0.9123666577355208  0.6738480671489859  1.0000
  H   H12       1.0  0.8583150028219144  0.47148462685860676  0.6002302295524993  1.0000
  H   H13       1.0  0.7873438540870448  0.817669636860072  0.20948251296697928  1.0000
  H   H14       1.0  0.7674318313809327  0.6648423202649724  0.0420896312742296  1.0000
  H   H15       1.0  0.5458204802882322  0.7022972220636043  0.09351499989678214  1.0000
  H   H16       1.0  0.5653088217297009  0.8528611102492575  0.2615482392680364  1.0000
  H   H17       1.0  0.590316949395252  0.47327865989334417  0.8372951140897835  1.0000
  H   H18       1.0  0.5510362393642817  0.6260749783149588  0.8712671584213187  1.0000
  H   H19       1.0  0.5523871140423989  0.4901091820049476  0.99531426662536  1.0000
  C   C28       1.0  0.8363775961128663  0.4205958528946978  0.18610238613537766  1.0000
  C   C29       1.0  0.9074427326862256  0.4528531604824082  0.18227921253188795  1.0000
  C   C30       1.0  0.9434464389171723  0.4672187838442583  0.06366970029915109  1.0000
  C   C31       1.0  0.9073208617686347  0.4525432825516158  0.9471359069533238  1.0000
  C   C32       1.0  0.8362817211046355  0.42031493675451004  0.948854331762186  1.0000
  C   C33       1.0  0.8012705014423399  0.40407853264004845  0.06890585324260368  1.0000
  N   N4        1.0  0.01594022965902475  0.5021847897670217  0.06317695131110579  1.0000
  C   C34       1.0  0.06519739461139129  0.46225206645089556  0.9689515190581277  1.0000
  O   O3        1.0  0.05248015673026507  0.3637127428781024  0.9073926211020349  1.0000
  C   C35       1.0  0.13204526386507287  0.5324713743752183  0.946596319073945  1.0000
  C   C36       1.0  0.14047061728865806  0.6605305331113267  0.9829611290142073  1.0000
  C   C37       1.0  0.20363414372496758  0.7259826801330467  0.9607659486389473  1.0000
  C   C38       1.0  0.2588787248907498  0.6648625564441741  0.9017755858727221  1.0000
  C   C39       1.0  0.2510185262118292  0.5382488753128538  0.8644048506103554  1.0000
  C   C40       1.0  0.18797358760106397  0.47233948891289157  0.8862708864630591  1.0000
  H   H20       1.0  0.7021648113858991  0.36095421743161094  0.40048472705927063  1.0000
  H   H21       1.0  0.9353349602257979  0.46602632041893344  0.2716960315398578  1.0000
  H   H22       1.0  0.9342855407043524  0.4684627954210223  0.8550195778083243  1.0000
  H   H23       1.0  0.7464894877559086  0.37919482837331997  0.07098897497457601  1.0000
  H   H24       1.0  0.8088067261204704  0.4096332737876818  0.621934484659493  1.0000
  H   H25       1.0  0.034947828374432444  0.5493581244949106  0.14210083481960512  1.0000
  H   H26       1.0  0.09818568975710362  0.7111371130163298  0.02674723937950607  1.0000
  H   H27       1.0  0.20964343515774453  0.8244544872607078  0.9888903411565044  1.0000
  H   H28       1.0  0.3076985263626981  0.715760789594601  0.8846545541651634  1.0000
  H   H29       1.0  0.2938187166735291  0.4910588280215564  0.8184220025549176  1.0000
  H   H30       1.0  0.18315713706034886  0.37408832737687225  0.856771271116942  1.0000
  Zn  Zn1       1.0  0.7600554362307932  0.420583565795547  0.5674934885739493  1.0000
  Zn  Zn2       1.0  0.9125971951658624  0.4203266253452591  0.5674626415148749  1.0000
  C   C41       1.0  0.8362971615823181  0.4151942467554175  0.8046773850218907  1.0000
  C   C42       1.0  0.8363571359015094  0.42571758019187245  0.3302788723582579  1.0000
  C   C43       1.0  0.8363776586618182  0.6576551745809456  0.5623261639264117  1.0000
  C   C44       1.0  0.8362765864263508  0.1832550920882099  0.5726301625524299  1.0000
  O   O4        1.0  0.8942390705886167  0.4273333052201047  0.3786541113539508  1.0000
  O   O5        1.0  0.894190892187471  0.4133825302621006  0.7562783598738734  1.0000
  O   O6        1.0  0.8942551140586668  0.6091727966352847  0.5605780344533122  1.0000
  O   O7        1.0  0.8941747966794896  0.23154304826090466  0.5743543394094701  1.0000
  O   O8        1.0  0.7784777826621513  0.6093671429689991  0.5606017906830496  1.0000
  O   O9        1.0  0.7784135611315992  0.4135784369630471  0.756302047008613  1.0000
  O   O10       1.0  0.7784617397656303  0.42752916723894674  0.3786762370546801  1.0000
  O   O11       1.0  0.7783974658394197  0.2317389009548596  0.574376562478937  1.0000
