data_image0
_chemical_formula_structural       NC10NC3NH7C7OC6OCH12C6SCOC6H10Zn2C4O8
_chemical_formula_sum              "N3 C44 H29 O11 S1 Zn2"
_cell_length_a       19.210446455230148
_cell_length_b       10.299359160628079
_cell_length_c       10.302041481415108
_cell_angle_alpha    85.54689826212588
_cell_angle_beta     89.98692140310256
_cell_angle_gamma    89.96984927250973

_space_group_name_H-M_alt    "P 1"
_space_group_IT_number       1

loop_
  _space_group_symop_operation_xyz
  'x, y, z'

loop_
  _atom_site_type_symbol
  _atom_site_label
  _atom_site_symmetry_multiplicity
  _atom_site_fract_x
  _atom_site_fract_y
  _atom_site_fract_z
  _atom_site_occupancy
  N   N1        1.0  0.6558190665606108  0.4207178260471145  0.5678381985787335  1.0000
  C   C1        1.0  0.5955908042358183  0.4229252750751007  0.5680696154929759  1.0000
  C   C2        1.0  0.5207867205214404  0.4256621077221179  0.5683563124747446  1.0000
  C   C3        1.0  0.485190840966471  0.541888044375822  0.5834815987343591  1.0000
  C   C4        1.0  0.4125253817964786  0.5420396019124705  0.5834290348315765  1.0000
  C   C5        1.0  0.3756200573340997  0.42637104875735266  0.568442879234544  1.0000
  C   C6        1.0  0.2982977546589408  0.42501461691141307  0.5682921240163927  1.0000
  C   C7        1.0  0.2605578240501792  0.5286090859785753  0.5049592444763589  1.0000
  C   C8        1.0  0.1877792887718469  0.5272068835032586  0.5048499912700308  1.0000
  C   C9        1.0  0.1517393070787155  0.4224677423719654  0.5680226692475636  1.0000
  C   C10       1.0  0.0768096205077563  0.42116569998524045  0.5678856821658604  1.0000
  N   N2        1.0  0.016571634304548  0.42011881368448756  0.5677755794140071  1.0000
  C   C11       1.0  0.1887555967905286  0.318998975937548  0.6313305640030908  1.0000
  C   C12       1.0  0.2615359448532064  0.32012688988704574  0.6314900123439304  1.0000
  C   C13       1.0  0.4138260303705117  0.31196527756039494  0.5536059576045007  1.0000
  N   N3        1.0  0.4845962911151819  0.31441021145446046  0.5537718377121073  1.0000
  H   H1        1.0  0.5133031859983819  0.6313179648924745  0.5955403155084398  1.0000
  H   H2        1.0  0.3852679673854311  0.6320508821843336  0.596882252573153  1.0000
  H   H3        1.0  0.2872960256319909  0.6098817316432517  0.45399157804279877  1.0000
  H   H4        1.0  0.159643677622848  0.6076513310300207  0.45521230609470864  1.0000
  H   H5        1.0  0.1613777535218686  0.23759116028579474  0.6808686470416176  1.0000
  H   H6        1.0  0.2890266837033378  0.23980110325606785  0.6825651249683691  1.0000
  H   H7        1.0  0.3875491405633788  0.22109108654302556  0.5401063781848985  1.0000
  C   C14       1.0  0.8361167631597864  0.03904018651093066  0.5677754227754879  1.0000
  C   C15       1.0  0.778544278925166  0.04444543564760317  0.48340705824519903  1.0000
  C   C16       1.0  0.7500053355295285  0.9301866378779332  0.4397609803336693  1.0000
  C   C17       1.0  0.7787100793759305  0.8091835604402287  0.4836620795156492  1.0000
  C   C18       1.0  0.8362805923371982  0.8017864365141427  0.5678496243955684  1.0000
  C   C19       1.0  0.8647485276512136  0.9173016900277453  0.60921069437696  1.0000
  C   C20       1.0  0.6887309700659089  0.9380309421240467  0.35185750217188305  1.0000
  O   O1        1.0  0.644494867736555  0.026973134674360022  0.3634291626919861  1.0000
  C   C21       1.0  0.6776381524147751  0.8450458390901094  0.2508341998126389  1.0000
  C   C22       1.0  0.7342590627668992  0.7916247999900748  0.18678332008382048  1.0000
  C   C23       1.0  0.7230739997530459  0.7052894495577615  0.09072463103526629  1.0000
  C   C24       1.0  0.6554514576242224  0.6714992394588345  0.05598132765294217  1.0000
  C   C25       1.0  0.598596289917136  0.7259558899692735  0.11872077819730031  1.0000
  C   C26       1.0  0.6097176991347266  0.8123502196347197  0.21482588955258985  1.0000
  O   O2        1.0  0.6470238834887899  0.5843191986002633  0.9591058464652393  1.0000
  C   C27       1.0  0.5814272248183339  0.5415989479423494  0.914259041063977  1.0000
  H   H8        1.0  0.9445740347768972  0.23607853713821436  0.7273966862073773  1.0000
  H   H9        1.0  0.7561586202084234  0.1378218885941367  0.4504334288636227  1.0000
  H   H10       1.0  0.7556027708040047  0.7205951301445997  0.4532213418631492  1.0000
  H   H11       1.0  0.909158040581535  0.912327712597481  0.6741573962002341  1.0000
  H   H12       1.0  0.8581870227765497  0.47144351978363036  0.6005567301926844  1.0000
  H   H13       1.0  0.7871801482305141  0.8176170546868174  0.2099001567239176  1.0000
  H   H14       1.0  0.767252820901424  0.6647848222606408  0.04254631993997271  1.0000
  H   H15       1.0  0.5456461715969377  0.7022412342694004  0.09395969343580446  1.0000
  H   H16       1.0  0.5651498762088729  0.852810057091531  0.2619537385328392  1.0000
  H   H17       1.0  0.590119214685407  0.4732151476831408  0.8377995717118076  1.0000
  H   H18       1.0  0.5508416106964918  0.6260124637626582  0.8717636919586416  1.0000
  H   H19       1.0  0.5522038269215339  0.49005031034727525  0.9957818657899775  1.0000
  C   C28       1.0  0.8362117526264512  0.42054258411665524  0.18652548337941055  1.0000
  C   C29       1.0  0.8681503348581554  0.5435908019359368  0.17561894018832014  1.0000
  C   C30       1.0  0.8843515022533758  0.6042914053236432  0.05323672363866505  1.0000
  C   C31       1.0  0.8682163129307469  0.5431868205543495  0.9405134775220003  1.0000
  C   C32       1.0  0.8361856159050179  0.42028406272549157  0.9490995536750817  1.0000
  C   C33       1.0  0.8204004920209506  0.35954421222110344  0.07267512079393934  1.0000
  S   S1        1.0  0.9257735596236765  0.7607591319826827  0.040722226398548056  1.0000
  C   C34       1.0  0.011507302480610937  0.6908144723223273  0.043268968029573474  1.0000
  O   O3        1.0  0.0387442602025605  0.6675959599547487  0.9362017209491369  1.0000
  C   C35       1.0  0.04986863804351227  0.659407372698569  0.16678376955554697  1.0000
  C   C36       1.0  0.11160402869107688  0.5855798027553085  0.16695815564618632  1.0000
  C   C37       1.0  0.14787817109104862  0.5546221150340749  0.2829009283947974  1.0000
  C   C38       1.0  0.12315571941189929  0.5970116622123816  0.3998469103681668  1.0000
  C   C39       1.0  0.062168445928258764  0.670679175537717  0.40105264577316335  1.0000
  C   C40       1.0  0.025686611968451345  0.7020113513869763  0.2854093514502354  1.0000
  H   H20       1.0  0.7759088178488178  0.18873150014824458  0.4143908021509919  1.0000
  H   H21       1.0  0.880665607805257  0.5924989260768831  0.26193586108369127  1.0000
  H   H22       1.0  0.8810265599652298  0.5917629170127547  0.8465446148239106  1.0000
  H   H23       1.0  0.7957797375230657  0.2646825846291687  0.08016273317700495  1.0000
  H   H24       1.0  0.8241975828011128  0.3733862504933323  0.625037805870325  1.0000
  H   H25       1.0  0.13170395339071295  0.5510877346410932  0.07763266295450344  1.0000
  H   H26       1.0  0.1951834567030739  0.4975577803255269  0.2820401581225389  1.0000
  H   H27       1.0  0.15129892162682013  0.5729132042770295  0.48950175501695603  1.0000
  H   H28       1.0  0.043149116032120904  0.7037823796491955  0.49173185404432607  1.0000
  H   H29       1.0  0.9789097821882642  0.7600168872753186  0.28949738014421733  1.0000
  Zn  Zn1       1.0  0.7599244630863603  0.42054149733985313  0.567827625160497  1.0000
  Zn  Zn2       1.0  0.9124662192011027  0.4202845559836792  0.5677967852965946  1.0000
  C   C41       1.0  0.8361878740082326  0.4151591436853326  0.8049561977289927  1.0000
  C   C42       1.0  0.8362044743780407  0.42566854544842214  0.3306683399897319  1.0000
  C   C43       1.0  0.8362462130722328  0.6576129543762956  0.5626615058074589  1.0000
  C   C44       1.0  0.8361460829246997  0.1832131744813532  0.5729631009938412  1.0000
  O   O4        1.0  0.8940908319819819  0.4272856911135463  0.3790322953108989  1.0000
  O   O5        1.0  0.8940771795217991  0.41334600585659453  0.7565684618036952  1.0000
  O   O6        1.0  0.8941235086387332  0.6091305250932713  0.5609137840909808  1.0000
  O   O7        1.0  0.894044450818214  0.2315011812879948  0.5746868756812822  1.0000
  O   O8        1.0  0.7783461794142347  0.6093248721246358  0.560937534779504  1.0000
  O   O9        1.0  0.7782998506316268  0.4135419132531619  0.7565921434133374  1.0000
  O   O10       1.0  0.7783135031819338  0.42748155378215436  0.37905441585074007  1.0000
  O   O11       1.0  0.7782671220099852  0.23169703463457525  0.574709093567149  1.0000
