data_image0
_chemical_formula_structural       NC8NC6H8C7OC3NC3H11C6NCOC6H11Zn2C4O8
_chemical_formula_sum              "N4 C44 H30 O10 Zn2"
_cell_length_a       17.457602349358154
_cell_length_b       10.298746005989749
_cell_length_c       10.299662537453274
_cell_angle_alpha    85.54306763902353
_cell_angle_beta     92.86302956752768
_cell_angle_gamma    91.69721484149154

_space_group_name_H-M_alt    "P 1"
_space_group_IT_number       1

loop_
  _space_group_symop_operation_xyz
  'x, y, z'

loop_
  _atom_site_type_symbol
  _atom_site_label
  _atom_site_symmetry_multiplicity
  _atom_site_fract_x
  _atom_site_fract_y
  _atom_site_fract_z
  _atom_site_occupancy
  N   N1        1.0  0.7227548336036548  0.45347350053466395  0.6265927532252971  1.0000
  C   C1        1.0  0.6616739570168284  0.40754837340417716  0.615973837667263  1.0000
  C   C2        1.0  0.5856867627374018  0.3504232265260172  0.6027734491377272  1.0000
  C   C3        1.0  0.527151621081662  0.3905602861732196  0.6776744584517684  1.0000
  C   C4        1.0  0.4526026280394939  0.3355533508837907  0.6650886562027758  1.0000
  C   C5        1.0  0.3904761932500644  0.3779320846071894  0.744411657156701  1.0000
  C   C6        1.0  0.3159390273867318  0.39642306527298166  0.6886489368524058  1.0000
  C   C7        1.0  0.25740385026043544  0.43637614312362816  0.7636578883055316  1.0000
  C   C8        1.0  0.1814288941308073  0.4554738630068209  0.7056797297560327  1.0000
  N   N2        1.0  0.1203579452758239  0.47082204949582507  0.6590654409000825  1.0000
  C   C9        1.0  0.2729136292359381  0.45808121092169296  0.8949380982792992  1.0000
  C   C10       1.0  0.3466660747940549  0.43997910404165763  0.9510884461792497  1.0000
  C   C11       1.0  0.4051896009141956  0.40020592340737915  0.876537231972272  1.0000
  C   C12       1.0  0.4378775558316348  0.2397324186427212  0.5761688673718854  1.0000
  C   C13       1.0  0.4964009507265295  0.19987391202561477  0.5016678835018098  1.0000
  C   C14       1.0  0.5701651127458153  0.2549930253108983  0.5148036476692583  1.0000
  H   H1        1.0  0.5394936600896332  0.4657359219387205  0.7443108002501526  1.0000
  H   H2        1.0  0.3036067172744543  0.3814899502236584  0.586622605581369  1.0000
  H   H3        1.0  0.22804747709293163  0.48894444551254534  0.9537765056925889  1.0000
  H   H4        1.0  0.3584848752808091  0.45647015278787073  0.052741619131189355  1.0000
  H   H5        1.0  0.4616673889484276  0.3851954666758728  0.9226430504990346  1.0000
  H   H6        1.0  0.3813900189438736  0.19439702347911303  0.5655138744824133  1.0000
  H   H7        1.0  0.4845729947757719  0.12581528435327605  0.4338332860797225  1.0000
  H   H8        1.0  0.6150311544247203  0.22325982614584783  0.45647631063479577  1.0000
  C   C15       1.0  0.9215233964809528  0.08074424451132134  0.6428092330602149  1.0000
  C   C16       1.0  0.9574296772595213  0.09086413578170394  0.5232361996129125  1.0000
  C   C17       1.0  0.9747789728092665  0.9788229390621375  0.4620194021144952  1.0000
  C   C18       1.0  0.9574302592873947  0.8556275795764128  0.5231871095377618  1.0000
  C   C19       1.0  0.9215967005881909  0.8435416177852668  0.6428607749708208  1.0000
  C   C20       1.0  0.9036859939417429  0.9566679009122001  0.7017429156389285  1.0000
  C   C21       1.0  0.013347692656488386  0.9893461875682227  0.3363524846865069  1.0000
  O   O1        1.0  0.06019428058581022  0.9034219349407913  0.31496598032509726  1.0000
  C   C22       1.0  0.9987735394479597  0.09728637692436348  0.23495545856744604  1.0000
  C   C23       1.0  0.9261292412716045  0.15351344118784915  0.21691494419556157  1.0000
  C   C24       1.0  0.9126987559632149  0.25463525396527187  0.11991026581168862  1.0000
  N   N3        1.0  0.8388262103704887  0.3116505745515721  0.10267282467029193  1.0000
  C   C25       1.0  0.9719602078927247  0.2991401613449809  0.039615170873099625  1.0000
  C   C26       1.0  0.04390446365438194  0.24271849993871952  0.055742421509766826  1.0000
  C   C27       1.0  0.057275315590258113  0.14201867595288675  0.15243801853824324  1.0000
  H   H9        1.0  0.8547420083777646  0.26896389404595133  0.8696930888931773  1.0000
  H   H10       1.0  0.9726928619923391  0.18606463369341686  0.47826049345033783  1.0000
  H   H11       1.0  0.9712734568860852  0.7690583085877767  0.47661933429879966  1.0000
  H   H12       1.0  0.8760125158561188  0.9481153795006277  0.7939142730542559  1.0000
  H   H13       1.0  0.8541778167547306  0.6133996623100794  0.8692040351402144  1.0000
  H   H14       1.0  0.8796598124359853  0.11805722853980671  0.2770829984371388  1.0000
  H   H15       1.0  0.7942413938643478  0.27922702616782136  0.1619833254697447  1.0000
  H   H16       1.0  0.8281928846774966  0.38682929006748856  0.030565281362743724  1.0000
  H   H17       1.0  0.9623019888373391  0.3770988616980464  0.9643384898659138  1.0000
  H   H18       1.0  0.08943420659352874  0.27709899896173185  0.9931652888289286  1.0000
  H   H19       1.0  0.11354194301450327  0.09982930891245556  0.16356099554337988  1.0000
  C   C28       1.0  0.9216128799273429  0.4622857650853185  0.26146335203554716  1.0000
  C   C29       1.0  0.999932702862073  0.4980803953744155  0.26404776771866034  1.0000
  C   C30       1.0  0.03961212632914868  0.5142380201271843  0.14868462721077114  1.0000
  C   C31       1.0  0.9997984265365217  0.49776443690203176  0.028893486126919887  1.0000
  C   C32       1.0  0.9215072508914938  0.4620000633357668  0.024206664729406135  1.0000
  C   C33       1.0  0.8829219583546706  0.4440209290300903  0.14110141585908464  1.0000
  N   N4        1.0  0.11950615799025899  0.5528125770360808  0.1547281811315806  1.0000
  C   C34       1.0  0.1738004993087754  0.5153281631100828  0.0649470759611892  1.0000
  O   O2        1.0  0.15979806373580652  0.4161506100468044  0.0022460760960567594  1.0000
  C   C35       1.0  0.2474669289631839  0.588877119388562  0.04861726027266999  1.0000
  C   C36       1.0  0.2567349189286283  0.7173626460929763  0.08573565150799167  1.0000
  C   C37       1.0  0.32634132462100673  0.7859608763139292  0.06923380832169013  1.0000
  C   C38       1.0  0.38723766846874375  0.7275857454373169  0.015228800121440234  1.0000
  C   C39       1.0  0.3785923599337564  0.6005738942465739  0.9771553824611172  1.0000
  C   C40       1.0  0.3091167199581144  0.5315242986965099  0.9933387986542939  1.0000
  H   H20       1.0  0.7736987996629187  0.3959636553560495  0.4637443321564416  1.0000
  H   H21       1.0  0.030672237135638714  0.5126419415667687  0.3559794647837544  1.0000
  H   H22       1.0  0.029515278087774988  0.5150263447666557  0.9392082473162207  1.0000
  H   H23       1.0  0.8225486259498166  0.4164104559926294  0.13824520741058333  1.0000
  H   H24       1.0  0.8912272187214382  0.4499509117057132  0.694809446484991  1.0000
  H   H25       1.0  0.1404487288944305  0.6009341984056698  0.2353639953433182  1.0000
  H   H26       1.0  0.21012352039002824  0.7658683876321031  0.12570571855359636  1.0000
  H   H27       1.0  0.33295061428181016  0.8847371871583443  0.0978953346712923  1.0000
  H   H28       1.0  0.4410372004164038  0.7809156391647398  0.0025081977190768434  1.0000
  H   H29       1.0  0.425771174591117  0.555510511991133  0.935034880381179  1.0000
  H   H30       1.0  0.3038220874840405  0.43302798998312153  0.9634096177238796  1.0000
  Zn  Zn1       1.0  0.8374945015911638  0.45847643118711545  0.6359711677266546  1.0000
  Zn  Zn2       1.0  0.005618260542118225  0.46580846607067494  0.6496976582829623  1.0000
  C   C41       1.0  0.9215249885022486  0.456879853415473  0.8800313615751203  1.0000
  C   C42       1.0  0.9215896096771048  0.4674067626290752  0.40563774190547885  1.0000
  C   C43       1.0  0.9215796212342231  0.6993584267815909  0.6376755131886167  1.0000
  C   C44       1.0  0.921534919416672  0.2249266262903451  0.6479936547417495  1.0000
  O   O3        1.0  0.985383889761499  0.47190221895501216  0.45923311544207723  1.0000
  O   O4        1.0  0.9853327513002619  0.45794826224266294  0.8368537028464376  1.0000
  O   O5        1.0  0.9853760076525107  0.6537527387810951  0.6411495704351744  1.0000
  O   O6        1.0  0.9853405760543809  0.2760977492421941  0.6549371457946782  1.0000
  O   O7        1.0  0.8577721287065145  0.6481871455149497  0.6307316755239305  1.0000
  O   O8        1.0  0.8577288725103372  0.45238422944848256  0.8264357387944183  1.0000
  O   O9        1.0  0.8577800112345303  0.4663381414877992  0.4488135899792409  1.0000
  O   O10       1.0  0.8577366975098949  0.27053366244872  0.6445177176994956  1.0000
