data_image0
_chemical_formula_structural       NC9NC5H8C7OC3FC3H9C7OC3NC3H11Zn2C4O8
_chemical_formula_sum              "N3 C44 H28 O10 F1 Zn2"
_cell_length_a       17.807436237873137
_cell_length_b       10.29937835083307
_cell_length_c       10.298749378158432
_cell_angle_alpha    85.54775683836141
_cell_angle_beta     89.40102399035862
_cell_angle_gamma    88.41049276798935

_space_group_name_H-M_alt    "P 1"
_space_group_IT_number       1

loop_
  _space_group_symop_operation_xyz
  'x, y, z'

loop_
  _atom_site_type_symbol
  _atom_site_label
  _atom_site_symmetry_multiplicity
  _atom_site_fract_x
  _atom_site_fract_y
  _atom_site_fract_z
  _atom_site_occupancy
  N   N1        1.0  0.7075689245605861  0.3879192843509047  0.5567918247863566  1.0000
  C   C1        1.0  0.6469731011364818  0.3527294075736618  0.5457724572640883  1.0000
  C   C2        1.0  0.5715985568413166  0.308957076176158  0.5320655605281068  1.0000
  C   C3        1.0  0.5534828568045029  0.23754866233724026  0.4270649826658417  1.0000
  C   C4        1.0  0.4802980332531281  0.194937608932241  0.4136738512590308  1.0000
  C   C5        1.0  0.4241801100014789  0.223357430878663  0.5052509021170635  1.0000
  C   C6        1.0  0.3464035395342286  0.17818776865349406  0.4911016607519567  1.0000
  C   C7        1.0  0.2842464849577026  0.25994425766115303  0.5170300295113226  1.0000
  C   C8        1.0  0.210919315665748  0.21713015879605324  0.5036526119948157  1.0000
  C   C9        1.0  0.1477127624357061  0.30157805164694373  0.5299444952516952  1.0000
  N   N2        1.0  0.096907680654261  0.3694683149647242  0.5510824437512525  1.0000
  C   C10       1.0  0.1991656003003713  0.092301585201082  0.4643215140011119  1.0000
  C   C11       1.0  0.2604652814246006  0.010531244178078936  0.4383847569932806  1.0000
  C   C12       1.0  0.3336729186159558  0.052950806960727625  0.4515596804764208  1.0000
  C   C13       1.0  0.4429873368383377  0.2952602077952047  0.6104706511281088  1.0000
  C   C14       1.0  0.5162249781960347  0.3376808740711308  0.623706148287912  1.0000
  H   H1        1.0  0.595866644878804  0.21506878107423244  0.3553496777221137  1.0000
  H   H2        1.0  0.4673668667446681  0.14126066806016802  0.33075475908056995  1.0000
  H   H3        1.0  0.2927667702595846  0.3574096818429886  0.5458943129165772  1.0000
  H   H4        1.0  0.1426925603049792  0.05826539140216247  0.4537310424168042  1.0000
  H   H5        1.0  0.2512467132650881  0.913886045340646  0.4083198332036284  1.0000
  H   H6        1.0  0.3802983976943342  0.9872053751910832  0.43251992077403534  1.0000
  H   H7        1.0  0.4013204340562213  0.31720091452987087  0.6834806476924011  1.0000
  H   H8        1.0  0.5296846534378329  0.3925785252983247  0.7055833355727708  1.0000
  C   C15       1.0  0.9021627135003866  0.9973124215655927  0.554002285354519  1.0000
  C   C16       1.0  0.8237787635745679  0.0010361219262537968  0.5391255885543489  1.0000
  C   C17       1.0  0.7841488147297672  0.885630826847022  0.5331010659466062  1.0000
  C   C18       1.0  0.8239624597021157  0.765783412968651  0.5391297706264617  1.0000
  C   C19       1.0  0.9023210512820911  0.7600649011664453  0.5538831599426766  1.0000
  C   C20       1.0  0.9409446408338021  0.8763720032308708  0.5615763516171417  1.0000
  C   C21       1.0  0.7014734797347459  0.8895208993146115  0.5160176269187207  1.0000
  O   O1        1.0  0.672449917991306  0.8062117459812387  0.44977662165970833  1.0000
  C   C22       1.0  0.6517236459740063  0.9878211180952504  0.5740909109960741  1.0000
  C   C23       1.0  0.5847970826588214  0.030996509406828077  0.5112861179985568  1.0000
  C   C24       1.0  0.5370798517698328  0.12251000150300273  0.5660513006830468  1.0000
  F   F1        1.0  0.47297404435221985  0.16424369729385613  0.5042665931240602  1.0000
  C   C25       1.0  0.5553755836042239  0.17092935542295273  0.6843980671856384  1.0000
  C   C26       1.0  0.6212237381075547  0.12755261619268854  0.7484333393609615  1.0000
  C   C27       1.0  0.6690963448177307  0.03610333331770743  0.6940706244399142  1.0000
  H   H9        1.0  0.05021342886856872  0.1977540307803538  0.5800781924892824  1.0000
  H   H10       1.0  0.7935504533669103  0.09398086025782315  0.530754985761174  1.0000
  H   H11       1.0  0.793548816992769  0.6767566709162267  0.5335229431760664  1.0000
  H   H12       1.0  0.0013728411297468934  0.8726973037137853  0.5730444371472729  1.0000
  H   H13       1.0  0.9324934488767556  0.4304930310019824  0.5584535453081241  1.0000
  H   H14       1.0  0.5698207608241852  0.9947124499937726  0.41933960393883707  1.0000
  H   H15       1.0  0.5184166092131819  0.24166521223594595  0.726822544204873  1.0000
  H   H16       1.0  0.6350386529560743  0.1643788596924063  0.8406104727714347  1.0000
  H   H17       1.0  0.7191677362341121  0.002163872691636204  0.746493006508264  1.0000
  C   C28       1.0  0.902207246939628  0.3787182950374508  0.17254216679777468  1.0000
  C   C29       1.0  0.9432672563933897  0.49364197233829477  0.1619024751389435  1.0000
  C   C30       1.0  0.963276065283734  0.5525919893041122  0.03929456272487197  1.0000
  C   C31       1.0  0.9432702522409704  0.4936906937853276  0.9266583943038373  1.0000
  C   C32       1.0  0.9022765108195386  0.37865897796302095  0.9353432694293926  1.0000
  C   C33       1.0  0.8818326091163129  0.32209150592126945  0.05870591628811028  1.0000
  C   C34       1.0  0.007244211611292517  0.6732812891059772  0.027950870299021213  1.0000
  O   O2        1.0  0.05418967590130763  0.6894000709563424  0.93591273050796  1.0000
  C   C35       1.0  0.9979568733075644  0.7756763974947984  0.12096113531912711  1.0000
  C   C36       1.0  0.9276792446259176  0.8015818171452147  0.17869251056245927  1.0000
  C   C37       1.0  0.9192960849662257  0.8994851095747554  0.26550078575255  1.0000
  N   N3        1.0  0.8477756671001555  0.9247270195663433  0.3242183816068478  1.0000
  C   C38       1.0  0.9813028113010642  0.9728008059034559  0.2939775048026143  1.0000
  C   C39       1.0  0.0509888434748913  0.9488741531484179  0.23579517199568523  1.0000
  C   C40       1.0  0.05932877424379801  0.8512845925975148  0.14936428762775522  1.0000
  H   H18       1.0  0.8256194696055684  0.1605082241402691  0.4000719210683439  1.0000
  H   H19       1.0  0.9604331345870228  0.5366760718278283  0.24919018753906896  1.0000
  H   H20       1.0  0.9591233840199888  0.5384632277386865  0.8320126370282499  1.0000
  H   H21       1.0  0.8501863272464334  0.23350352608037772  0.0661553563894639  1.0000
  H   H22       1.0  0.8250908694996231  0.16105625230491083  0.7444650882444326  1.0000
  H   H23       1.0  0.8791946493532403  0.7468699723191736  0.15536923066208708  1.0000
  H   H24       1.0  0.801179481057311  0.8706608888919054  0.30368229048442563  1.0000
  H   H25       1.0  0.8409074523558354  0.9975738506243423  0.38879571608346164  1.0000
  H   H26       1.0  0.9755458681288778  0.048691058370929685  0.36078341129231783  1.0000
  H   H27       1.0  0.09867138426509414  0.006083924194509649  0.25772319267469146  1.0000
  H   H28       1.0  0.1139025640008724  0.8340530233189438  0.10556578758072654  1.0000
  Zn  Zn1       1.0  0.8199236781590762  0.38259126716716607  0.5551517327057305  1.0000
  Zn  Zn2       1.0  0.9845529076305971  0.3747857448029259  0.5527332149830204  1.0000
  C   C41       1.0  0.9022606845801611  0.37349644245695934  0.7911583623326601  1.0000
  C   C42       1.0  0.9022176993073564  0.3838821229396072  0.31672668616704014  1.0000
  C   C43       1.0  0.9022867966960145  0.6158890098358585  0.5487301279420451  1.0000
  C   C44       1.0  0.902191530697404  0.14148799786588961  0.5591549908710052  1.0000
  O   O3        1.0  0.9646971406531706  0.382647329773119  0.3641985140225976  1.0000
  O   O4        1.0  0.9647310189047994  0.368806045031437  0.7418505617622313  1.0000
  O   O5        1.0  0.9647512626857669  0.5645411484885925  0.5460880594336797  1.0000
  O   O6        1.0  0.9646768406884823  0.186912238277551  0.5599609197922286  1.0000
  O   O7        1.0  0.8397996889213145  0.570464776357597  0.5479240287150118  1.0000
  O   O8        1.0  0.839779445454569  0.37473123326031565  0.743686461548702  1.0000
  O   O9        1.0  0.8397455671016761  0.3885724728635851  0.366032852285185  1.0000
  O   O10       1.0  0.8397252671408317  0.192837372071486  0.5617953554322261  1.0000
