data_image0
_chemical_formula_structural       NC10NC3NH7C6NCOC6H11C7OC3FC3H9Zn2C4O8
_chemical_formula_sum              "N4 C43 H27 O10 F1 Zn2"
_cell_length_a       19.210446455230148
_cell_length_b       10.29965916528486
_cell_length_c       10.29938172300155
_cell_angle_alpha    85.59399439143571
_cell_angle_beta     89.97418890370308
_cell_angle_gamma    89.96405462056514

_space_group_name_H-M_alt    "P 1"
_space_group_IT_number       1

loop_
  _space_group_symop_operation_xyz
  'x, y, z'

loop_
  _atom_site_type_symbol
  _atom_site_label
  _atom_site_symmetry_multiplicity
  _atom_site_fract_x
  _atom_site_fract_y
  _atom_site_fract_z
  _atom_site_occupancy
  N   N1        1.0  0.6559129142723996  0.4197867446711243  0.567847899921262  1.0000
  C   C1        1.0  0.595684504526879  0.4219942320166763  0.5680798519788663  1.0000
  C   C2        1.0  0.5208802380637649  0.4247311120389108  0.5683672123943566  1.0000
  C   C3        1.0  0.48527624553015825  0.540960843824384  0.5835212974229995  1.0000
  C   C4        1.0  0.4126107844094567  0.5411123626138119  0.5834687557704261  1.0000
  C   C5        1.0  0.3757135260693515  0.42544007278215057  0.5684539536123066  1.0000
  C   C6        1.0  0.2983913150022686  0.42408361221996405  0.5683028677486723  1.0000
  C   C7        1.0  0.26065332206456  0.5276350313234826  0.5049793955958082  1.0000
  C   C8        1.0  0.1878748759243847  0.526232827324999  0.5048698104497409  1.0000
  C   C9        1.0  0.151833037803688  0.42153669198750676  0.5680327950312827  1.0000
  C   C10       1.0  0.076903438245672  0.42023462670451517  0.5678954921971393  1.0000
  N   N2        1.0  0.0166655219991086  0.41918772201827204  0.5677851355779648  1.0000
  C   C11       1.0  0.1888473860049021  0.31811095463013817  0.631331304794224  1.0000
  C   C12       1.0  0.2616276538234589  0.3192389130652453  0.6314910352937424  1.0000
  C   C13       1.0  0.4139274788839005  0.31103059701434677  0.5535886951198377  1.0000
  N   N3        1.0  0.4846975871423872  0.3134755186832283  0.5537551487986769  1.0000
  H   H1        1.0  0.5133822978368308  0.6303939387337572  0.5956022624153272  1.0000
  H   H2        1.0  0.3853468792685982  0.6311276334750988  0.5969446449792424  1.0000
  H   H3        1.0  0.2873931967459035  0.6088731286037561  0.4540188382561381  1.0000
  H   H4        1.0  0.1597408240680738  0.6066435685197791  0.45523933352769674  1.0000
  H   H5        1.0  0.1614680476142852  0.2367368294294403  0.6808619463285617  1.0000
  H   H6        1.0  0.2891166553629678  0.23894769620077638  0.6825592700999383  1.0000
  H   H7        1.0  0.3876571321704768  0.22015242708711358  0.5400662443770459  1.0000
  C   C14       1.0  0.8362313319127761  0.038126628921951955  0.5677010529032989  1.0000
  C   C15       1.0  0.8367255656433342  0.04737137922171919  0.4308874121640134  1.0000
  C   C16       1.0  0.8380009901523316  0.9351909027993556  0.3620528216976939  1.0000
  C   C17       1.0  0.8368566735701453  0.8121809453588109  0.4311837683743682  1.0000
  C   C18       1.0  0.8363537390192375  0.8008378370895172  0.5679431879903654  1.0000
  C   C19       1.0  0.8362888528023559  0.9144179283041973  0.635429862680192  1.0000
  N   N4        1.0  0.8374369394956978  0.9482284212939862  0.22198928477930968  1.0000
  C   C20       1.0  0.8700786812474325  0.8570247485970466  0.14225891657656997  1.0000
  O   O1        1.0  0.9180915660147282  0.7841385172328194  0.1892277665546349  1.0000
  C   C21       1.0  0.8498669741450304  0.8508259550227831  0.003898677387664584  1.0000
  C   C22       1.0  0.7855074295458525  0.9007781460731212  0.9575649369996957  1.0000
  C   C23       1.0  0.7668747560043246  0.8937620158531289  0.8270478910553356  1.0000
  C   C24       1.0  0.8119534301210115  0.8365781271612286  0.7415849677831492  1.0000
  C   C25       1.0  0.8757004153904905  0.785839076767035  0.7865426203251542  1.0000
  C   C26       1.0  0.8945988449851391  0.7924984062374745  0.9169551473407549  1.0000
  H   H8        1.0  0.8346346476979777  0.22795301973276105  0.8257755513406986  1.0000
  H   H9        1.0  0.8366537882892928  0.14196690786415656  0.37706541445073305  1.0000
  H   H10       1.0  0.8351361346143734  0.7253795719691951  0.3783796995716091  1.0000
  H   H11       1.0  0.8359171621942854  0.9064258656161577  0.7408977391349163  1.0000
  H   H12       1.0  0.8352347260468193  0.46903907671925554  0.620403907855716  1.0000
  H   H13       1.0  0.8175825187838982  0.03438247238048353  0.17605315882636985  1.0000
  H   H14       1.0  0.7490205585764106  0.9435521798659078  0.0220524470037069  1.0000
  H   H15       1.0  0.717271395075573  0.9322687222432738  0.7922714219131892  1.0000
  H   H16       1.0  0.7973915617621163  0.8312189668389883  0.6406318755628093  1.0000
  H   H17       1.0  0.9105405665009713  0.7412715482142005  0.7202917102462427  1.0000
  H   H18       1.0  0.9443768622088617  0.7528047179283055  0.9495129190690248  1.0000
  C   C27       1.0  0.8363511251640889  0.41938101537084926  0.1864544225905287  1.0000
  C   C28       1.0  0.8583586331919649  0.2888930923379558  0.19527041469019046  1.0000
  C   C29       1.0  0.8702149206046462  0.22353355703267908  0.08250819934292641  1.0000
  C   C30       1.0  0.8582921027834874  0.2891863299871178  0.9600044693211651  1.0000
  C   C31       1.0  0.8362339327170739  0.4195834508594267  0.9491898627531983  1.0000
  C   C32       1.0  0.8255665582639574  0.4840299023597181  0.06300427129511399  1.0000
  C   C33       1.0  0.8927487236305304  0.0853309630004433  0.09170570289233848  1.0000
  O   O2        1.0  0.8712971700635487  0.012124207727047587  0.0075049212490547745  1.0000
  C   C34       1.0  0.9396229910451948  0.030181329840733184  0.19632527658225007  1.0000
  C   C35       1.0  0.9339941915513058  0.8982329453936491  0.24155750455637914  1.0000
  C   C36       1.0  0.9784974351443645  0.8449531818858097  0.33908933773006744  1.0000
  F   F1        1.0  0.9723129181376492  0.7178992789856355  0.3827188670807069  1.0000
  C   C37       1.0  0.029349187746338323  0.9224904953331363  0.3915730619692035  1.0000
  C   C38       1.0  0.035980233260534566  0.053231796197094505  0.3462752184618543  1.0000
  C   C39       1.0  0.9916150912908981  0.10692309100345643  0.2488144678673967  1.0000
  H   H19       1.0  0.7937976228628423  0.6650160446631304  0.37718518465187145  1.0000
  H   H20       1.0  0.8655621203620485  0.23749187643124348  0.29005843410879284  1.0000
  H   H21       1.0  0.8669118253065922  0.23862372888061412  0.8729611130667694  1.0000
  H   H22       1.0  0.8086000827327681  0.5846260669734364  0.055403742913248344  1.0000
  H   H23       1.0  0.8271991209684318  0.46933848156949476  0.6176050658689949  1.0000
  H   H24       1.0  0.8947706737828243  0.8367832603378429  0.2021718495013214  1.0000
  H   H25       1.0  0.06382195695416448  0.8812258029624757  0.4669706639797331  1.0000
  H   H26       1.0  0.07574967675422739  0.11293287855908551  0.38629914758552375  1.0000
  H   H27       1.0  0.9984751568453107  0.2078682249993884  0.21358460692228753  1.0000
  Zn  Zn1       1.0  0.760018321629557  0.41961041768568497  0.5678372854312832  1.0000
  Zn  Zn2       1.0  0.9125600953696352  0.4193534695098422  0.5678063824517035  1.0000
  C   C40       1.0  0.836253719846042  0.4143716508666526  0.8050148725212991  1.0000
  C   C41       1.0  0.8363263631479947  0.42459387214075606  0.3306289230105208  1.0000
  C   C42       1.0  0.8363278224608242  0.656667843792001  0.5627222833202177  1.0000
  C   C43       1.0  0.8362522082203016  0.18229611905285314  0.5729215809651789  1.0000
  O   O3        1.0  0.8942068600360598  0.42624017838105677  0.37900347308328386  1.0000
  O   O4        1.0  0.8941488995504964  0.41252934710585154  0.7566164936461768  1.0000
  O   O5        1.0  0.8942079577728259  0.6081865888196023  0.5609635141928551  1.0000
  O   O6        1.0  0.8941477497780053  0.23058294601915663  0.5746563551757398  1.0000
  O   O7        1.0  0.7784306151661672  0.6083809412654664  0.5609873127109619  1.0000
  O   O8        1.0  0.7783715572017291  0.41272525980336683  0.7566402234144223  1.0000
  O   O9        1.0  0.7784295179661809  0.426436045409037  0.3790256414414006  1.0000
  O   O10       1.0  0.7783704076888318  0.23077880378438187  0.5746786208984374  1.0000
