data_image0
_chemical_formula_structural       NC10NC5H10C7OC6OCH12C7OC3FC3H9Zn2C4O8
_chemical_formula_sum              "N2 C46 H31 O11 F1 Zn2"
_cell_length_a       19.4436361288709
_cell_length_b       10.299359160628079
_cell_length_c       10.29938172300155
_cell_angle_alpha    85.58141560917656
_cell_angle_beta     89.68829794462899
_cell_angle_gamma    89.44098980803524

_space_group_name_H-M_alt    "P 1"
_space_group_IT_number       1

loop_
  _space_group_symop_operation_xyz
  'x, y, z'

loop_
  _atom_site_type_symbol
  _atom_site_label
  _atom_site_symmetry_multiplicity
  _atom_site_fract_x
  _atom_site_fract_y
  _atom_site_fract_z
  _atom_site_occupancy
  N   N1        1.0  0.6481604808161792  0.4089634741304857  0.5622685085900532  1.0000
  C   C1        1.0  0.5893252888640695  0.4188666957728264  0.5766537116514943  1.0000
  C   C2        1.0  0.5159969271405237  0.43121734503999387  0.5946475606064445  1.0000
  C   C3        1.0  0.47381522256849135  0.39921226882945815  0.49996985157129825  1.0000
  C   C4        1.0  0.3979122271909752  0.4096511546737971  0.5052992251460409  1.0000
  C   C5        1.0  0.3581577085780199  0.3849115125069431  0.6123685903099867  1.0000
  C   C6        1.0  0.28203919875678657  0.3888271469167983  0.5994096967807809  1.0000
  C   C7        1.0  0.2414794068105189  0.44649695928866073  0.693187540060243  1.0000
  C   C8        1.0  0.1698177610736382  0.4501339188730389  0.6826440903939235  1.0000
  C   C9        1.0  0.1377210422025645  0.39570507150719103  0.5786092749162606  1.0000
  C   C10       1.0  0.0639301792018805  0.39940326278742133  0.5679105508465214  1.0000
  N   N2        1.0  0.0046073303103573  0.4023764145311559  0.5593094860136316  1.0000
  C   C11       1.0  0.1775557599460628  0.3373281883333348  0.4852145787520621  1.0000
  C   C12       1.0  0.2492338473250428  0.3336369835986206  0.4955062442359628  1.0000
  C   C13       1.0  0.3862696623772806  0.3444606742239613  0.7434582019150902  1.0000
  C   C14       1.0  0.4449377187095255  0.3875870316752905  0.7907060622920663  1.0000
  C   C15       1.0  0.48917252791843874  0.4854407651762833  0.7163507921623551  1.0000
  H   H1        1.0  0.4959167842147334  0.3700874453144609  0.4096594082487732  1.0000
  H   H2        1.0  0.3732273372300833  0.43213866740726625  0.41214366490796683  1.0000
  H   H3        1.0  0.2653511537426035  0.48979503022856763  0.7740412535437613  1.0000
  H   H4        1.0  0.1394754164186767  0.49545510960063743  0.7555705895108811  1.0000
  H   H5        1.0  0.1532121392809926  0.2942258048497939  0.40469537258262145  1.0000
  H   H6        1.0  0.2789100433977891  0.28607242478494554  0.4232757992152465  1.0000
  H   H7        1.0  0.3552847377856215  0.2802477795300202  0.8076971299364966  1.0000
  H   H8        1.0  0.4600712512646546  0.3535271566537741  0.8886362696545644  1.0000
  H   H9        1.0  0.4590847747018851  0.5761544013168463  0.6911101618813151  1.0000
  H   H10       1.0  0.5324569293485522  0.5110322297318715  0.7794389576089533  1.0000
  C   C16       1.0  0.8263062635957584  0.024293083646802716  0.5607581779769539  1.0000
  C   C17       1.0  0.7694308764234975  0.03060279458967563  0.47683411067250314  1.0000
  C   C18       1.0  0.7412377023240178  0.9167912362570959  0.43340788521885143  1.0000
  C   C19       1.0  0.7695946679141779  0.7953383219724707  0.4770878549924811  1.0000
  C   C20       1.0  0.8264681286610118  0.7870366592959936  0.5608310800446517  1.0000
  C   C21       1.0  0.854591411607263  0.9021044661881731  0.6019723820459943  1.0000
  C   C22       1.0  0.6807050340929549  0.9255993048366521  0.3459776739795395  1.0000
  O   O1        1.0  0.63699554199274  0.01528277859310423  0.35790694855586014  1.0000
  C   C23       1.0  0.669756524844493  0.8327370591411258  0.24502196174952373  1.0000
  C   C24       1.0  0.725709195303231  0.778337338763173  0.18050288196980913  1.0000
  C   C25       1.0  0.7146689563091175  0.6921293878002226  0.08451357875272847  1.0000
  C   C26       1.0  0.647857611308074  0.6594405546804356  0.05030580719520916  1.0000
  C   C27       1.0  0.5916736340721571  0.7148789794783191  0.11351505984330323  1.0000
  C   C28       1.0  0.6026509735286002  0.8011469944011522  0.20955130628503515  1.0000
  O   O2        1.0  0.639542045825469  0.5723416471024126  0.9534773994241337  1.0000
  C   C29       1.0  0.574733595878146  0.5306830186842055  0.9091477135652517  1.0000
  H   H11       1.0  0.9334502360640192  0.21962798952502083  0.7195426026704808  1.0000
  H   H12       1.0  0.7473162868582125  0.124330822963993  0.4440331995232971  1.0000
  H   H13       1.0  0.7467667430102662  0.7071149817428078  0.4468261677241523  1.0000
  H   H14       1.0  0.8984632224816844  0.8964327365726813  0.6665763395526025  1.0000
  H   H15       1.0  0.8481092411448922  0.4563499600755443  0.5933692585078802  1.0000
  H   H16       1.0  0.7779959219365844  0.8034651906931584  0.20319974827279386  1.0000
  H   H17       1.0  0.7583261671076242  0.6508622286223351  0.03597033369878755  1.0000
  H   H18       1.0  0.5393584149698946  0.6920282112381237  0.08917382907049687  1.0000
  H   H19       1.0  0.5586095276935967  0.8423751835824406  0.2570469891225058  1.0000
  H   H20       1.0  0.583330858719389  0.4621085707288363  0.8326022100692305  1.0000
  H   H21       1.0  0.5445180431620911  0.6155784439798346  0.8668888934142429  1.0000
  H   H22       1.0  0.5458493781210182  0.47966889495471254  0.9909224873671407  1.0000
  C   C30       1.0  0.8264450716382546  0.4055626812928126  0.17942645119093492  1.0000
  C   C31       1.0  0.8481829143843954  0.2747035748349147  0.18809454929607083  1.0000
  C   C32       1.0  0.85989418764997  0.2091442916311057  0.07525156779057629  1.0000
  C   C33       1.0  0.848117193766231  0.274997930033291  0.9528290733630462  1.0000
  C   C34       1.0  0.8263292887829307  0.4057670711597512  0.9421627875738943  1.0000
  C   C35       1.0  0.8157926893872982  0.47039349492062565  0.05604861844324671  1.0000
  C   C36       1.0  0.882151630168968  0.07056143031138218  0.08429865438666284  1.0000
  O   O3        1.0  0.8609521833352975  0.9977074410018947  0.00028625425576089825  1.0000
  C   C37       1.0  0.9284634780974832  0.014631255842159074  0.18855406280001508  1.0000
  C   C38       1.0  0.922894784791352  0.8827703497043915  0.23386060044915769  1.0000
  C   C39       1.0  0.9668640082353982  0.8287494852282931  0.3310468917523215  1.0000
  F   F1        1.0  0.9607464925792396  0.7017925056484856  0.3747541123144964  1.0000
  C   C40       1.0  0.017112983829472794  0.9054462220968453  0.3831052358280065  1.0000
  C   C41       1.0  0.023671896241245216  0.0360833541844785  0.33772530237200904  1.0000
  C   C42       1.0  0.9798391481936499  0.09051347621297401  0.24060889406662578  1.0000
  H   H23       1.0  0.7844126335375278  0.6519151260885356  0.37044465269514615  1.0000
  H   H24       1.0  0.8552976688462187  0.22318047131167873  0.2828360778128156  1.0000
  H   H25       1.0  0.8566313252466135  0.22428997143393548  0.8657276707287029  1.0000
  H   H26       1.0  0.7990341095777511  0.5712758197060457  0.04856210800040528  1.0000
  H   H27       1.0  0.8174049790184147  0.45567431288475624  0.6106395478763162  1.0000
  H   H28       1.0  0.8841361193394336  0.8219689530559414  0.19480341669734358  1.0000
  H   H29       1.0  0.05117209469689166  0.8636074639375331  0.45823517535324787  1.0000
  H   H30       1.0  0.06296987782038954  0.09512700758003234  0.37741676304217964  1.0000
  H   H31       1.0  0.9866227494008009  0.19134929578962456  0.20530167983581338  1.0000
  Zn  Zn1       1.0  0.7510233412946504  0.4070591215905448  0.5614221103856161  1.0000
  Zn  Zn2       1.0  0.9017444574749522  0.4042701620313578  0.5601665643633631  1.0000
  C   C43       1.0  0.8263485602649535  0.4005547076046765  0.7979887886116068  1.0000
  C   C44       1.0  0.8264208847029344  0.4107761842495059  0.3236000000495798  1.0000
  C   C45       1.0  0.8264347714448138  0.6428606012821458  0.5556421348749261  1.0000
  C   C46       1.0  0.8263346217508747  0.1684687312074249  0.5659467233041313  1.0000
  O   O4        1.0  0.8836106442448997  0.4114618219912032  0.3715094863748294  1.0000
  O   O5        1.0  0.8835526403034357  0.3977513342467298  0.7491259979679412  1.0000
  O   O6        1.0  0.8836214856617621  0.5934164223971521  0.5534293669849641  1.0000
  O   O7        1.0  0.8835417474724158  0.2157967440567805  0.5672060204126521  1.0000
  O   O8        1.0  0.7692259998634683  0.5955325405182692  0.5543826547579522  1.0000
  O   O9        1.0  0.7691571548436228  0.3998690126856055  0.7500792166446835  1.0000
  O   O10       1.0  0.7692151590581975  0.41357945475385427  0.37246114364928196  1.0000
  O   O11       1.0  0.7691462622661527  0.2179143675565791  0.5681577750538847  1.0000
