data_image0
_chemical_formula_structural       NC12NC2H8C6SCOC6H10C6SCOC6H10Zn2C4O8
_chemical_formula_sum              "N2 C44 H28 S2 O10 Zn2"
_cell_length_a       17.80743265337812
_cell_length_b       10.302038109246572
_cell_length_c       10.302041481415108
_cell_angle_alpha    85.54819663174399
_cell_angle_beta     91.53022125456708
_cell_angle_gamma    89.45358301258409

_space_group_name_H-M_alt    "P 1"
_space_group_IT_number       1

loop_
  _space_group_symop_operation_xyz
  'x, y, z'

loop_
  _atom_site_type_symbol
  _atom_site_label
  _atom_site_symmetry_multiplicity
  _atom_site_fract_x
  _atom_site_fract_y
  _atom_site_fract_z
  _atom_site_occupancy
  N   N1        1.0  0.7077258161462003  0.40677945982775965  0.6018706985554569  1.0000
  C   C1        1.0  0.6569135545530284  0.43635247189194515  0.5331924141894018  1.0000
  C   C2        1.0  0.5936980856901207  0.4731391511274725  0.44776527410454525  1.0000
  C   C3        1.0  0.6054385982679223  0.5271861403628499  0.32118315000800024  1.0000
  C   C4        1.0  0.5441301318888319  0.5624688475882893  0.23815120672550272  1.0000
  C   C5        1.0  0.47092691857386026  0.5439681715047016  0.28104167874500763  1.0000
  C   C6        1.0  0.4582095966674576  0.4898022626289018  0.40809181863304644  1.0000
  C   C7        1.0  0.5203753802373182  0.45452281364439906  0.4911072545538637  1.0000
  C   C8        1.0  0.3804378843687067  0.47018684005181477  0.45384175027262974  1.0000
  C   C9        1.0  0.3616535046679882  0.49732735552594476  0.5808608562425688  1.0000
  C   C10       1.0  0.2884203519223517  0.47886823020912117  0.6237918881780937  1.0000
  C   C11       1.0  0.23302853998985934  0.43301411976553994  0.5405415492908654  1.0000
  C   C12       1.0  0.15765864262044374  0.41400186880103074  0.5848730988928359  1.0000
  N   N2        1.0  0.0970665825085825  0.3987172977108715  0.6205126150538436  1.0000
  C   C13       1.0  0.25112138096086584  0.4057045646538704  0.4140652610375397  1.0000
  C   C14       1.0  0.3243016881248826  0.4241785509184144  0.37087840364431934  1.0000
  H   H1        1.0  0.6619079056329596  0.5420169749022585  0.28675641539651653  1.0000
  H   H2        1.0  0.5533385192283748  0.6045859761918628  0.140401271391156  1.0000
  H   H3        1.0  0.4242947405570355  0.573616814262706  0.21547063203761918  1.0000
  H   H4        1.0  0.5118651286559798  0.41102074799277766  0.5887325606209526  1.0000
  H   H5        1.0  0.40333491659738546  0.5344774459115742  0.6464244788270261  1.0000
  H   H6        1.0  0.2749783627186686  0.5006782801808689  0.7217814212412124  1.0000
  H   H7        1.0  0.20872330839878614  0.36982132412128177  0.348914691688615  1.0000
  H   H8        1.0  0.33721499726260284  0.4008332293012984  0.27319190025836537  1.0000
  C   C15       1.0  0.9023286434926054  0.02147136509807801  0.6111482520337594  1.0000
  C   C16       1.0  0.8381082521679353  0.027598051435147708  0.5285712138533354  1.0000
  C   C17       1.0  0.8065082468728775  0.9136807740398345  0.4870174160681835  1.0000
  C   C18       1.0  0.8383498898940196  0.7924604680047673  0.5285287893115789  1.0000
  C   C19       1.0  0.9024709694227225  0.7840152840270652  0.6112466209821137  1.0000
  C   C20       1.0  0.9341683351052862  0.8991801286455582  0.6520443569507821  1.0000
  S   S1        1.0  0.7249917411452143  0.9229389171979357  0.3805277807006393  1.0000
  C   C21       1.0  0.7802294446579074  0.9303398405784398  0.23678274346204886  1.0000
  O   O1        1.0  0.7983454104090315  0.8247128839741735  0.19131026811123908  1.0000
  C   C22       1.0  0.8050082872965381  0.05601540060425436  0.17248598405793691  1.0000
  C   C23       1.0  0.8581270922334363  0.05728956420769937  0.07354507958412926  1.0000
  C   C24       1.0  0.8822740127525408  0.17514691079459999  0.012991694130950693  1.0000
  C   C25       1.0  0.8537085700399002  0.292962116530209  0.050116785549516374  1.0000
  C   C26       1.0  0.8008157473716088  0.2931563210833037  0.14771576294748878  1.0000
  C   C27       1.0  0.7764184091679279  0.17560768770828128  0.20857726059575965  1.0000
  H   H9        1.0  0.02328954786682047  0.2172290501787919  0.7669608486538537  1.0000
  H   H10       1.0  0.812550193384749  0.12066009653544407  0.4960785407831878  1.0000
  H   H11       1.0  0.8130338753767784  0.7052441352955012  0.4955592815820711  1.0000
  H   H12       1.0  0.9836780559865927  0.8935365651118993  0.715702425544553  1.0000
  H   H13       1.0  0.9269808179102932  0.4534872994391865  0.6423801718370177  1.0000
  H   H14       1.0  0.8813675711502884  0.9672545844832534  0.04336713848958729  1.0000
  H   H15       1.0  0.9232572627950676  0.17507847703107204  0.9372734382156094  1.0000
  H   H16       1.0  0.8724884087051259  0.384094146267157  0.0031521910472154246  1.0000
  H   H17       1.0  0.7785599193963054  0.38455440531381657  0.17618058196393638  1.0000
  H   H18       1.0  0.734995123682593  0.17907333161520378  0.28314235776938523  1.0000
  C   C28       1.0  0.902413903062235  0.4028722656564512  0.22991108322758125  1.0000
  C   C29       1.0  0.9368779230005583  0.5252276294477045  0.22066304043296747  1.0000
  C   C30       1.0  0.9543602217608046  0.5855772235692169  0.09912207960067754  1.0000
  C   C31       1.0  0.9369491478436172  0.524822388495821  0.9855609903278078  1.0000
  C   C32       1.0  0.9023857068053556  0.4026143524335333  0.9924837930550838  1.0000
  C   C33       1.0  0.885352423102154  0.3422169142479592  0.11523967491210962  1.0000
  S   S2        1.0  0.9990577322533778  0.7411471813084658  0.08875847468213238  1.0000
  C   C34       1.0  0.09158869248120394  0.6694470939620101  0.09574895019862306  1.0000
  O   O2        1.0  0.12098511956709523  0.64567115585156  0.9900934230433931  1.0000
  C   C35       1.0  0.1329914299063717  0.6372545617231136  0.22125208637728022  1.0000
  C   C36       1.0  0.19962244093263348  0.5621690595669233  0.22462584616931558  1.0000
  C   C37       1.0  0.23877256322413376  0.530469002227814  0.3424487448241804  1.0000
  C   C38       1.0  0.2120890394347763  0.5733589529550116  0.4581137746727262  1.0000
  C   C39       1.0  0.14626543808107062  0.6482689630619862  0.4561589218926909  1.0000
  C   C40       1.0  0.10689114857101445  0.6803477075894355  0.3386247408536407  1.0000
  H   H19       1.0  0.837342689956416  0.1723692184352279  0.45464501369286925  1.0000
  H   H20       1.0  0.9503827684793309  0.5738640753962503  0.30762986616581567  1.0000
  H   H21       1.0  0.9507723579361083  0.5731207909063987  0.8922573196248162  1.0000
  H   H22       1.0  0.8587848642029998  0.24788939435465362  0.12144878548081817  1.0000
  H   H23       1.0  0.8894497918638712  0.3559767862769436  0.6677995183883754  1.0000
  H   H24       1.0  0.22131676387410493  0.5272701592059768  0.13634179658185785  1.0000
  H   H25       1.0  0.28982918328898233  0.47244089460844196  0.3440395126217619  1.0000
  H   H26       1.0  0.24246356703993066  0.5486845502925348  0.5492273086351831  1.0000
  H   H27       1.0  0.12573740554956636  0.6817570062178229  0.5458526857972035  1.0000
  H   H28       1.0  0.05640481975598677  0.739305838040307  0.34028865051453394  1.0000
  Zn  Zn1       1.0  0.8200811535097375  0.4044494250177435  0.6072578378335631  1.0000
  Zn  Zn2       1.0  0.9847112402828208  0.4010367380347508  0.6151360651672806  1.0000
  C   C41       1.0  0.9023883756821173  0.39749072374063354  0.8483404487954769  1.0000
  C   C42       1.0  0.9024058161668663  0.4079970402267419  0.3740536678854871  1.0000
  C   C43       1.0  0.9024403703766227  0.6398800726299207  0.6060537676859832  1.0000
  C   C44       1.0  0.902353765001956  0.16560613255225776  0.6163404153291567  1.0000
  O   O3        1.0  0.964879361027341  0.40841620008817503  0.42541898154037305  1.0000
  O   O4        1.0  0.964865257232554  0.39448043406348043  0.8029541535057043  1.0000
  O   O5        1.0  0.9649064013461017  0.5902129157252234  0.607305904161634  1.0000
  O   O6        1.0  0.9648381607420321  0.21268372891185638  0.6210671308437521  1.0000
  O   O7        1.0  0.8399541768703578  0.5928024353066361  0.6013267694618101  1.0000
  O   O8        1.0  0.8399130330470467  0.3970715135960894  0.7969749497764225  1.0000
  O   O9        1.0  0.839927136941123  0.411007234902629  0.419438216745043  1.0000
  O   O10       1.0  0.8398859366474068  0.21527475440688493  0.615086463393832  1.0000
