data_image0
_chemical_formula_structural       NC10NC3NCH9C7OC3FC3H9C7OC6OCH12Zn2C4O8
_chemical_formula_sum              "N3 C45 H30 O11 F1 Zn2"
_cell_length_a       19.437513618241372
_cell_length_b       10.29937835083307
_cell_length_c       10.299362532796529
_cell_angle_alpha    85.57000454149363
_cell_angle_beta     90.36260544927384
_cell_angle_gamma    89.54280298698887

_space_group_name_H-M_alt    "P 1"
_space_group_IT_number       1

loop_
  _space_group_symop_operation_xyz
  'x, y, z'

loop_
  _atom_site_type_symbol
  _atom_site_label
  _atom_site_symmetry_multiplicity
  _atom_site_fract_x
  _atom_site_fract_y
  _atom_site_fract_z
  _atom_site_occupancy
  N   N1        1.0  0.6479122846809975  0.4100961310986184  0.5755465349299049  1.0000
  C   C1        1.0  0.5889816612630132  0.42710595650924565  0.5725694920214262  1.0000
  C   C2        1.0  0.515544582404125  0.44835818193310395  0.5688741927970224  1.0000
  C   C3        1.0  0.47376070901856854  0.34716224951417907  0.5572211258193891  1.0000
  C   C4        1.0  0.39787136030579107  0.3572255504726445  0.5499991846497994  1.0000
  C   C5        1.0  0.35832452515572083  0.4380926362558293  0.6157365560269799  1.0000
  C   C6        1.0  0.2821391102621183  0.4294820525146763  0.6072930050702361  1.0000
  C   C7        1.0  0.24898092144208292  0.308134815052977  0.6119437852480196  1.0000
  C   C8        1.0  0.1772437030204229  0.3017611202875803  0.6047761380311736  1.0000
  C   C9        1.0  0.1376940235870819  0.41626205114172676  0.5933199701596619  1.0000
  C   C10       1.0  0.0638422361157416  0.40955012547922376  0.5859842527374379  1.0000
  N   N2        1.0  0.004470497215752  0.4041543274406043  0.5800867942981387  1.0000
  C   C11       1.0  0.170135695120123  0.5372988865923269  0.58941448281867  1.0000
  C   C12       1.0  0.24185737860365172  0.5439265951136403  0.5966441357549299  1.0000
  C   C13       1.0  0.38704293131904643  0.530401648650136  0.7056505868347345  1.0000
  N   N3        1.0  0.4440364965325151  0.5936112700054574  0.6852425918862985  1.0000
  C   C14       1.0  0.4878539384657391  0.5843233884719135  0.5721359532183887  1.0000
  H   H1        1.0  0.4961238377898715  0.2521003657538483  0.5451057655684146  1.0000
  H   H2        1.0  0.37313251255501956  0.28769766280891096  0.4916854801235102  1.0000
  H   H3        1.0  0.2784157788693877  0.21822289254242788  0.622970088790268  1.0000
  H   H4        1.0  0.15263246225699642  0.20753299511179413  0.6086690519562319  1.0000
  H   H5        1.0  0.1400158668532297  0.6265564199442981  0.5807003597444089  1.0000
  H   H6        1.0  0.2659871753496992  0.6385675284385048  0.5927357368778918  1.0000
  H   H7        1.0  0.3570597462720477  0.550807452587835  0.7900157265016277  1.0000
  H   H8        1.0  0.5306213835548913  0.6546392355075368  0.5778950409878105  1.0000
  H   H9        1.0  0.4581750968359162  0.6124118972960839  0.48148895070919395  1.0000
  C   C15       1.0  0.8261221812156962  0.025741406054861304  0.577879816940382  1.0000
  C   C16       1.0  0.7543368729572066  0.026940478558174386  0.5609410292733774  1.0000
  C   C17       1.0  0.7180432014653803  0.9102593446557607  0.5538738060748707  1.0000
  C   C18       1.0  0.7545051031177306  0.791693674253292  0.5609500466720336  1.0000
  C   C19       1.0  0.826267180954753  0.7884989275184421  0.5777648702770457  1.0000
  C   C20       1.0  0.8616393193057578  0.9060501776009933  0.5864741222904062  1.0000
  C   C21       1.0  0.6423276920304811  0.9114860293684303  0.5346155041091378  1.0000
  O   O1        1.0  0.6157439360371215  0.8272184761034949  0.4676163608457069  1.0000
  C   C22       1.0  0.5967698701895768  0.008210111986053592  0.5913739867243322  1.0000
  C   C23       1.0  0.5354745359471127  0.049210435130054186  0.5268129746704695  1.0000
  C   C24       1.0  0.4917779922111432  0.13921182300847623  0.5803171572391426  1.0000
  F   F1        1.0  0.4330659804788913  0.17886149121135886  0.5168503947341976  1.0000
  C   C25       1.0  0.5085401470806011  0.1882650843476601  0.6991350235706584  1.0000
  C   C26       1.0  0.5688479395738952  0.14702923694644876  0.7648980168572397  1.0000
  C   C27       1.0  0.6126868005425897  0.057097207613683976  0.7118003564407729  1.0000
  H   H10       1.0  0.9617093404218974  0.23095071776041642  0.6078507578280283  1.0000
  H   H11       1.0  0.7266531383388792  0.11891058584006964  0.551775427450073  1.0000
  H   H12       1.0  0.726651799329699  0.7016874192900245  0.5545430956206234  1.0000
  H   H13       1.0  0.9169804572109211  0.9043217782560804  0.5995319267007537  1.0000
  H   H14       1.0  0.8538994913880661  0.45989841524798597  0.5831291207756824  1.0000
  H   H15       1.0  0.5217538370809377  0.01240939341912961  0.43448039450460985  1.0000
  H   H16       1.0  0.4746953620260816  0.2578297562827718  0.7405828031158872  1.0000
  H   H17       1.0  0.5815050288598788  0.1843352308260533  0.8574306224702715  1.0000
  H   H18       1.0  0.6585454774577414  0.024787144870106248  0.7655361778893968  1.0000
  C   C28       1.0  0.8261409714615405  0.40700050995676884  0.19645479577587222  1.0000
  C   C29       1.0  0.7608213483401282  0.34940610515190507  0.19891967938956423  1.0000
  C   C30       1.0  0.7275796287104699  0.3216854264955107  0.08298740827022777  1.0000
  C   C31       1.0  0.7610151279774656  0.3495664401633396  0.9636678220109145  1.0000
  C   C32       1.0  0.82624841413032  0.4072397832835337  0.9591899020853685  1.0000
  C   C33       1.0  0.858378481870319  0.4358806209551438  0.07611672593578378  1.0000
  C   C34       1.0  0.6589533630023315  0.2595288898720285  0.08792604841693241  1.0000
  O   O2        1.0  0.6448818643718018  0.18055367885533924  0.18365555831329683  1.0000
  C   C35       1.0  0.6062932260890677  0.2869587073196893  0.9843366157925879  1.0000
  C   C36       1.0  0.6010259410856813  0.4104238808816265  0.9163972535419385  1.0000
  C   C37       1.0  0.5506720948562037  0.4354435565800354  0.8200567743539442  1.0000
  C   C38       1.0  0.5043733731334696  0.3385469688536631  0.7904333673963806  1.0000
  C   C39       1.0  0.5089171554364965  0.21528741418919273  0.8592817031873028  1.0000
  C   C40       1.0  0.5592648120073458  0.19014063752936017  0.955694528045663  1.0000
  O   O3        1.0  0.45485158769646694  0.36853295501628147  0.6928137591333376  1.0000
  C   C41       1.0  0.40467125222083883  0.2796044113696097  0.6528159058873841  1.0000
  H   H19       1.0  0.9495164099045732  0.5151877298760883  0.3991132468319947  1.0000
  H   H20       1.0  0.7353434688200261  0.3270888508013654  0.29113281542250546  1.0000
  H   H21       1.0  0.7364158917927505  0.32489531776027536  0.8743043510152444  1.0000
  H   H22       1.0  0.9087013835869462  0.48036722118846686  0.07339512313846286  1.0000
  H   H23       1.0  0.8513886114073449  0.4288797231337107  0.6300374543339888  1.0000
  H   H24       1.0  0.6353335089597872  0.4881059540737793  0.9386463385695993  1.0000
  H   H25       1.0  0.5474121736341979  0.5309610122182815  0.7684370103009419  1.0000
  H   H26       1.0  0.4738194235966416  0.13830432400065074  0.8391192271921031  1.0000
  H   H27       1.0  0.5618562509333772  0.0944524463284222  0.007192615556241622  1.0000
  H   H28       1.0  0.3723642030299985  0.3288397757619246  0.57431366415581  1.0000
  H   H29       1.0  0.3710694054455623  0.24795009665437706  0.7359426366053334  1.0000
  H   H30       1.0  0.4303019621646564  0.1938539896031033  0.6144995163029492  1.0000
  Zn  Zn1       1.0  0.7508072886401203  0.4083779679171251  0.5768642651618154  1.0000
  Zn  Zn2       1.0  0.9015754989407213  0.4058618240058143  0.5787797355084259  1.0000
  C   C42       1.0  0.8262255772975594  0.40202071246184623  0.8150173815276858  1.0000
  C   C43       1.0  0.8261588569969452  0.41222069070814693  0.3406267672784655  1.0000
  C   C44       1.0  0.8262355133105845  0.6443199334268639  0.572611394827272  1.0000
  C   C45       1.0  0.8261488692503692  0.1699199102602047  0.5830328227988009  1.0000
  O   O4        1.0  0.8833806085427665  0.41301210159225077  0.3897391098098366  1.0000
  O   O5        1.0  0.8834334085920511  0.3993186266907962  0.7673584629713888  1.0000
  O   O6        1.0  0.883440660942751  0.594978325207586  0.5716139036454664  1.0000
  O   O7        1.0  0.8833733047331402  0.21735241319408538  0.5854835711064204  1.0000
  O   O8        1.0  0.76900943139791  0.5968873795889023  0.5701604289033335  1.0000
  O   O9        1.0  0.7690021793309695  0.4012292414150851  0.7659049187488469  1.0000
  O   O10       1.0  0.768949379098914  0.41492267056820675  0.38828400419961917  1.0000
  O   O11       1.0  0.7689420752984228  0.21926297291146524  0.5840285628650543  1.0000
