data_image0
_chemical_formula_structural       NC12NC2H8C6SCOC6H10C6NCOC6H11Zn2C4O8
_chemical_formula_sum              "N3 C44 H29 S1 O10 Zn2"
_cell_length_a       17.80743265337812
_cell_length_b       10.302038109246572
_cell_length_c       10.299662537453274
_cell_angle_alpha    85.5465134691658
_cell_angle_beta     91.52043180893111
_cell_angle_gamma    89.45358301258409

_space_group_name_H-M_alt    "P 1"
_space_group_IT_number       1

loop_
  _space_group_symop_operation_xyz
  'x, y, z'

loop_
  _atom_site_type_symbol
  _atom_site_label
  _atom_site_symmetry_multiplicity
  _atom_site_fract_x
  _atom_site_fract_y
  _atom_site_fract_z
  _atom_site_occupancy
  N   N1        1.0  0.7078638058961819  0.4068178722203011  0.6015511361864809  1.0000
  C   C1        1.0  0.6570583225740032  0.43639277116091213  0.5328571544201739  1.0000
  C   C2        1.0  0.5938512850269185  0.47318179743317956  0.4474104887454933  1.0000
  C   C3        1.0  0.60560429075227  0.527232264402866  0.3207994325012531  1.0000
  C   C4        1.0  0.5443040192926921  0.5625172528590867  0.2377485110852826  1.0000
  C   C5        1.0  0.4710965728602939  0.5440153983968998  0.28064878633316614  1.0000
  C   C6        1.0  0.458366711615062  0.4898459989284627  0.4077279653405763  1.0000
  C   C7        1.0  0.5205243018946197  0.4545642691667038  0.4907623756218742  1.0000
  C   C8        1.0  0.3805904839816976  0.4702293194115983  0.45348835377876884  1.0000
  C   C9        1.0  0.36179356800507284  0.49736634514572065  0.5805364917748352  1.0000
  C   C10       1.0  0.28855617813890894  0.47890604033594975  0.6234773362092854  1.0000
  C   C11       1.0  0.233172582680699  0.43305421712338044  0.5402079692711572  1.0000
  C   C12       1.0  0.15779830996528393  0.4140407481879125  0.5845496514803168  1.0000
  N   N2        1.0  0.09720273237623421  0.3987551979328907  0.6201973135604479  1.0000
  C   C13       1.0  0.25127790635368225  0.40574813683827093  0.41370277306042635  1.0000
  C   C14       1.0  0.32446247588717214  0.42422330962434596  0.37050604469572757  1.0000
  H   H1        1.0  0.6620769958978248  0.5420640447870138  0.28636482916914585  1.0000
  H   H2        1.0  0.5535220541584859  0.6046370670575354  0.13997623361071287  1.0000
  H   H3        1.0  0.42447086644257803  0.5736658426626637  0.21506275242895634  1.0000
  H   H4        1.0  0.5120044150874391  0.411059521344288  0.5884099953433917  1.0000
  H   H5        1.0  0.4034685090680925  0.534514634227562  0.6461150998592251  1.0000
  H   H6        1.0  0.2751045177616411  0.500713398130082  0.7214892661761017  1.0000
  H   H7        1.0  0.2088862638912838  0.36986668626119057  0.3485373126207707  1.0000
  H   H8        1.0  0.3373854262906644  0.40088067185936715  0.2727972136678263  1.0000
  C   C15       1.0  0.9024657175852987  0.02150952259786698  0.6108308101817952  1.0000
  C   C16       1.0  0.8382534762828341  0.02763847766759442  0.5282348978429388  1.0000
  C   C17       1.0  0.8066575721808209  0.9137223419269122  0.4866716023453459  1.0000
  C   C18       1.0  0.8384951181960502  0.7925008954027913  0.5281924636044488  1.0000
  C   C19       1.0  0.9026080338067956  0.7840534388242525  0.6109292016137737  1.0000
  C   C20       1.0  0.9343013729165804  0.8992171625602584  0.6517362624861842  1.0000
  S   S1        1.0  0.7251515765527206  0.9229834107955833  0.38015762725463453  1.0000
  C   C21       1.0  0.7804034671235991  0.9303882834465808  0.23637973504005494  1.0000
  O   O1        1.0  0.7985239208255144  0.8247625761592206  0.19089686630722302  1.0000
  C   C22       1.0  0.8051886555942965  0.05606560997021415  0.17206827969563832  1.0000
  C   C23       1.0  0.8583172256013187  0.05734249188938145  0.07310476086864459  1.0000
  C   C24       1.0  0.882470122496507  0.17520150212814056  0.012537535076603712  1.0000
  C   C25       1.0  0.8539010156863632  0.29301568788399335  0.04967111196368079  1.0000
  C   C26       1.0  0.8009985603907633  0.29320721098965086  0.14729239699828978  1.0000
  C   C27       1.0  0.776595215401562  0.17565690549765356  0.20816780540885382  1.0000
  H   H9        1.0  0.023411243881656718  0.21726292686233717  0.766679019990484  1.0000
  H   H10       1.0  0.8126986243960542  0.12070141547596225  0.49573479810948506  1.0000
  H   H11       1.0  0.8131823576368827  0.7052854685022165  0.4952154202242802  1.0000
  H   H12       1.0  0.9838048110020393  0.8935718500762577  0.715408881038377  1.0000
  H   H13       1.0  0.9271148095378664  0.4535245988690084  0.6420698684852404  1.0000
  H   H14       1.0  0.8815606829598231  0.9673083412777489  0.042919922175764125  1.0000
  H   H15       1.0  0.923460845626961  0.17513514865816315  0.9368019726752244  1.0000
  H   H16       1.0  0.872685489568551  0.3841490079325296  0.002695783034270205  1.0000
  H   H17       1.0  0.7787399230520805  0.38460451317389643  0.17576372205462087  1.0000
  H   H18       1.0  0.7351645706404394  0.17912050079306407  0.28274994549765986  1.0000
  C   C28       1.0  0.9025886037332089  0.40292089731751046  0.22950650418975016  1.0000
  C   C29       1.0  0.9792835429074638  0.43369947893243643  0.22936946224668175  1.0000
  C   C30       1.0  0.018139563565149563  0.44731645161197076  0.11262741299324186  1.0000
  C   C31       1.0  0.9791520288528451  0.4333922033094404  0.9942198300165725  1.0000
  C   C32       1.0  0.9024851442157511  0.4026420380838167  0.9922534719196356  1.0000
  C   C33       1.0  0.8647003402355936  0.38713423856580875  0.11048896271440012  1.0000
  N   N3        1.0  0.09637624214415408  0.48077346657346953  0.1158949419937132  1.0000
  C   C34       1.0  0.14953839317997653  0.4398320498104229  0.024223185824250537  1.0000
  O   O2        1.0  0.1358178882270311  0.34158154939831076  0.9620027396093671  1.0000
  C   C35       1.0  0.2216801678818474  0.5086499812927254  0.005336189086912357  1.0000
  C   C36       1.0  0.2307673604013034  0.6365014127181028  0.04214057554480877  1.0000
  C   C37       1.0  0.2989330574829172  0.7006296546550845  0.023222428776070725  1.0000
  C   C38       1.0  0.3585580311476644  0.6383824878815247  0.9670958162250258  1.0000
  C   C39       1.0  0.35008071132557017  0.5119644641097629  0.929314843342699  1.0000
  C   C40       1.0  0.28204301975396984  0.44737664854978787  0.9479099861986562  1.0000
  H   H19       1.0  0.7577433818768085  0.3460716326892621  0.43692728633730193  1.0000
  H   H20       1.0  0.009385378350120321  0.4462921226524592  0.3202330549780201  1.0000
  H   H21       1.0  0.008252691713638516  0.44874967407433863  0.9035022280217975  1.0000
  H   H22       1.0  0.8055795581270231  0.3633904243284014  0.10973060598141027  1.0000
  H   H23       1.0  0.8728334904818918  0.3925316089339057  0.6639085401998304  1.0000
  H   H24       1.0  0.116887885139215  0.5275412341414285  0.19580553797071198  1.0000
  H   H25       1.0  0.18512944994886782  0.6879696484166975  0.08373481257426607  1.0000
  H   H26       1.0  0.30541407566228895  0.798951441055276  0.05166049121389116  1.0000
  H   H27       1.0  0.41124405268631237  0.6882573791156565  0.9525076470929057  1.0000
  H   H28       1.0  0.396274560025506  0.4639012090774788  0.8855506606537222  1.0000
  H   H29       1.0  0.27684935421162304  0.34925077075902133  0.9181585667057659  1.0000
  Zn  Zn1       1.0  0.820218611570696  0.4044876894032958  0.6069395067720122  1.0000
  Zn  Zn2       1.0  0.9848479207943647  0.4010747859728252  0.6148195347868166  1.0000
  C   C41       1.0  0.902502039857076  0.3975223645900956  0.8480772205990175  1.0000
  C   C42       1.0  0.9025662905433208  0.4080417116950361  0.37368203468877126  1.0000
  C   C43       1.0  0.9025779472744718  0.6399183700962583  0.6057351614170472  1.0000
  C   C44       1.0  0.9024903266489733  0.16564414740185351  0.6160241602200787  1.0000
  O   O3        1.0  0.965034765853517  0.40845946033893066  0.4250590886178207  1.0000
  O   O4        1.0  0.9649834008526779  0.39451332186212595  0.8026805516249034  1.0000
  O   O5        1.0  0.9650438546631067  0.5902511787901945  0.606987584086327  1.0000
  O   O6        1.0  0.9649742558812008  0.21272161389903443  0.6207519560928398  1.0000
  O   O7        1.0  0.8400922203039577  0.5928408626431592  0.6010070827700913  1.0000
  O   O8        1.0  0.8400317667905783  0.3971045656681822  0.7966999812634319  1.0000
  O   O9        1.0  0.8400831320447779  0.4110506594697214  0.4190769568334971  1.0000
  O   O10       1.0  0.8400226220544467  0.215312803707725  0.614769921676176  1.0000
