data_image0
_chemical_formula_structural       NC11NC3H8C7OC6OCH12C7OC4NC3H9Zn2C4O8
_chemical_formula_sum              "N3 C46 H29 O11 Zn2"
_cell_length_a       17.807433833752565
_cell_length_b       10.299359160628079
_cell_length_c       10.299375074045738
_cell_angle_alpha    85.54493941547133
_cell_angle_beta     88.51814048155188
_cell_angle_gamma    90.7076958246699

_space_group_name_H-M_alt    "P 1"
_space_group_IT_number       1

loop_
  _space_group_symop_operation_xyz
  'x, y, z'

loop_
  _atom_site_type_symbol
  _atom_site_label
  _atom_site_symmetry_multiplicity
  _atom_site_fract_x
  _atom_site_fract_y
  _atom_site_fract_z
  _atom_site_occupancy
  N   N1        1.0  0.7078428312223137  0.43906902905098555  0.5347354603550551  1.0000
  C   C1        1.0  0.6570109309597102  0.4043162343411808  0.6012972021705905  1.0000
  C   C2        1.0  0.5937709226299296  0.36108662347764975  0.6840915146219311  1.0000
  C   C3        1.0  0.6054752450884527  0.2974883601954601  0.8068088608604849  1.0000
  C   C4        1.0  0.5441431695392631  0.2559394323105959  0.887319314074207  1.0000
  C   C5        1.0  0.4709523091724625  0.27767524876287797  0.8457532129609002  1.0000
  C   C6        1.0  0.4582712594599518  0.34142824135843597  0.7225756652908906  1.0000
  C   C7        1.0  0.3805126711357104  0.36449526283350053  0.678228926921411  1.0000
  C   C8        1.0  0.3617336914782098  0.34767144345684153  0.5486412862145664  1.0000
  C   C9        1.0  0.2885128824986877  0.36936854748303105  0.5070311077943426  1.0000
  C   C10       1.0  0.23312810718907012  0.4082083164969914  0.5941882925592896  1.0000
  C   C11       1.0  0.1577708190484595  0.43056441703507464  0.5512168272126714  1.0000
  N   N2        1.0  0.09718893223507082  0.44853706101720925  0.5166708965253359  1.0000
  C   C12       1.0  0.2512156071234202  0.42524291891792787  0.7232447974301881  1.0000
  C   C13       1.0  0.3243836294932952  0.40351078761441106  0.7651104126725712  1.0000
  C   C14       1.0  0.520460644756347  0.382972597996619  0.6420816281549517  1.0000
  H   H1        1.0  0.6619348014393728  0.28006082911186314  0.8401740922395895  1.0000
  H   H2        1.0  0.5533235634145885  0.20645009169625883  0.9820545775711029  1.0000
  H   H3        1.0  0.4243008571716194  0.2430943639273857  0.9091915533958408  1.0000
  H   H4        1.0  0.4034092155083494  0.3160546931855457  0.47991863835712767  1.0000
  H   H5        1.0  0.2750747521113864  0.355525181797699  0.4069908819436674  1.0000
  H   H6        1.0  0.20882304963186124  0.45563680469896783  0.7914525319401133  1.0000
  H   H7        1.0  0.3372936980700855  0.41889967171994313  0.8649680313081745  1.0000
  H   H8        1.0  0.5119790290847571  0.43382423832480876  0.5475808274445237  1.0000
  C   C15       1.0  0.9024310677306417  0.06242270146861473  0.52567560026038  1.0000
  C   C16       1.0  0.8402978775628345  0.06622431490642855  0.4441579856000246  1.0000
  C   C17       1.0  0.8094982262129472  0.9511706515400028  0.40192455771379865  1.0000
  C   C18       1.0  0.8404768118267862  0.8309670575161134  0.44440480029129015  1.0000
  C   C19       1.0  0.902607879908964  0.8251735206173308  0.5257416461228455  1.0000
  C   C20       1.0  0.9333309636695681  0.9414817382990882  0.5656930086134335  1.0000
  C   C21       1.0  0.7433698469885247  0.9573081408964322  0.3170556280897716  1.0000
  O   O1        1.0  0.6956272085536703  0.04501549425478468  0.3308377651253438  1.0000
  C   C22       1.0  0.731400838904968  0.8640170274669863  0.21655930591226213  1.0000
  C   C23       1.0  0.7925114916870318  0.8121782721298959  0.14966613350161095  1.0000
  C   C24       1.0  0.780442777647275  0.7255341631270559  0.05414033325340628  1.0000
  C   C25       1.0  0.7074614631506432  0.6898581253300257  0.02276233860831356  1.0000
  C   C26       1.0  0.6460980249899814  0.7427260009599981  0.08835542670702545  1.0000
  C   C27       1.0  0.6580980385885659  0.8294273112734298  0.18393083786844389  1.0000
  O   O2        1.0  0.6983688232776895  0.6024463038257354  0.926281929493542  1.0000
  C   C28       1.0  0.627574268906485  0.5578971130396743  0.8846966820958877  1.0000
  H   H9        1.0  0.019479952930713917  0.26248201901798573  0.6799266909653474  1.0000
  H   H10       1.0  0.8161389044669425  0.15897723908210115  0.4122927564440517  1.0000
  H   H11       1.0  0.8155389142411846  0.7417348716191091  0.41510914007825406  1.0000
  H   H12       1.0  0.9812584585071042  0.9377447571208714  0.6284407013563822  1.0000
  H   H13       1.0  0.9262496487224278  0.4954407688620506  0.5573641956673068  1.0000
  H   H14       1.0  0.8496264497330894  0.8396465095379769  0.1701482242086969  1.0000
  H   H15       1.0  0.828124694531903  0.6862640596654398  0.0037447781667381275  1.0000
  H   H16       1.0  0.5889517823187105  0.7175346100033027  0.06623010429030418  1.0000
  H   H17       1.0  0.6099963188972201  0.8686418063988931  0.233295066264247  1.0000
  H   H18       1.0  0.6369574898549187  0.489758547697654  0.8077833668515524  1.0000
  H   H19       1.0  0.594565691518375  0.6414586094182938  0.8437164168888875  1.0000
  H   H20       1.0  0.5960321521707549  0.505530122434009  0.967699225629512  1.0000
  C   C29       1.0  0.9025450401216764  0.4439411130819064  0.14432066948522349  1.0000
  C   C30       1.0  0.9603946663042845  0.5384608957382586  0.13320215753078424  1.0000
  C   C31       1.0  0.9889890193387215  0.5872001217199483  0.010364029764803773  1.0000
  C   C32       1.0  0.960272974886368  0.5382201955135257  0.8979824643465992  1.0000
  C   C33       1.0  0.9024938743477076  0.44365517814832334  0.9070965718095643  1.0000
  C   C34       1.0  0.8738295947565933  0.3973108632264397  0.030734451199512236  1.0000
  C   C35       1.0  0.05061344444698035  0.6860197209515431  0.998536741925959  1.0000
  O   O3        1.0  0.09862172350614129  0.6825020520174314  0.9066738950118798  1.0000
  C   C36       1.0  0.057764318864432784  0.7888414015177483  0.09084144657419047  1.0000
  C   C37       1.0  0.1292165966647012  0.8371410194104907  0.1192873404194319  1.0000
  C   C38       1.0  0.13651929769934346  0.9353326045602344  0.20517478391533328  1.0000
  C   C39       1.0  0.20989517345526498  0.9834696671471983  0.23456251659955685  1.0000
  N   N3        1.0  0.2688811098129791  0.022160825135544293  0.25818318102565785  1.0000
  C   C40       1.0  0.07237697709049407  0.9866250594722998  0.2623493876714946  1.0000
  C   C41       1.0  0.0011754377487411816  0.9403432341037643  0.2333911026952138  1.0000
  C   C42       1.0  0.993723385969406  0.8424180076399717  0.14778617372040337  1.0000
  H   H21       1.0  0.79416573805739  0.264126745132532  0.37270070834613644  1.0000
  H   H22       1.0  0.9838571037594428  0.5732335240177626  0.22030014109797058  1.0000
  H   H23       1.0  0.9826433327628515  0.575000859731069  0.8032029047444569  1.0000
  H   H24       1.0  0.8292320094333333  0.32444235393487997  0.03850218105861347  1.0000
  H   H25       1.0  0.8807307907994295  0.4065383842224155  0.5831826471747297  1.0000
  H   H26       1.0  0.17915158562661304  0.7976342979095896  0.07558586637256304  1.0000
  H   H27       1.0  0.07740617474368428  0.06262704603434743  0.32880262171604135  1.0000
  H   H28       1.0  0.9516149642331759  0.9808377827497625  0.2769264767773765  1.0000
  H   H29       1.0  0.9379144795294  0.809666617470884  0.12506918738384987  1.0000
  Zn  Zn1       1.0  0.820199704127423  0.44179782100597564  0.5295299020412629  1.0000
  Zn  Zn2       1.0  0.984832041397926  0.4457976451810399  0.5218870404615996  1.0000
  C   C43       1.0  0.9025006892018003  0.43853532955803676  0.7629151943919017  1.0000
  C   C44       1.0  0.9025328544748445  0.449061818928175  0.28850179226576134  1.0000
  C   C45       1.0  0.9025709315841697  0.6809992609563893  0.5205538788627779  1.0000
  C   C46       1.0  0.9024625555486386  0.2065963257893415  0.5308631795099163  1.0000
  O   O4        1.0  0.9650058775526276  0.4522926211052025  0.33398986755305193  1.0000
  O   O5        1.0  0.9649798005773124  0.4383393217683458  0.7116259900599633  1.0000
  O   O6        1.0  0.9650356798774883  0.6341319917789796  0.5159175522402346  1.0000
  O   O7        1.0  0.9649499420832695  0.25649995905670875  0.529698210602052  1.0000
  O   O8        1.0  0.8400817472611434  0.6310955057667795  0.5217187345021128  1.0000
  O   O9        1.0  0.840025868323868  0.43530439613309957  0.7174271032081128  1.0000
  O   O10       1.0  0.8400519454433506  0.4492576507992294  0.3397894192164135  1.0000
  O   O11       1.0  0.8399960099622386  0.2534649794250683  0.5354978596374447  1.0000
