data_image0
_chemical_formula_structural       NC12NC2H8C6NCOC6H11C7OC3FC3H9Zn2C4O8
_chemical_formula_sum              "N3 C44 H28 O10 F1 Zn2"
_cell_length_a       17.80743265337812
_cell_length_b       10.29965916528486
_cell_length_c       10.29938172300155
_cell_angle_alpha    85.59399439143571
_cell_angle_beta     91.51787109396743
_cell_angle_gamma    89.45195528988225

_space_group_name_H-M_alt    "P 1"
_space_group_IT_number       1

loop_
  _space_group_symop_operation_xyz
  'x, y, z'

loop_
  _atom_site_type_symbol
  _atom_site_label
  _atom_site_symmetry_multiplicity
  _atom_site_fract_x
  _atom_site_fract_y
  _atom_site_fract_z
  _atom_site_occupancy
  N   N1        1.0  0.7078871676264347  0.4062348037996195  0.601860366102273  1.0000
  C   C1        1.0  0.6570833590212893  0.43577252110698694  0.5331737906598066  1.0000
  C   C2        1.0  0.5938784045903656  0.47251529844845463  0.4477363378297601  1.0000
  C   C3        1.0  0.6056345031435358  0.5264971360302084  0.3211388418248482  1.0000
  C   C4        1.0  0.5443362626956154  0.5617370701844882  0.2380967818990174  1.0000
  C   C5        1.0  0.4711277708069502  0.543258429227895  0.2809924255114784  1.0000
  C   C6        1.0  0.45839480421972717  0.48915793037322897  0.40805801007412135  1.0000
  C   C7        1.0  0.5205503639414988  0.4539212451447612  0.49108355988740504  1.0000
  C   C8        1.0  0.3806174598481454  0.46956603761930804  0.4538134814577459  1.0000
  C   C9        1.0  0.3618163552072048  0.4967895103474871  0.5808640350366334  1.0000
  C   C10       1.0  0.288577918108718  0.47835245375224367  0.6238002550819415  1.0000
  C   C11       1.0  0.2331974422373296  0.43243790825773387  0.54052377875265  1.0000
  C   C12       1.0  0.1578220874720538  0.41344845655041085  0.5848606953729343  1.0000
  N   N2        1.0  0.0972256399897437  0.3981822144882754  0.6205045262416946  1.0000
  C   C13       1.0  0.25130694047525454  0.4050456888318652  0.4140161211604345  1.0000
  C   C14       1.0  0.3244925647502018  0.4234974543135295  0.3708240260090383  1.0000
  H   H1        1.0  0.662108047695384  0.5413102796044982  0.28670795240241964  1.0000
  H   H2        1.0  0.5535566808453138  0.603803969266949  0.1403350509402046  1.0000
  H   H3        1.0  0.4245036444852432  0.5728736794911811  0.2154137411858683  1.0000
  H   H4        1.0  0.5120281160738985  0.41046903415863345  0.5887203632710605  1.0000
  H   H5        1.0  0.40348882560710053  0.5339874204367754  0.6464484464475255  1.0000
  H   H6        1.0  0.2751230147318031  0.5002266899898555  0.7218142203312252  1.0000
  H   H7        1.0  0.20891773933782573  0.3691151529962413  0.34884509731532165  1.0000
  H   H8        1.0  0.3374187694974266  0.4000877986609257  0.2731128504159124  1.0000
  C   C15       1.0  0.9024939380632122  0.02084909509331423  0.6110639586752276  1.0000
  C   C16       1.0  0.9030273346590977  0.030083633936426768  0.4742759465029063  1.0000
  C   C17       1.0  0.9044038232501129  0.9178768057268736  0.4055074933728626  1.0000
  C   C18       1.0  0.903168831520867  0.7948904912278268  0.474579101335197  1.0000
  C   C19       1.0  0.9026260446554208  0.7835577741844838  0.6113124412018371  1.0000
  C   C20       1.0  0.9025560168830034  0.8971392060255725  0.6787957512067957  1.0000
  N   N3        1.0  0.903795077465369  0.9309259781788832  0.26541470751995333  1.0000
  C   C21       1.0  0.9390233366019665  0.8390478882772554  0.18737698191238517  1.0000
  O   O1        1.0  0.9908407414249799  0.7651696536130801  0.23683554749730318  1.0000
  C   C22       1.0  0.9172100626409168  0.8332666926090607  0.04796866150824175  1.0000
  C   C23       1.0  0.8477506957879589  0.8845486283921926  0.9982975469255093  1.0000
  C   C24       1.0  0.8276415773187007  0.8779174713669927  0.8668143007967908  1.0000
  C   C25       1.0  0.8762922659184439  0.819802203656777  0.783688939181824  1.0000
  C   C26       1.0  0.9450905345074884  0.7677460647340448  0.8319522015592828  1.0000
  C   C27       1.0  0.965486467423649  0.7740149301735769  0.9633447095807082  1.0000
  H   H9        1.0  0.900770733287375  0.2107084752989019  0.8690556608043434  1.0000
  H   H10       1.0  0.9029498696988162  0.12468064558436187  0.4204502267637691  1.0000
  H   H11       1.0  0.9013119578083815  0.7081246662192361  0.4216858137172981  1.0000
  H   H12       1.0  0.9021548736732037  0.889154822907539  0.7842443535872314  1.0000
  H   H13       1.0  0.9014183615829494  0.4517821339530496  0.6637151344754677  1.0000
  H   H14       1.0  0.8823674011127388  0.01749024520970721  0.2184490274931279  1.0000
  H   H15       1.0  0.8083726210708894  0.9280765243322319  0.06089302456074841  1.0000
  H   H16       1.0  0.774107667696633  0.9174490421860992  0.8294656416590791  1.0000
  H   H17       1.0  0.8605765214596507  0.8147439088529376  0.6819807390129871  1.0000
  H   H18       1.0  0.9826914040019299  0.722458697224651  0.7675079329347496  1.0000
  H   H19       1.0  0.01920887302935248  0.7332927688286772  0.9984837281338832  1.0000
  C   C28       1.0  0.9026232236795302  0.40210100647117164  0.22982354026013518  1.0000
  C   C29       1.0  0.9263745970484333  0.27115838214938304  0.2397807351113188  1.0000
  C   C30       1.0  0.9391703715064467  0.20555388184574142  0.1276333293917986  1.0000
  C   C31       1.0  0.9263027947993948  0.271452994395907  0.00451133979761531  1.0000
  C   C32       1.0  0.9024967449541086  0.4023058632950789  0.992552903390238  1.0000
  C   C33       1.0  0.8909840924002191  0.466972715438043  0.10581415357083501  1.0000
  C   C34       1.0  0.9634897432595396  0.06688571264404031  0.1379993268017068  1.0000
  O   O2        1.0  0.9403383779406201  0.9941221719791937  0.052686171511936664  1.0000
  C   C35       1.0  0.01407830718732761  0.010767601373019797  0.24504957291856688  1.0000
  C   C36       1.0  0.00800348407565532  0.8789355146176852  0.2899899186195163  1.0000
  C   C37       1.0  0.056033145287960995  0.8247362611704958  0.3898294744111275  1.0000
  F   F1        1.0  0.04935856985003473  0.6978101377467889  0.43313830467053127  1.0000
  C   C38       1.0  0.11091436859514858  0.9012229169322076  0.4449501241902012  1.0000
  C   C39       1.0  0.11807085526480532  0.03182721250968745  0.3999961345792893  1.0000
  C   C40       1.0  0.07019023878835062  0.08643514391161888  0.30023482264807  1.0000
  H   H20       1.0  0.8566978004089275  0.6486152417289306  0.41834768384147725  1.0000
  H   H21       1.0  0.9341488854012103  0.21960833363078947  0.33494229247745433  1.0000
  H   H22       1.0  0.9356055403770985  0.22071229957083194  0.9179149605952439  1.0000
  H   H23       1.0  0.8726732007451892  0.5679194276140878  0.09733382596157414  1.0000
  H   H24       1.0  0.8927460186616114  0.45224756396077437  0.6604996049376628  1.0000
  H   H25       1.0  0.9656719118603468  0.818296234086633  0.24857032195030282  1.0000
  H   H26       1.0  0.14811874500514444  0.8592459761520157  0.5221353170094092  1.0000
  H   H27       1.0  0.16099161212177138  0.09070661087218412  0.4420823143805006  1.0000
  H   H28       1.0  0.07759389294635977  0.18723854079467284  0.26536069146920216  1.0000
  Zn  Zn1       1.0  0.8202418420734282  0.40390753528793577  0.6072481537018819  1.0000
  Zn  Zn2       1.0  0.9848709594576479  0.40049889265208516  0.6151273281237841  1.0000
  C   C41       1.0  0.9025181000065491  0.3970936544766883  0.8483789392229895  1.0000
  C   C42       1.0  0.9025964995320767  0.4073143748537802  0.3739967566419313  1.0000
  C   C43       1.0  0.9025980744802184  0.6393883163538863  0.6060901926245221  1.0000
  C   C44       1.0  0.9025164686002441  0.16501815389487406  0.6162855692812808  1.0000
  O   O3        1.0  0.9650634217581071  0.4077648011923858  0.4253727088827388  1.0000
  O   O4        1.0  0.9650008685089381  0.39405516744974367  0.8029827238956386  1.0000
  O   O5        1.0  0.965064606479056  0.5897111889503848  0.6073328069156212  1.0000
  O   O6        1.0  0.9649996276289762  0.21210879011871553  0.6210225258035702  1.0000
  O   O7        1.0  0.8401131177222634  0.59229763898592  0.6013529533264894  1.0000
  O   O8        1.0  0.8400493800304719  0.39664317773160196  0.7970028015700188  1.0000
  O   O9        1.0  0.8401119335806283  0.4103527657989472  0.4193912251614522  1.0000
  O   O10       1.0  0.8400481394306738  0.21469674546292072  0.6150411394458639  1.0000
