data_image0
_chemical_formula_structural       NC11NC3H8C7OC3OC4H12C7OC4NC3H9Zn2C4O8
_chemical_formula_sum              "N3 C46 H29 O11 Zn2"
_cell_length_a       17.807433833752565
_cell_length_b       10.299371110280156
_cell_length_c       10.299375074045738
_cell_angle_alpha    85.5574175690685
_cell_angle_beta     88.51814048155188
_cell_angle_gamma    90.69823053252264

_space_group_name_H-M_alt    "P 1"
_space_group_IT_number       1

loop_
  _space_group_symop_operation_xyz
  'x, y, z'

loop_
  _atom_site_type_symbol
  _atom_site_label
  _atom_site_symmetry_multiplicity
  _atom_site_fract_x
  _atom_site_fract_y
  _atom_site_fract_z
  _atom_site_occupancy
  N   N1        1.0  0.7077003438784812  0.43903943765198017  0.5350564567815186  1.0000
  C   C1        1.0  0.6568718846137096  0.404287357559608  0.6016104466944794  1.0000
  C   C2        1.0  0.5936361566014833  0.36105863562123464  0.684395116418248  1.0000
  C   C3        1.0  0.605346776150295  0.29746168010229157  0.8070982765303332  1.0000
  C   C4        1.0  0.5440188145082592  0.2559136065829082  0.8875994619069294  1.0000
  C   C5        1.0  0.4708258020009499  0.2776489760842764  0.8460382091499326  1.0000
  C   C6        1.0  0.45813843987785097  0.3414006577349087  0.7228748821200632  1.0000
  C   C7        1.0  0.3803775676057557  0.3644672048856552  0.6785332890433486  1.0000
  C   C8        1.0  0.3616002537344598  0.34764373145511884  0.5489418956423726  1.0000
  C   C9        1.0  0.2883772964474841  0.36934038932643376  0.5073365569433272  1.0000
  C   C10       1.0  0.2329886754741699  0.40817935968301344  0.5945024052447738  1.0000
  C   C11       1.0  0.1576291737765166  0.4305350005153572  0.5515359266140374  1.0000
  N   N2        1.0  0.09704550742771231  0.44850727492822995  0.5169940048758042  1.0000
  C   C12       1.0  0.2510744887519362  0.4252136118235206  0.7235627098267305  1.0000
  C   C13       1.0  0.3242446628974403  0.40348192739513977  0.7654234775348072  1.0000
  C   C14       1.0  0.5203237117197075  0.3829441601016088  0.6423901118015958  1.0000
  H   H1        1.0  0.6618080580630633  0.28003450737886704  0.8404596205523434  1.0000
  H   H2        1.0  0.5532041084992496  0.20642528361177992  0.9823236863909883  1.0000
  H   H3        1.0  0.42417777397653056  0.24306880233125527  0.909468836028239  1.0000
  H   H4        1.0  0.4032789082515155  0.3160276313151611  0.48021219540339555  1.0000
  H   H5        1.0  0.2749405367410648  0.3554973083005235  0.40729324321373483  1.0000
  H   H6        1.0  0.20867892185362444  0.45560687261883426  0.7917772239480052  1.0000
  H   H7        1.0  0.3371532077660717  0.41887049506094565  0.865284528790184  1.0000
  H   H8        1.0  0.5118370610463121  0.4337947547737886  0.5479006539763913  1.0000
  C   C15       1.0  0.9023258734795642  0.06240085500160242  0.52591258256191  1.0000
  C   C16       1.0  0.8936790733153637  0.07153145996239973  0.39032423257653615  1.0000
  C   C17       1.0  0.8884692432614271  0.9589290632067926  0.3221447845703924  1.0000
  C   C18       1.0  0.8937163424098081  0.8362643631495159  0.39063359959767885  1.0000
  C   C19       1.0  0.9024271620371453  0.8251360443703976  0.5261487436076282  1.0000
  C   C20       1.0  0.9064848270769394  0.9387957080489785  0.593050896927517  1.0000
  C   C21       1.0  0.880122311809731  0.9684614274190851  0.17878035730803687  1.0000
  O   O1        1.0  0.910922714158325  0.88419685726478  0.11332645781004524  1.0000
  C   C22       1.0  0.8368255169255293  0.0735056781549166  0.10967585175244077  1.0000
  C   C23       1.0  0.8578332437072995  0.11922664129802207  0.9815546053146278  1.0000
  C   C24       1.0  0.8172025496257652  0.217279219530367  0.9140565085686561  1.0000
  O   O2        1.0  0.841196760774646  0.25971975161485106  0.7868414573978884  1.0000
  C   C25       1.0  0.805391621583679  0.35836624515980375  0.7070649153196653  1.0000
  C   C26       1.0  0.7541779087102664  0.26958238899212494  0.9754703232972677  1.0000
  C   C27       1.0  0.7323989883013199  0.22355343185855991  0.10211023907910732  1.0000
  C   C28       1.0  0.773163053988801  0.1257856939078068  0.16884994658883912  1.0000
  H   H9        1.0  0.9197897398538136  0.252537867323277  0.7815036301676752  1.0000
  H   H10       1.0  0.8918224492032316  0.16644165178188608  0.3373789383909529  1.0000
  H   H11       1.0  0.8902657769856529  0.7493408904169082  0.33806952975572835  1.0000
  H   H12       1.0  0.9131513599730664  0.9309528911753098  0.6975795574651309  1.0000
  H   H13       1.0  0.9063983725410837  0.4934289925925265  0.578053056467301  1.0000
  H   H14       1.0  0.9064104701348075  0.07952976467486739  0.9339267052734255  1.0000
  H   H15       1.0  0.8360443375738011  0.37223981319821076  0.6117689618601951  1.0000
  H   H16       1.0  0.8064952458934523  0.45183124001255837  0.7540342915912621  1.0000
  H   H17       1.0  0.7465173919650198  0.32870904471072904  0.6900313522974786  1.0000
  H   H18       1.0  0.7215490274229313  0.3453082367479281  0.9260939327585511  1.0000
  H   H19       1.0  0.6835379096157257  0.26340529235440635  0.148529536008984  1.0000
  H   H20       1.0  0.7544154913807535  0.09014354940905966  0.26610146834876924  1.0000
  C   C29       1.0  0.9024020703754723  0.44391142149883756  0.14464275267092663  1.0000
  C   C30       1.0  0.96024233781816  0.5384292605565539  0.1335453241474065  1.0000
  C   C31       1.0  0.9888318650084503  0.5871674843195489  0.010718068074899056  1.0000
  C   C32       1.0  0.9601206702328292  0.5381885652813096  0.8983255772730168  1.0000
  C   C33       1.0  0.9023509329129386  0.4436254924448997  0.9074185912150803  1.0000
  C   C34       1.0  0.8736912420373072  0.39728213049544925  0.03104613311657145  1.0000
  C   C35       1.0  0.05044650563665387  0.6859850515359092  0.9989128227771529  1.0000
  O   O3        1.0  0.09845513299272945  0.6824674549351901  0.9070491912174905  1.0000
  C   C36       1.0  0.05758719931374112  0.7888046177925752  0.09124046266431884  1.0000
  C   C37       1.0  0.12903469479702334  0.8371032425062306  0.11969713014475869  1.0000
  C   C38       1.0  0.13632767353351882  0.9352928085545162  0.20560647609794724  1.0000
  C   C39       1.0  0.20969878306763312  0.9834288813049976  0.23500494615804257  1.0000
  N   N3        1.0  0.2686808884761569  0.022119243691832047  0.2586342409717062  1.0000
  C   C40       1.0  0.07218027427624363  0.9865842087461552  0.26279252106672457  1.0000
  C   C41       1.0  0.0009833174626607821  0.9403033350650878  0.23382391254080592  1.0000
  C   C42       1.0  0.9935409616083516  0.8423801222256533  0.1481971405222493  1.0000
  H   H21       1.0  0.7940405723714183  0.2641007510501403  0.3729826824277078  1.0000
  H   H22       1.0  0.9837013323116942  0.5732011738107898  0.22065106404121249  1.0000
  H   H23       1.0  0.9824873863249071  0.5749684731825904  0.8035542219067642  1.0000
  H   H24       1.0  0.8291008716843706  0.32441511959006153  0.03879760904301688  1.0000
  H   H25       1.0  0.8805915244304641  0.4065094617470486  0.5834963873678021  1.0000
  H   H26       1.0  0.1789735954599707  0.7975973333771724  0.07598684379203946  1.0000
  H   H27       1.0  0.07720194670237901  0.06258463248872426  0.3292627079923338  1.0000
  H   H28       1.0  0.951418834437781  0.9807970510266755  0.27736831927195493  1.0000
  H   H29       1.0  0.9377352979999943  0.8096294055193627  0.12547284871320374  1.0000
  Zn  Zn1       1.0  0.8200569465961918  0.44176817349515796  0.5298515071476777  1.0000
  Zn  Zn2       1.0  0.9846888878298743  0.4457679154223304  0.522209537762371  1.0000
  C   C43       1.0  0.9023582547014533  0.4385057491334281  0.7632360717722133  1.0000
  C   C44       1.0  0.9023893777093386  0.44903202204866366  0.28882501766788704  1.0000
  C   C45       1.0  0.9024044898674466  0.6809646947758554  0.5209288398582284  1.0000
  C   C46       1.0  0.902343086154142  0.20657151469786905  0.5311323209485437  1.0000
  O   O4        1.0  0.9648620808939049  0.45226275779110403  0.3343138136127224  1.0000
  O   O5        1.0  0.9648373854843935  0.43830974537422085  0.7119468237190925  1.0000
  O   O6        1.0  0.9648738786558095  0.6340983893243228  0.5162820590978914  1.0000
  O   O7        1.0  0.9648255315525184  0.2564741218029791  0.5299784834649701  1.0000
  O   O8        1.0  0.8399202466927467  0.6310619657510104  0.5220825640460762  1.0000
  O   O9        1.0  0.839883753729733  0.4352748821457766  0.7177472599016037  1.0000
  O   O10       1.0  0.8399084492878344  0.44922784989285125  0.34011268830048125  1.0000
  O   O11       1.0  0.8398718999356174  0.2534392045792502  0.5357774555226804  1.0000
