data_image0
_chemical_formula_structural       NC10NC3NCH9C7OC6H10C6SCOC6H10Zn2C4O8
_chemical_formula_sum              "N3 C44 H29 O10 S1 Zn2"
_cell_length_a       19.437513618241372
_cell_length_b       10.299379429549807
_cell_length_c       10.302041481415108
_cell_angle_alpha    85.5191038852169
_cell_angle_beta     90.34339533155027
_cell_angle_gamma    89.52020702266324

_space_group_name_H-M_alt    "P 1"
_space_group_IT_number       1

loop_
  _space_group_symop_operation_xyz
  'x, y, z'

loop_
  _atom_site_type_symbol
  _atom_site_label
  _atom_site_symmetry_multiplicity
  _atom_site_fract_x
  _atom_site_fract_y
  _atom_site_fract_z
  _atom_site_occupancy
  N   N1        1.0  0.647865138318388  0.4110557717141108  0.5755109482973582  1.0000
  C   C1        1.0  0.5889314657716203  0.42806790875520195  0.5725304737441406  1.0000
  C   C2        1.0  0.5154905730712794  0.4493230065395659  0.5688308818686933  1.0000
  C   C3        1.0  0.47372996685182744  0.348132471489381  0.5572044366554834  1.0000
  C   C4        1.0  0.3978397676733502  0.3582007012160948  0.5499816193547333  1.0000
  C   C5        1.0  0.3582644873801329  0.439026676255853  0.61568579169111  1.0000
  C   C6        1.0  0.2820823533935067  0.43042141158486746  0.6072460808820064  1.0000
  C   C7        1.0  0.2489488130983643  0.3090685004447944  0.6119248478889798  1.0000
  C   C8        1.0  0.17721418347225382  0.30269934134872867  0.6047602371411982  1.0000
  C   C9        1.0  0.1376424802193393  0.4172102350189473  0.5932791551763374  1.0000
  C   C10       1.0  0.0637933818553166  0.41050294727212666  0.5859465904913685  1.0000
  N   N2        1.0  0.004423804793746  0.40511087783163524  0.580051666615049  1.0000
  C   C11       1.0  0.1700594382242513  0.5382522513516377  0.5893455975955442  1.0000
  C   C12       1.0  0.24177846878974132  0.5448753892943723  0.5965721403163142  1.0000
  C   C13       1.0  0.3869478263826054  0.5312790601291861  0.705558782251366  1.0000
  N   N3        1.0  0.4439316925200253  0.5945033660520185  0.6851400101331022  1.0000
  C   C14       1.0  0.4877708319728415  0.5852890447129375  0.5720594933707797  1.0000
  H   H1        1.0  0.4961151564868684  0.253076420066775  0.5451143314645577  1.0000
  H   H2        1.0  0.3731256897273624  0.2887093297197194  0.49169683785553886  1.0000
  H   H3        1.0  0.2784006102388454  0.21914743054349706  0.6229702861342379  1.0000
  H   H4        1.0  0.15262203354175014  0.2084666268842914  0.6086748238041655  1.0000
  H   H5        1.0  0.1399224038313621  0.6275174099692167  0.5806120073746837  1.0000
  H   H6        1.0  0.2658890907929219  0.639520930989637  0.5926419734225674  1.0000
  H   H7        1.0  0.3569456294566826  0.5516302895354579  0.789901220167061  1.0000
  H   H8        1.0  0.5305225181325522  0.6556026661364975  0.5778005771774566  1.0000
  H   H9        1.0  0.4581019241827339  0.6134372800768928  0.4814249429988968  1.0000
  C   C15       1.0  0.8261552711426654  0.026691160946875625  0.5779354958434246  1.0000
  C   C16       1.0  0.8678572081998911  0.01606966199002091  0.6901875560695601  1.0000
  C   C17       1.0  0.8882455292816683  0.8934836925353188  0.7476470199274496  1.0000
  C   C18       1.0  0.8677734742113121  0.7808490785503356  0.6899102682307272  1.0000
  C   C19       1.0  0.8261402701166065  0.789465338495123  0.5776384627113849  1.0000
  C   C20       1.0  0.8054232253610895  0.9128585825436395  0.5224974942824865  1.0000
  C   C21       1.0  0.9328772067089094  0.8821753153439429  0.8653870513988293  1.0000
  O   O1        1.0  0.9765243561496653  0.7906569914395415  0.8782963686985699  1.0000
  C   C22       1.0  0.9279901544322288  0.9745877882455757  0.9684868252430208  1.0000
  C   C23       1.0  0.9868371712722283  0.0030473128375734237  0.04078310978797184  1.0000
  C   C24       1.0  0.9825724925918761  0.08884488276704738  0.13919935240016612  1.0000
  C   C25       1.0  0.9195482495037848  0.14617963714428117  0.16714862920254736  1.0000
  C   C26       1.0  0.86059567757294  0.11741224962982999  0.09709460448084217  1.0000
  C   C27       1.0  0.8645840742147429  0.031698968521794546  0.9985871958330763  1.0000
  H   H10       1.0  0.748329421856323  0.2541308290096733  0.3649597379618299  1.0000
  H   H11       1.0  0.8851621404548282  0.10335503632875875  0.7322357045093153  1.0000
  H   H12       1.0  0.88387789441086  0.686264548941968  0.7335429751471827  1.0000
  H   H13       1.0  0.7732744984933406  0.9202428597531099  0.43595901472136256  1.0000
  H   H14       1.0  0.8106255354073238  0.4653600303032506  0.5338829074462448  1.0000
  H   H15       1.0  0.036194190094376966  0.9597863082322504  0.020368980580169338  1.0000
  H   H16       1.0  0.028177005195272997  0.11083648777689792  0.19386424779223665  1.0000
  H   H17       1.0  0.9163409605642749  0.21247785392129637  0.24343193934978613  1.0000
  H   H18       1.0  0.8116813000825897  0.16110394625656288  0.11951375494440808  1.0000
  H   H19       1.0  0.8180293051593125  0.009037252848618893  0.9470692473666038  1.0000
  C   C28       1.0  0.8261606652210681  0.40820730727133725  0.19650006747531434  1.0000
  C   C29       1.0  0.8576993960167317  0.5307871198989442  0.1859408318302067  1.0000
  C   C30       1.0  0.8736981329743909  0.5912500518303594  0.06373563072516997  1.0000
  C   C31       1.0  0.857764700750072  0.5303821447475523  0.9508364087232462  1.0000
  C   C32       1.0  0.8261348923236672  0.4079491629262635  0.9590739307915328  1.0000
  C   C33       1.0  0.8105473711639013  0.3474408170247396  0.08247781024474365  1.0000
  S   S1        1.0  0.9146023346278795  0.7471101666164137  0.05167309195285208  1.0000
  C   C34       1.0  0.9993555825959773  0.6758922511009424  0.05534799641638566  1.0000
  O   O2        1.0  0.02628127595628227  0.6522691954031592  0.9486396463050633  1.0000
  C   C35       1.0  0.037278223966645374  0.6439154321342935  0.17936764550584905  1.0000
  C   C36       1.0  0.09831301916469593  0.5691700805085789  0.1803658839430442  1.0000
  C   C37       1.0  0.1341726283100837  0.5376736211403998  0.29678665245360714  1.0000
  C   C38       1.0  0.1097277611792451  0.5804312111419998  0.4133964397005079  1.0000
  C   C39       1.0  0.049432422849700064  0.655005413540936  0.4137879468056769  1.0000
  C   C40       1.0  0.013367449850024027  0.6868794536688119  0.2976638233796052  1.0000
  H   H20       1.0  0.766612566677219  0.1772806351749392  0.4237093860797543  1.0000
  H   H21       1.0  0.8700578251187894  0.5795117248774191  0.2723935084706166  1.0000
  H   H22       1.0  0.8704147516604638  0.5787703376703615  0.8570072280269674  1.0000
  H   H23       1.0  0.7862348548882876  0.2529402724941896  0.08969769399215632  1.0000
  H   H24       1.0  0.8142971072073484  0.3612271366243225  0.6348821708271419  1.0000
  H   H25       1.0  0.1181872677942466  0.5343787839436083  0.09131373922729025  1.0000
  H   H26       1.0  0.18094119092751804  0.4799060085539668  0.2965574076999078  1.0000
  H   H27       1.0  0.13754936736993884  0.5559147453996431  0.503422175317283  1.0000
  H   H28       1.0  0.030626528454129165  0.6883917777336421  0.5042082748060868  1.0000
  H   H29       1.0  0.9671209810548648  0.7455804737095018  0.30112660886125475  1.0000
  Zn  Zn1       1.0  0.7507602726954159  0.4093367117874309  0.576828810217545  1.0000
  Zn  Zn2       1.0  0.9015286764755671  0.40681926395054835  0.5787444764281864  1.0000
  C   C41       1.0  0.8261383129209888  0.40282400682040986  0.8149331117092349  1.0000
  C   C42       1.0  0.8261522825997273  0.4133335801030795  0.3406403226564385  1.0000
  C   C43       1.0  0.8261397355819672  0.6452865852151779  0.5725205112628775  1.0000
  C   C44       1.0  0.8261508085203858  0.17086944214656952  0.5830529922804752  1.0000
  O   O3        1.0  0.8833652929253218  0.4140929796746795  0.38974209658245096  1.0000
  O   O4        1.0  0.8833550325530513  0.4001529429349082  0.7672849107274742  1.0000
  O   O5        1.0  0.8833554100274488  0.5959445537681922  0.5715350104315615  1.0000
  O   O6        1.0  0.8833648640069912  0.21830137902416924  0.5854918988673272  1.0000
  O   O7        1.0  0.7689240337141353  0.5978545975743079  0.5700813871178512  1.0000
  O   O8        1.0  0.7689236562082439  0.4020645471632627  0.765831217575532  1.0000
  O   O9        1.0  0.768933916679966  0.41600453917196223  0.3882868423837462  1.0000
  O   O10       1.0  0.7689334877557117  0.22021292919917568  0.5840367420191064  1.0000
