data_image0
_chemical_formula_structural       NC12NC2H8C7OC6H10C7OC4NC3H9Zn2C4O8
_chemical_formula_sum              "N3 C45 H27 O10 Zn2"
_cell_length_a       19.240039667572717
_cell_length_b       10.299379429549807
_cell_length_c       10.299375074045738
_cell_angle_alpha    85.51714373298503
_cell_angle_beta     89.99323599274587
_cell_angle_gamma    89.99618039744932

_space_group_name_H-M_alt    "P 1"
_space_group_IT_number       1

loop_
  _space_group_symop_operation_xyz
  'x, y, z'

loop_
  _atom_site_type_symbol
  _atom_site_label
  _atom_site_symmetry_multiplicity
  _atom_site_fract_x
  _atom_site_fract_y
  _atom_site_fract_z
  _atom_site_occupancy
  N   N1        1.0  0.6545169437709968  0.42190679902546235  0.5668855432374866  1.0000
  C   C1        1.0  0.5943685749558977  0.42190688304307233  0.5668854612672867  1.0000
  C   C2        1.0  0.5195505378192264  0.4219070003882994  0.5668853239150962  1.0000
  C   C3        1.0  0.4830725896450772  0.35739826916769224  0.6703247031411395  1.0000
  C   C4        1.0  0.4104018400316251  0.3572873481544754  0.6704112882062971  1.0000
  C   C5        1.0  0.3732183028929785  0.42190709304615615  0.5668850961904295  1.0000
  C   C6        1.0  0.410410444122586  0.4865270248608442  0.46335909865883007  1.0000
  C   C7        1.0  0.48308113107351613  0.4864158682872082  0.4634458063126037  1.0000
  C   C8        1.0  0.296013212462185  0.42190701441683776  0.5668850007979345  1.0000
  C   C9        1.0  0.2588267975642536  0.30862343621665556  0.6087971039634312  1.0000
  C   C10       1.0  0.1861561111373886  0.30873037780378176  0.6087057370767919  1.0000
  C   C11       1.0  0.1496809255397467  0.42190688521292063  0.5668850617560124  1.0000
  C   C12       1.0  0.07486288837314059  0.4219067713679827  0.5668853104679241  1.0000
  N   N2        1.0  0.0147145715093295  0.42190673046211846  0.5668855189111339  1.0000
  C   C13       1.0  0.1861532507993547  0.5350834684744665  0.5250643335156298  1.0000
  C   C14       1.0  0.2588239489783532  0.5351905902555965  0.5249728039641832  1.0000
  H   H1        1.0  0.5107841345224633  0.3074539466683519  0.7510870849101108  1.0000
  H   H2        1.0  0.3833051132414967  0.3081407305301218  0.7522889506501547  1.0000
  H   H3        1.0  0.3833206401268338  0.5356736695587341  0.3814813853547723  1.0000
  H   H4        1.0  0.5107993576453634  0.536360090412322  0.3826837003867247  1.0000
  H   H5        1.0  0.2859212829035303  0.21945078377592164  0.6399971895447181  1.0000
  H   H6        1.0  0.1584423819861214  0.22045656288378934  0.6409385242736425  1.0000
  H   H7        1.0  0.15843715650278786  0.6233572588505605  0.49283156087842706  1.0000
  H   H8        1.0  0.2859159424562912  0.6243633218948348  0.49377267358173405  1.0000
  C   C15       1.0  0.8346266694153539  0.04051481369008503  0.5670395867605285  1.0000
  C   C16       1.0  0.8767511046780055  0.03058477650240987  0.6787897919078487  1.0000
  C   C17       1.0  0.8973459159511672  0.908336778245008  0.7360045704288916  1.0000
  C   C18       1.0  0.8766665237904586  0.7953628064466799  0.6785134981773087  1.0000
  C   C19       1.0  0.8346115235395722  0.8032887513144522  0.56674266702112  1.0000
  C   C20       1.0  0.813684569159793  0.9263384636383389  0.511851177821139  1.0000
  C   C21       1.0  0.942429840536163  0.8977685232962536  0.853206862025615  1.0000
  O   O1        1.0  0.9865221016975599  0.8069775041573041  0.8655635594949207  1.0000
  C   C22       1.0  0.9374900454203773  0.9900959736819543  0.9563958578265277  1.0000
  C   C23       1.0  0.9969356563516489  0.019534198744540543  0.027961434202756097  1.0000
  C   C24       1.0  0.9926247170222982  0.1052572840102417  0.12645774559852663  1.0000
  C   C25       1.0  0.9289564609192437  0.16154024859980254  0.15521716385337359  1.0000
  C   C26       1.0  0.8694041552800088  0.131792323690473  0.0858957784312887  1.0000
  C   C27       1.0  0.8734359953212827  0.046148923805042985  0.9873117965552844  1.0000
  H   H9        1.0  0.7560124336851459  0.2666641673649339  0.3549994992546408  1.0000
  H   H10       1.0  0.8942314857391872  0.11815724030528463  0.7206285013294123  1.0000
  H   H11       1.0  0.8929340961322931  0.7010452952597194  0.7219524732109266  1.0000
  H   H12       1.0  0.7812101313380527  0.9331896813542205  0.42569958642236183  1.0000
  H   H13       1.0  0.8189396585344203  0.4789262609992759  0.5231732998310452  1.0000
  H   H14       1.0  0.046796988742719536  0.9770968457537514  0.0069132336856132515  1.0000
  H   H15       1.0  0.03869315831524234  0.12800739662087413  0.18055600970629027  1.0000
  H   H16       1.0  0.9257143182207046  0.22778237067371898  0.23156128382127195  1.0000
  H   H17       1.0  0.8199899261838235  0.17466768023736767  0.10894388611148076  1.0000
  H   H18       1.0  0.8264075116521383  0.022712748484408518  0.9363734073273171  1.0000
  C   C28       1.0  0.8346427171150762  0.4220441415239069  0.18550431493385555  1.0000
  C   C29       1.0  0.8881396072327815  0.5151604841168396  0.1770245565282187  1.0000
  C   C30       1.0  0.9145819836623824  0.5632060795203779  0.05548974943834373  1.0000
  C   C31       1.0  0.8880270819615204  0.5149227346408205  0.9417993328824248  1.0000
  C   C32       1.0  0.8345954485779729  0.4217594406199108  0.9482779818298388  1.0000
  C   C33       1.0  0.8080878191063876  0.3761105427265188  0.07060813006235067  1.0000
  C   C34       1.0  0.9715700859750793  0.6605305945248761  0.046474307653475044  1.0000
  O   O2        1.0  0.015985317435711632  0.6558452975595239  0.9568411880887924  1.0000
  C   C35       1.0  0.9781615581635976  0.7631820636651716  0.13906084857743806  1.0000
  C   C36       1.0  0.04425364306993629  0.8097457836123796  0.17079927004919493  1.0000
  C   C37       1.0  0.05098666109150196  0.9077632989853424  0.2569778487456038  1.0000
  C   C38       1.0  0.1188583826185976  0.9541176782772909  0.289747460389459  1.0000
  N   N3        1.0  0.1734196004821269  0.9913757595617769  0.31608677717291367  1.0000
  C   C39       1.0  0.991633979026488  0.9606174558512759  0.3111507154098181  1.0000
  C   C40       1.0  0.9257733896588951  0.9160655031729714  0.27891055755518646  1.0000
  C   C41       1.0  0.9189021387924722  0.8183179880671636  0.19300743256382047  1.0000
  H   H19       1.0  0.7344187584265308  0.24485897256134548  0.40894206962380064  1.0000
  H   H20       1.0  0.9098375127795889  0.549363782557392  0.2651944892899536  1.0000
  H   H21       1.0  0.9087141898723001  0.5511606990839182  0.8480400631395701  1.0000
  H   H22       1.0  0.7668458567208981  0.3043239770858004  0.07634158564584093  1.0000
  H   H23       1.0  0.8144702335506432  0.3851705662502214  0.6233721138709201  1.0000
  H   H24       1.0  0.09045978457183756  0.7690232876905714  0.12943445073469184  1.0000
  H   H25       1.0  0.9962688860045597  0.036499865315054336  0.37780037015741486  1.0000
  H   H26       1.0  0.8799134961393785  0.9577667539292105  0.32012617715500014  1.0000
  H   H27       1.0  0.8672787285022974  0.7869226262766056  0.16771634658891377  1.0000
  Zn  Zn1       1.0  0.7584622072157893  0.42190330903251794  0.5668930263444765  1.0000
  Zn  Zn2       1.0  0.9107693263895149  0.4218996223783167  0.5668886393252617  1.0000
  C   C42       1.0  0.8346029528971171  0.4166392426139778  0.8040994117800646  1.0000
  C   C43       1.0  0.8346302438567482  0.42716532742759905  0.32968238067632805  1.0000
  C   C44       1.0  0.8346111257568266  0.6591101647795685  0.5616233836432118  1.0000
  C   C45       1.0  0.8346220190519685  0.18469284484057202  0.5721584786639446  1.0000
  O   O3        1.0  0.892425815801057  0.42887697904970956  0.37806819397700075  1.0000
  O   O4        1.0  0.8924049603014385  0.41492381326449324  0.7557098953511148  1.0000
  O   O5        1.0  0.8924107807369837  0.6107221488913117  0.559908786569262  1.0000
  O   O6        1.0  0.892419943399256  0.23307865275128203  0.5738692053774954  1.0000
  O   O7        1.0  0.7768115382311037  0.6107242786622267  0.5599124602869079  1.0000
  O   O8        1.0  0.776805717765684  0.41492750345951923  0.7557134992126615  1.0000
  O   O9        1.0  0.776826573409144  0.4288806245689001  0.3780702363821844  1.0000
  O   O10       1.0  0.7768207009986542  0.2330822889447559  0.5738713451587028  1.0000
