data_image0
_chemical_formula_structural       NC11NC3H8C7OC4NC3H9C7OC6OCH12Zn2C4O8
_chemical_formula_sum              "N3 C46 H29 O11 Zn2"
_cell_length_a       17.807433833752565
_cell_length_b       10.299371701877257
_cell_length_c       10.299362532796529
_cell_angle_alpha    85.59861751689631
_cell_angle_beta     88.53944106115836
_cell_angle_gamma    90.69533246875125

_space_group_name_H-M_alt    "P 1"
_space_group_IT_number       1

loop_
  _space_group_symop_operation_xyz
  'x, y, z'

loop_
  _atom_site_type_symbol
  _atom_site_label
  _atom_site_symmetry_multiplicity
  _atom_site_fract_x
  _atom_site_fract_y
  _atom_site_fract_z
  _atom_site_occupancy
  N   N1        1.0  0.7073341101356184  0.4380171324581914  0.5351954590173564  1.0000
  C   C1        1.0  0.6565213776731953  0.4033113974990148  0.6017441550958342  1.0000
  C   C2        1.0  0.5933052118427267  0.360140322996785  0.6845222399127824  1.0000
  C   C3        1.0  0.6050448122077733  0.29662881076931713  0.807215655787259  1.0000
  C   C4        1.0  0.5437358586220945  0.2551367929892956  0.8877104541720129  1.0000
  C   C5        1.0  0.4705330241318594  0.2768432210395668  0.8461525083983898  1.0000
  C   C6        1.0  0.4578165750011335  0.34050913923712134  0.7229989593558381  1.0000
  C   C7        1.0  0.3800452273380275  0.36354480922696375  0.6786608903942997  1.0000
  C   C8        1.0  0.36123980584133775  0.34663136830945573  0.5490769875892281  1.0000
  C   C9        1.0  0.2880070179913962  0.3682990542304392  0.5074749573218014  1.0000
  C   C10       1.0  0.23263648352229652  0.4071984493246035  0.594636685050417  1.0000
  C   C11       1.0  0.1572668311629369  0.4295241705392918  0.5516736213932671  1.0000
  N   N2        1.0  0.09667500442188692  0.447472391757215  0.5171344450441311  1.0000
  C   C12       1.0  0.2507502809089699  0.42432229934205656  0.723689539061656  1.0000
  C   C13       1.0  0.3239303430481754  0.4026197644140759  0.7655469813002358  1.0000
  C   C14       1.0  0.5199828425464631  0.3819965972821775  0.6425205748569132  1.0000
  H   H1        1.0  0.6615139776645237  0.27922486937228186  0.8405743459463675  1.0000
  H   H2        1.0  0.5529435368786598  0.20571443169204184  0.9824271432134799  1.0000
  H   H3        1.0  0.4239000282838641  0.24230722218486123  0.9095780412303944  1.0000
  H   H4        1.0  0.4029042287914364  0.3149676268761572  0.4803505033225768  1.0000
  H   H5        1.0  0.2745485849333251  0.3543865219411173  0.40743739773320775  1.0000
  H   H6        1.0  0.20836886824543532  0.454762847516635  0.7919008284439053  1.0000
  H   H7        1.0  0.3368604750288949  0.41807765172098454  0.8654023412727554  1.0000
  H   H8        1.0  0.5114738188842984  0.43278138894603946  0.5480386833129474  1.0000
  C   C15       1.0  0.9019688323241948  0.061373419290162046  0.5260395939366471  1.0000
  C   C16       1.0  0.9055980764012891  0.07076034337003567  0.389209952751977  1.0000
  C   C17       1.0  0.9065755159758866  0.9583051995818191  0.3201740497744363  1.0000
  C   C18       1.0  0.9056074181733165  0.8354923522704155  0.38952690689065816  1.0000
  C   C19       1.0  0.9020474636756043  0.8241062685613643  0.5263011513706954  1.0000
  C   C20       1.0  0.9000511085458651  0.9376438566846952  0.593759459269871  1.0000
  C   C21       1.0  0.9111967457474046  0.968092565267794  0.17571349820352977  1.0000
  O   O1        1.0  0.9473461697573817  0.8832067150298067  0.11909215174599708  1.0000
  C   C22       1.0  0.8747960605543076  0.07409660578431865  0.09549206109107677  1.0000
  C   C23       1.0  0.9069528558109154  0.11948487094289661  0.9740332420790669  1.0000
  C   C24       1.0  0.872534003299342  0.2185279424685025  0.8968411913701613  1.0000
  C   C25       1.0  0.9061479077116043  0.265134971555566  0.7731286873776981  1.0000
  N   N3        1.0  0.9331719920943977  0.3025973626455545  0.6736816173756095  1.0000
  C   C26       1.0  0.8053973217491268  0.27208831481398543  0.9401263629099454  1.0000
  C   C27       1.0  0.7726060754326729  0.22647347904916804  0.05987510945794505  1.0000
  C   C28       1.0  0.8068092242203461  0.12772264002218137  0.137065769096141  1.0000
  H   H9        1.0  0.8962753284821225  0.25100226606876963  0.7842849044521456  1.0000
  H   H10       1.0  0.9085103607884474  0.16573850798435208  0.336189627338801  1.0000
  H   H11       1.0  0.9069177821151044  0.7486703186156959  0.3364552596754342  1.0000
  H   H12       1.0  0.8972536376175347  0.9296033425176378  0.6992453404203733  1.0000
  H   H13       1.0  0.9013122139236769  0.49228721066552567  0.5788591421877962  1.0000
  H   H14       1.0  0.9590472256052759  0.07864912099852162  0.9400405894104873  1.0000
  H   H15       1.0  0.7783057187680029  0.34862805874611724  0.8811452116142307  1.0000
  H   H16       1.0  0.7203832511874037  0.2673219395122639  0.09272074524099971  1.0000
  H   H17       1.0  0.7796816741112476  0.09238172958779045  0.22847813694814967  1.0000
  C   C29       1.0  0.9019495044733865  0.4426178954657911  0.14480617394553952  1.0000
  C   C30       1.0  0.830630400301535  0.38220519551653065  0.15138183508982395  1.0000
  C   C31       1.0  0.7943353268845651  0.3530501977801248  0.037542377935631865  1.0000
  C   C32       1.0  0.8308419793239308  0.38237389181404335  0.9161177772017206  1.0000
  C   C33       1.0  0.9020668004377491  0.4428617986850305  0.9075345916251361  1.0000
  C   C34       1.0  0.9371479202832501  0.4728889148999169  0.022439522347734497  1.0000
  C   C35       1.0  0.7194060434828321  0.2879327635453721  0.04679906082732921  1.0000
  O   O2        1.0  0.7040490619818681  0.20835311615974517  0.1433804746193421  1.0000
  C   C36       1.0  0.6619014554751708  0.31308750383976447  0.9465610527842876  1.0000
  C   C37       1.0  0.6561369917105048  0.4363202261314889  0.8790179594079208  1.0000
  C   C38       1.0  0.6011509871369097  0.45916451235991995  0.7858815153441534  1.0000
  C   C39       1.0  0.5506056776551992  0.3602725802800133  0.7591434835646282  1.0000
  C   C40       1.0  0.5555800982352818  0.23721422631576838  0.8276415094345464  1.0000
  C   C41       1.0  0.610559357355112  0.21424257699146976  0.9208506271925025  1.0000
  O   O3        1.0  0.49652771469055346  0.3881189058528527  0.6646776864544863  1.0000
  C   C42       1.0  0.4417430823012371  0.2970270796100305  0.6278152509379735  1.0000
  H   H18       1.0  0.036656800697695946  0.5561283239593275  0.3396999033095778  1.0000
  H   H19       1.0  0.8028124114179578  0.3587886608789437  0.2451984519543966  1.0000
  H   H20       1.0  0.8039836624386575  0.3566415259596256  0.8283009090950615  1.0000
  H   H21       1.0  0.9920928711455721  0.5195467536958458  0.01655099304566221  1.0000
  H   H22       1.0  0.929516131286394  0.4655864644789709  0.5767997225526051  1.0000
  H   H23       1.0  0.6935906861872193  0.5154806205969795  0.8991319420095341  1.0000
  H   H24       1.0  0.597581365451117  0.5545373303171652  0.7345166627985922  1.0000
  H   H25       1.0  0.5172635188955751  0.15871866574293314  0.8096645692326709  1.0000
  H   H26       1.0  0.6133990541816805  0.11867016402934238  0.9721360846911717  1.0000
  H   H27       1.0  0.4064605703915102  0.34486536945377577  0.5513854990868814  1.0000
  H   H28       1.0  0.4050551826782139  0.2639230541223434  0.7130556310392384  1.0000
  H   H29       1.0  0.46973924710493214  0.2123869138546326  0.5878310474551296  1.0000
  Zn  Zn1       1.0  0.8196894825918871  0.44074224377883  0.5299909237588412  1.0000
  Zn  Zn2       1.0  0.9843196177380621  0.4447366641600745  0.5223495625435841  1.0000
  C   C43       1.0  0.9020424094306626  0.4376419530716067  0.763360879307847  1.0000
  C   C44       1.0  0.9019684888437675  0.44783863715737904  0.28897965157795835  1.0000
  C   C45       1.0  0.9020279360889145  0.6799317911617728  0.5210767868218402  1.0000
  C   C46       1.0  0.9019829058585536  0.20554723741348568  0.5312638153741278  1.0000
  O   O4        1.0  0.964451137898628  0.4511009617000039  0.3344657290115285  1.0000
  O   O5        1.0  0.9645102235112389  0.43741032132524493  0.7120748113435698  1.0000
  O   O6        1.0  0.9644976941022672  0.6330624097535678  0.5164287320160676  1.0000
  O   O7        1.0  0.964463611116471  0.25544888116779996  0.5301117135762312  1.0000
  O   O8        1.0  0.8395454330332917  0.6300300254094164  0.5222287753269852  1.0000
  O   O9        1.0  0.8395579625890391  0.43437949727313363  0.7178747859451162  1.0000
  O   O10       1.0  0.8394988767816348  0.4480700918935199  0.34026414221384926  1.0000
  O   O11       1.0  0.8395113500104203  0.2524180021035094  0.5359102241421425  1.0000
