data_image0
_chemical_formula_structural       NC10NC5H10C7OC3NC3H11C7OC6H10Zn2C4O8
_chemical_formula_sum              "N3 C45 H31 O10 Zn2"
_cell_length_a       19.4436361288709
_cell_length_b       10.298746005989749
_cell_length_c       10.299382801718286
_cell_angle_alpha    85.57508548997963
_cell_angle_beta     89.6852200800954
_cell_angle_gamma    89.42734808848358

_space_group_name_H-M_alt    "P 1"
_space_group_IT_number       1

loop_
  _space_group_symop_operation_xyz
  'x, y, z'

loop_
  _atom_site_type_symbol
  _atom_site_label
  _atom_site_symmetry_multiplicity
  _atom_site_fract_x
  _atom_site_fract_y
  _atom_site_fract_z
  _atom_site_occupancy
  N   N1        1.0  0.6480232857402042  0.40915914195529113  0.5622087593011009  1.0000
  C   C1        1.0  0.5891864416113268  0.4190619587335782  0.5765936842061334  1.0000
  C   C2        1.0  0.5158560178966372  0.43141209918724277  0.5945871865727894  1.0000
  C   C3        1.0  0.4736810062584036  0.3994118340585535  0.49991009746296133  1.0000
  C   C4        1.0  0.3977765455441036  0.4098510079421376  0.5052391208956657  1.0000
  C   C5        1.0  0.3580221376930222  0.38510198247519867  0.6123100089616837  1.0000
  C   C6        1.0  0.281903498347585  0.3890188121830167  0.5993508974847355  1.0000
  C   C7        1.0  0.2413338041231131  0.4466855394435889  0.6931271789129965  1.0000
  C   C8        1.0  0.1696719961416908  0.4503235007227533  0.682583535455904  1.0000
  C   C9        1.0  0.1375850591665892  0.3958986937180087  0.578550104150495  1.0000
  C   C10       1.0  0.063794030565315  0.3995979019413358  0.567851183156072  1.0000
  N   N2        1.0  0.0044710485354508  0.40257187124320715  0.5592499600069256  1.0000
  C   C11       1.0  0.17742975754149  0.33752482205652723  0.485156997862767  1.0000
  C   C12       1.0  0.24910802107360172  0.3338326304187911  0.49544885765941316  1.0000
  C   C13       1.0  0.3861355077344854  0.3446389983758633  0.7434018559800462  1.0000
  C   C14       1.0  0.444796801643095  0.38776471186775807  0.7906484158981495  1.0000
  C   C15       1.0  0.4890213664153654  0.48563018139960823  0.716289143757453  1.0000
  H   H1        1.0  0.4957887751661644  0.3702916905385285  0.4096001942290981  1.0000
  H   H2        1.0  0.3730914378673689  0.4323467468999227  0.4120822005175091  1.0000
  H   H3        1.0  0.2651978231001202  0.4899805348121429  0.7739797802543238  1.0000
  H   H4        1.0  0.1393218912027731  0.49564232298765765  0.7555088026905419  1.0000
  H   H5        1.0  0.15309383077297473  0.29442550249125676  0.4046388986301439  1.0000
  H   H6        1.0  0.2787922406199351  0.28627024432287906  0.4232197304300893  1.0000
  H   H7        1.0  0.355156871841932  0.2804172796137203  0.8076434996084823  1.0000
  H   H8        1.0  0.4599318763146792  0.35369551480939476  0.8885804334166552  1.0000
  H   H9        1.0  0.4589228891682446  0.5763515215763768  0.6910450564483628  1.0000
  H   H10       1.0  0.532300770499779  0.5112187160612134  0.7793767404546066  1.0000
  C   C16       1.0  0.8262175923331928  0.02446397228162911  0.560712459702152  1.0000
  C   C17       1.0  0.8584140885725723  0.03235350580840257  0.4379416538443859  1.0000
  C   C18       1.0  0.8739710719228972  0.919232706306292  0.37517980205747836  1.0000
  C   C19       1.0  0.8584146130929332  0.7971168869716778  0.43789251267694174  1.0000
  C   C20       1.0  0.8262833062965306  0.787256958216327  0.5607574685772454  1.0000
  C   C21       1.0  0.8102231502365234  0.9014953558970361  0.6212347283649537  1.0000
  C   C22       1.0  0.9085547734638977  0.9273617736182286  0.24607795477839445  1.0000
  O   O1        1.0  0.9505537408425371  0.8386031896885598  0.22051722703716603  1.0000
  C   C23       1.0  0.8954947529324695  0.03612305853436326  0.14598124690956804  1.0000
  C   C24       1.0  0.8303704394281046  0.09671652388263352  0.1344144441032431  1.0000
  C   C25       1.0  0.8183354678368896  0.19859299727583046  0.038608101080516155  1.0000
  N   N3        1.0  0.7521099907701454  0.2600491669636549  0.027953809577775823  1.0000
  C   C26       1.0  0.8714675921195509  0.23948254673654068  0.9530334057156522  1.0000
  C   C27       1.0  0.9359644270250588  0.17873558463900574  0.9627493565989913  1.0000
  C   C28       1.0  0.9479459547582741  0.07728451914753465  0.05825193714013044  1.0000
  H   H11       1.0  0.7663357095480527  0.21683434314476457  0.7935437190517001  1.0000
  H   H12       1.0  0.8720999772744437  0.12660920105867612  0.3916065337007142  1.0000
  H   H13       1.0  0.8708275777833446  0.7096874679049525  0.3900918854180895  1.0000
  H   H14       1.0  0.7854088547077196  0.8946618109936649  0.7158706539415243  1.0000
  H   H15       1.0  0.765829941292022  0.5613038270951156  0.793104948845591  1.0000
  H   H16       1.0  0.7887074331845008  0.06409369799015163  0.1987225019414427  1.0000
  H   H17       1.0  0.7121365796049114  0.2303449833344573  0.09123638723103111  1.0000
  H   H18       1.0  0.7425812744408608  0.33582800628579657  0.9567949510888871  1.0000
  H   H19       1.0  0.8628132314816628  0.31798084494553214  0.8786185664123627  1.0000
  H   H20       1.0  0.976785142881995  0.21033795644726316  0.8961159948818387  1.0000
  H   H21       1.0  0.9983881382618809  0.031711556384745876  0.06436074695590865  1.0000
  C   C29       1.0  0.8263190580861018  0.4057859568736011  0.17936460930057718  1.0000
  C   C30       1.0  0.8985761975956427  0.4053141622802785  0.17746122575979606  1.0000
  C   C31       1.0  0.9350205214882445  0.4035879996442222  0.05944300968637273  1.0000
  C   C32       1.0  0.8984085972858392  0.40534529873368985  0.9422170499365534  1.0000
  C   C33       1.0  0.8261818234158534  0.4059349611299021  0.9421052913435641  1.0000
  C   C34       1.0  0.7905559903179843  0.4058071189761523  0.06124139711469745  1.0000
  C   C35       1.0  0.011314787763074818  0.40447391537874866  0.057181364231777776  1.0000
  O   O2        1.0  0.041624504910911186  0.46462787293720087  0.9624065475287367  1.0000
  C   C36       1.0  0.05322436553536214  0.3371104982310549  0.1623356730028107  1.0000
  C   C37       1.0  0.11787573236193638  0.38637984748200527  0.19290345917060026  1.0000
  C   C38       1.0  0.15810817367764085  0.3226970530313049  0.29082015254311044  1.0000
  C   C39       1.0  0.1345314608519408  0.208819363476491  0.3583729615281621  1.0000
  C   C40       1.0  0.07079200400128394  0.15808607460774793  0.3277745005113566  1.0000
  C   C41       1.0  0.03036359842141123  0.22139374564594272  0.22996147184149196  1.0000
  H   H22       1.0  0.6899591927419896  0.40868816769548544  0.3901212412422439  1.0000
  H   H23       1.0  0.9265963017044196  0.4077470700325565  0.2678276618919124  1.0000
  H   H24       1.0  0.9264355224675715  0.40499871707549673  0.8510329363825706  1.0000
  H   H25       1.0  0.7348511800510498  0.40617163583598925  0.06190452716133921  1.0000
  H   H26       1.0  0.7984355777465147  0.40726655433300296  0.614520613122358  1.0000
  H   H27       1.0  0.1369784673578225  0.4747074842769605  0.14181471613997942  1.0000
  H   H28       1.0  0.20762051854739583  0.361669222251094  0.3142842445490359  1.0000
  H   H29       1.0  0.1657716577802104  0.15961059367819064  0.4340541363411532  1.0000
  H   H30       1.0  0.052808763271648296  0.06928180135058293  0.37948268577584954  1.0000
  H   H31       1.0  0.9816768424487969  0.17912386836814242  0.20630410955763234  1.0000
  Zn  Zn1       1.0  0.7508864100039156  0.40725472772227755  0.5613624257012195  1.0000
  Zn  Zn2       1.0  0.9016079129514227  0.4044656789740013  0.5601069742010059  1.0000
  C   C42       1.0  0.8262058042852853  0.400732697470217  0.7979307110897431  1.0000
  C   C43       1.0  0.8262901646624473  0.4109893175541175  0.3235388026666519  1.0000
  C   C44       1.0  0.8262682835881561  0.6430718843900158  0.5555738104046657  1.0000
  C   C45       1.0  0.8262276337819568  0.16864857116375975  0.5658957729269172  1.0000
  O   O3        1.0  0.8834784921541757  0.41167151724193096  0.3714485413718944  1.0000
  O   O4        1.0  0.8834116100553601  0.3979326944374817  0.749067739839723  1.0000
  O   O5        1.0  0.8834612915829345  0.5936246672044598  0.5533628343236479  1.0000
  O   O6        1.0  0.8834287592138793  0.21597955469866026  0.5671533499418817  1.0000
  O   O7        1.0  0.7690655123076084  0.5957408529507964  0.5543160503819371  1.0000
  O   O8        1.0  0.7690158309238034  0.40005044060755535  0.7500208867444178  1.0000
  O   O9        1.0  0.7690827133453416  0.41378921784631917  0.3724001268669259  1.0000
  O   O10       1.0  0.7690329803839169  0.2180972460325188  0.5681050328045949  1.0000
