data_image0
_chemical_formula_structural       NC12NC2H8C7OC3OC4H12C7OC6OCH12Zn2C4O8
_chemical_formula_sum              "N2 C46 H32 O12 Zn2"
_cell_length_a       17.80743265337812
_cell_length_b       10.299371110280156
_cell_length_c       10.299362532796529
_cell_angle_alpha    85.59679077391144
_cell_angle_beta     91.54954799628842
_cell_angle_gamma    89.44795274300792

_space_group_name_H-M_alt    "P 1"
_space_group_IT_number       1

loop_
  _space_group_symop_operation_xyz
  'x, y, z'

loop_
  _atom_site_type_symbol
  _atom_site_label
  _atom_site_symmetry_multiplicity
  _atom_site_fract_x
  _atom_site_fract_y
  _atom_site_fract_z
  _atom_site_occupancy
  N   N1        1.0  0.7073834429853835  0.4062136191517194  0.6018366215231266  1.0000
  C   C1        1.0  0.6565564881479015  0.43574915185432594  0.5331490261827321  1.0000
  C   C2        1.0  0.5933227426540962  0.47248921186806525  0.4477103047222195  1.0000
  C   C3        1.0  0.6050361985602964  0.5264670096685675  0.32111093062868057  1.0000
  C   C4        1.0  0.5437099933870347  0.5617042890078843  0.2380676393930672  1.0000
  C   C5        1.0  0.4705159579093597  0.5432270114404598  0.28096392006328674  1.0000
  C   C6        1.0  0.4578257883632604  0.4891305696449344  0.40803138935867045  1.0000
  C   C7        1.0  0.5200093074025774  0.45389653859493073  0.49105817025086207  1.0000
  C   C8        1.0  0.3800638593995211  0.46954013461013466  0.4537875398322577  1.0000
  C   C9        1.0  0.3613022561021812  0.4967700159872124  0.5808396764647066  1.0000
  C   C10       1.0  0.28807828669938174  0.4783343257792081  0.6237765339514298  1.0000
  C   C11       1.0  0.2326730552227141  0.43241476774589716  0.5404991240569359  1.0000
  C   C12       1.0  0.15731263814304064  0.41342672842047246  0.5848366987317948  1.0000
  N   N2        1.0  0.0967281995335217  0.3981616218153743  0.6204810586312721  1.0000
  C   C13       1.0  0.2507432324450278  0.40501615881010333  0.4139898912324713  1.0000
  C   C14       1.0  0.3239143066561713  0.42346654700903863  0.37079715519366907  1.0000
  H   H1        1.0  0.6614981402080562  0.5412790583455469  0.2866795299320113  1.0000
  H   H2        1.0  0.5528974664165924  0.6037680794848814  0.14030445671594616  1.0000
  H   H3        1.0  0.42386967544172244  0.5728402168470967  0.21538425674546113  1.0000
  H   H4        1.0  0.5115200207892805  0.41044739061752455  0.588696428832544  1.0000
  H   H5        1.0  0.40299418078565474  0.5339719037234436  0.6464248192574875  1.0000
  H   H6        1.0  0.2746538215800577  0.5002135312471674  0.7217917172230113  1.0000
  H   H7        1.0  0.20833465784879793  0.36908170027561216  0.3488181367863181  1.0000
  H   H8        1.0  0.3368102320447186  0.4000518911114801  0.27308477128355735  1.0000
  C   C15       1.0  0.9020087499167498  0.020817170562186904  0.6110417647655411  1.0000
  C   C16       1.0  0.8933319345958698  0.03024374866758328  0.47464382871032695  1.0000
  C   C17       1.0  0.8881070037220266  0.9178289342179516  0.40597603396380455  1.0000
  C   C18       1.0  0.8933692723366787  0.7949751878330849  0.4749566965471592  1.0000
  C   C19       1.0  0.902110091549004  0.7835479670593822  0.6112874651926083  1.0000
  C   C20       1.0  0.9061825647731538  0.8970709825088761  0.678569395818144  1.0000
  C   C21       1.0  0.8797283430693541  0.9276384630110883  0.2618306127015595  1.0000
  O   O1        1.0  0.9105145786728015  0.8419440917802906  0.19928317722463817  1.0000
  C   C22       1.0  0.8364158916396576  0.03458229542689417  0.18864708787392837  1.0000
  C   C23       1.0  0.8573955255313045  0.07927088808545868  0.06251167560976123  1.0000
  C   C24       1.0  0.8167495541735814  0.17910426307054372  0.9911858441885664  1.0000
  O   O2        1.0  0.8407159000643586  0.2203787537944164  0.8662381454180506  1.0000
  C   C25       1.0  0.8048928172805396  0.32058064889034443  0.783089313310354  1.0000
  C   C26       1.0  0.753737890643089  0.2342834744583535  0.04665536922482727  1.0000
  C   C27       1.0  0.73198672895725  0.1893205512728382  0.17123680653230156  1.0000
  C   C28       1.0  0.7727659057136705  0.08976550003566208  0.2418168538943748  1.0000
  H   H9        1.0  0.919529207156648  0.2103439083016747  0.8682686809204323  1.0000
  H   H10       1.0  0.8914636040240684  0.12520117263522423  0.4215256869780848  1.0000
  H   H11       1.0  0.8899070699101377  0.7081708820512578  0.4220694919802612  1.0000
  H   H12       1.0  0.9128722371553113  0.8889999702689323  0.7837222334828644  1.0000
  H   H13       1.0  0.9060927981982277  0.4516978850492666  0.6635640247157915  1.0000
  H   H14       1.0  0.90596268491484  0.0373570571150319  0.019465441779585202  1.0000
  H   H15       1.0  0.8355247765980895  0.33301062286572547  0.6906871341493068  1.0000
  H   H16       1.0  0.8060068217305021  0.41402817934565617  0.830160793883544  1.0000
  H   H17       1.0  0.7460142836432763  0.29355914572459474  0.7605059903551754  1.0000
  H   H18       1.0  0.7210978068573276  0.3114427150129424  0.9942048788334108  1.0000
  H   H19       1.0  0.6831354478592176  0.2314013023502346  0.21304772657904825  1.0000
  H   H20       1.0  0.7540396413990935  0.05503295703937838  0.33729689828009657  1.0000
  C   C29       1.0  0.9020007703052905  0.4020632418608432  0.2297948798920073  1.0000
  C   C30       1.0  0.8306792096651366  0.3448573885423396  0.22964866101367498  1.0000
  C   C31       1.0  0.7943829334443913  0.31733439321477874  0.11238831693047602  1.0000
  C   C32       1.0  0.8308907956616599  0.3450165712191646  0.9944045449314673  1.0000
  C   C33       1.0  0.9021180746123451  0.402301871170083  0.9925343483915974  1.0000
  C   C34       1.0  0.937200412018653  0.43075157373006867  0.11074569195552075  1.0000
  C   C35       1.0  0.7194510202126131  0.2555861333292049  0.11458290793687298  1.0000
  O   O3        1.0  0.704091528158557  0.17669688220611235  0.20971894749348396  1.0000
  C   C36       1.0  0.661946650292179  0.2833266944714181  0.008922792809941127  1.0000
  C   C37       1.0  0.656185801569896  0.4068188584872474  0.9408324818342901  1.0000
  C   C38       1.0  0.6011999695518262  0.43213570959311154  0.8425114448088835  1.0000
  C   C39       1.0  0.5506512499127886  0.3355164285966914  0.8110111915134781  1.0000
  C   C40       1.0  0.5556220533498596  0.21223415861954686  0.879981947047002  1.0000
  C   C41       1.0  0.6106011360607251  0.18679024749388518  0.9783750257174391  1.0000
  O   O4        1.0  0.49657361677821144  0.36579449723184965  0.7114462557905665  1.0000
  C   C42       1.0  0.44178576729243046  0.2771659639157926  0.6694216914666247  1.0000
  H   H21       1.0  0.036712688531707505  0.5095165875416026  0.43738489300666283  1.0000
  H   H22       1.0  0.8028602670251361  0.32269168346834576  0.3208434066841641  1.0000
  H   H23       1.0  0.8040314649415936  0.3204918775459853  0.9040563509972084  1.0000
  H   H24       1.0  0.9921472588005481  0.4749388260409646  0.11003576270361859  1.0000
  H   H25       1.0  0.929568335220504  0.4237922832988088  0.6643866158039891  1.0000
  H   H26       1.0  0.6936421980421488  0.48429524678064984  0.964475055155622  1.0000
  H   H27       1.0  0.5976331538643447  0.5276692221248074  0.790807147789105  1.0000
  H   H28       1.0  0.517302783841334  0.13546140629034298  0.8583950459434186  1.0000
  H   H29       1.0  0.6134380142114809  0.09108996165311689  0.029931118928254064  1.0000
  H   H30       1.0  0.40650435376517907  0.3265908715680983  0.5896641622989325  1.0000
  H   H31       1.0  0.4050965436905746  0.24571159728766423  0.7512042709054039  1.0000
  H   H32       1.0  0.46977967099761275  0.1912667508944852  0.6320794569167001  1.0000
  Zn  Zn1       1.0  0.8197399334448926  0.4038865217022025  0.6072244891619905  1.0000
  Zn  Zn2       1.0  0.9843717068016649  0.4004781290792183  0.6151037806537227  1.0000
  C   C43       1.0  0.9020935280022044  0.3970831123914951  0.8483584959797008  1.0000
  C   C44       1.0  0.9020199102555031  0.40728313983616227  0.3739699878721683  1.0000
  C   C45       1.0  0.9020862667134588  0.6393740626979467  0.6060656397746125  1.0000
  C   C46       1.0  0.9020271151702816  0.16499063040582929  0.6162629101247936  1.0000
  O   O5        1.0  0.9645032330481029  0.4077358522803536  0.42534661939903606  1.0000
  O   O6        1.0  0.9645619116798108  0.3940425289680505  0.802961690218255  1.0000
  O   O7        1.0  0.9645552060864814  0.5896955533868515  0.6073084546962157  1.0000
  O   O8        1.0  0.96450988245002  0.21208283828439822  0.6209997548605237  1.0000
  O   O9        1.0  0.8396017016157921  0.5922818136615515  0.6013285122595433  1.0000
  O   O10       1.0  0.8396084074023435  0.3966303495311614  0.7969816790383992  1.0000
  O   O11       1.0  0.8395497285744786  0.41032362709776415  0.41936504680298725  1.0000
  O   O12       1.0  0.8395563779870625  0.21467060384349224  0.6150182796293806  1.0000
