data_image0
_chemical_formula_structural       NC10NC3NH7C6SCOC6H10C6NCOC6H11Zn2C4O8
_chemical_formula_sum              "N4 C43 H28 S1 O10 Zn2"
_cell_length_a       19.210446455230148
_cell_length_b       10.302038109246572
_cell_length_c       10.299662537453274
_cell_angle_alpha    85.5465134691658
_cell_angle_beta     89.97714991374127
_cell_angle_gamma    89.9653702289085

_space_group_name_H-M_alt    "P 1"
_space_group_IT_number       1

loop_
  _space_group_symop_operation_xyz
  'x, y, z'

loop_
  _atom_site_type_symbol
  _atom_site_label
  _atom_site_symmetry_multiplicity
  _atom_site_fract_x
  _atom_site_fract_y
  _atom_site_fract_z
  _atom_site_occupancy
  N   N1        1.0  0.655890486151584  0.42038799278985683  0.5675363772064779  1.0000
  C   C1        1.0  0.5956621101363848  0.4225948571950373  0.5677678983165158  1.0000
  C   C2        1.0  0.5208578854866187  0.42533096502320067  0.5680547244312202  1.0000
  C   C3        1.0  0.48525575100491536  0.5415260339343793  0.5831861828833949  1.0000
  C   C4        1.0  0.4125902902891758  0.5416775533425771  0.5831336101640099  1.0000
  C   C5        1.0  0.3756911846668153  0.4260397179422515  0.5681413275112859  1.0000
  C   C6        1.0  0.2983689526343501  0.42468364558616134  0.5679905062711934  1.0000
  C   C7        1.0  0.2606304715159715  0.5282528573703027  0.5046452068148923  1.0000
  C   C8        1.0  0.1878520050035187  0.5268510251471057  0.5045358962283519  1.0000
  C   C9        1.0  0.1518106364504358  0.42213744563535505  0.5677209307124258  1.0000
  C   C10       1.0  0.0768810169832927  0.42083574809705104  0.5675838820579764  1.0000
  N   N2        1.0  0.016643084730218  0.4197891390649804  0.5674737298087629  1.0000
  C   C11       1.0  0.188825473687758  0.318693904313454  0.6310412424139891  1.0000
  C   C12       1.0  0.2616057598913194  0.3198215183351927  0.631200753607688  1.0000
  C   C13       1.0  0.4139033099650993  0.3116643295689214  0.553298342362669  1.0000
  N   N3        1.0  0.4846734530582497  0.3141086186001587  0.5534643167770701  1.0000
  H   H1        1.0  0.5133632447282872  0.6309321909492436  0.5952497469689231  1.0000
  H   H2        1.0  0.3853278726749564  0.6316648769833981  0.5965920137856966  1.0000
  H   H3        1.0  0.2873699274379664  0.6095057256450029  0.45366749768242753  1.0000
  H   H4        1.0  0.1597175612834055  0.6072758730184746  0.4548884598119205  1.0000
  H   H5        1.0  0.1614465124793217  0.23730594341550115  0.6805890315456085  1.0000
  H   H6        1.0  0.289095194886819  0.23951525808689134  0.6822859555336491  1.0000
  H   H7        1.0  0.3876314637706644  0.22081432242157661  0.5397935466210342  1.0000
  C   C14       1.0  0.8362041868954843  0.038810263920582955  0.5674649061538082  1.0000
  C   C15       1.0  0.776706586066133  0.04370823663288803  0.48795456464549347  1.0000
  C   C16       1.0  0.7474305406895349  0.92918639083245  0.44790953728625293  1.0000
  C   C17       1.0  0.7769304859613018  0.8085752867703493  0.487900518863414  1.0000
  C   C18       1.0  0.8363360538661179  0.8013569084236066  0.5675564589087241  1.0000
  C   C19       1.0  0.865702380302552  0.9171282100995911  0.6068405696287023  1.0000
  S   S1        1.0  0.6719089408401083  0.9368849469993809  0.3453121444160512  1.0000
  C   C20       1.0  0.7231040846876559  0.945349027382851  0.19887925031367337  1.0000
  O   O1        1.0  0.739894084527794  0.8400706987006149  0.15252564506324462  1.0000
  C   C21       1.0  0.7460694760242326  0.07150149897405944  0.13337680002774088  1.0000
  C   C22       1.0  0.7952971993803198  0.07379688345640067  0.0318603105746349  1.0000
  C   C23       1.0  0.8176767237388198  0.19211891740147435  0.9701324731512102  1.0000
  C   C24       1.0  0.7912052398198214  0.3093854183897924  0.008638872429157507  1.0000
  C   C25       1.0  0.7421870292072387  0.308562773669935  0.10880226267008108  1.0000
  C   C26       1.0  0.7195754453469393  0.19054464325025267  0.17085031741628143  1.0000
  H   H8        1.0  0.9482695579168864  0.23688225738331314  0.7175013582593728  1.0000
  H   H9        1.0  0.753028042131638  0.13628127452215866  0.45668244424995397  1.0000
  H   H10       1.0  0.7534762583391229  0.7208746009684505  0.4561398216820012  1.0000
  H   H11       1.0  0.9115711389558352  0.9124319044977498  0.6681344148898569  1.0000
  H   H12       1.0  0.8590434742969589  0.4712978762176384  0.597519509319332  1.0000
  H   H13       1.0  0.8168340577699249  0.9842083221179887  0.0005585612651552996  1.0000
  H   H14       1.0  0.8556577945292672  0.1928383776014153  0.8924271962989931  1.0000
  H   H15       1.0  0.8086105056408245  0.40087884665871476  0.9607608990272563  1.0000
  H   H16       1.0  0.7215626826259676  0.39953336609746737  0.13834317509334926  1.0000
  H   H17       1.0  0.6811867531894938  0.1932139913472617  0.24742331137301643  1.0000
  C   C27       1.0  0.8363180504023097  0.4202239944321591  0.18613469515197445  1.0000
  C   C28       1.0  0.9073818348780284  0.45247285827228234  0.18231225518562977  1.0000
  C   C29       1.0  0.9433849389593567  0.46683472125527015  0.0637030696743619  1.0000
  C   C30       1.0  0.907259976949284  0.4521630614558547  0.9471689425594239  1.0000
  C   C31       1.0  0.8362221871689629  0.419943151825231  0.9488866343898272  1.0000
  C   C32       1.0  0.8012116480719511  0.403710997789537  0.06893778660107519  1.0000
  N   N4        1.0  0.01587726406574097  0.5017915743952934  0.06321111592816053  1.0000
  C   C33       1.0  0.06513610283855376  0.4618693039613624  0.9689847754738681  1.0000
  O   O2        1.0  0.052422995332739974  0.3633557742702622  0.9074236364098391  1.0000
  C   C34       1.0  0.13198102877899331  0.5320702311169165  0.9466311725074301  1.0000
  C   C35       1.0  0.14040101447354836  0.6600958687908705  0.9829988949336594  1.0000
  C   C36       1.0  0.20356179741698166  0.7255308829069069  0.960805203155243  1.0000
  C   C37       1.0  0.25880894049450487  0.6644267581632515  0.9018134503166149  1.0000
  C   C38       1.0  0.2509540489559603  0.5378462197225178  0.8644398354431919  1.0000
  C   C39       1.0  0.1879118730037217  0.47195408591627785  0.8863043722999255  1.0000
  H   H18       1.0  0.7021077656147555  0.3605979709017846  0.40051567962914336  1.0000
  H   H19       1.0  0.9352735102512916  0.4656425699719351  0.271729373794533  1.0000
  H   H20       1.0  0.9342239886025347  0.4680784071966815  0.8550529754764451  1.0000
  H   H21       1.0  0.7464316774111268  0.3788338071389026  0.07102034239586552  1.0000
  H   H22       1.0  0.8087476399174939  0.40926428491525435  0.6219665443510265  1.0000
  H   H23       1.0  0.03488288546315932  0.5489525609217645  0.1421360723132643  1.0000
  H   H24       1.0  0.09811396571606368  0.710689201800242  0.026786156258835403  1.0000
  H   H25       1.0  0.20956696130446617  0.8239769138261364  0.9889318352451912  1.0000
  H   H26       1.0  0.30762660851558254  0.7153116680742169  0.8846935762020878  1.0000
  H   H27       1.0  0.29375621743617364  0.49066852500735747  0.8184559141310519  1.0000
  H   H28       1.0  0.18309954075971602  0.37372864283198926  0.8568025223996236  1.0000
  Zn  Zn1       1.0  0.7599958910352629  0.4202117105493077  0.567525797311097  1.0000
  Zn  Zn2       1.0  0.9125376607402506  0.41995483735634753  0.5674949444083526  1.0000
  C   C40       1.0  0.8362378422855407  0.4148238022298194  0.8047095711882184  1.0000
  C   C41       1.0  0.8362973755085781  0.4253443810541273  0.33031129785975866  1.0000
  C   C42       1.0  0.8363081763702663  0.6572212629210015  0.5623638644507636  1.0000
  C   C43       1.0  0.8362269890935946  0.1829453604932325  0.5726570736604206  1.0000
  O   O3        1.0  0.8941792424709383  0.42695968314643196  0.3786865736023468  1.0000
  O   O4        1.0  0.8941316488306209  0.41301255997561004  0.7563105048358161  1.0000
  O   O5        1.0  0.8941876639549735  0.6087515758349444  0.560614632329117  1.0000
  O   O6        1.0  0.8941231753082599  0.23122067669861734  0.5743823487442181  1.0000
  O   O7        1.0  0.7784103244122351  0.6089458712961122  0.5606383929789283  1.0000
  O   O8        1.0  0.7783543095631218  0.41320841539556463  0.7563341964261179  1.0000
  O   O9        1.0  0.7784019034381975  0.4271554938959776  0.3787087037576218  1.0000
  O   O10       1.0  0.7783458362588266  0.23141647812571753  0.5744045762680188  1.0000
