data_image0
_chemical_formula_structural       NC11NC3H8C7OC3NC3H11C7OC3NC3H11Zn2C4O8
_chemical_formula_sum              "N4 C44 H30 O10 Zn2"
_cell_length_a       17.807433833752565
_cell_length_b       10.298746005989749
_cell_length_c       10.298749378158432
_cell_angle_alpha    85.5599185525692
_cell_angle_beta     88.5335258425568
_cell_angle_gamma    90.6940108729131

_space_group_name_H-M_alt    "P 1"
_space_group_IT_number       1

loop_
  _space_group_symop_operation_xyz
  'x, y, z'

loop_
  _atom_site_type_symbol
  _atom_site_label
  _atom_site_symmetry_multiplicity
  _atom_site_fract_x
  _atom_site_fract_y
  _atom_site_fract_z
  _atom_site_occupancy
  N   N1        1.0  0.7074134344209543  0.4387089990747548  0.5346464018947246  1.0000
  C   C1        1.0  0.6565968246500861  0.4039743668846867  0.6012112352534307  1.0000
  C   C2        1.0  0.5933758359567566  0.3607673477852287  0.6840093932388414  1.0000
  C   C3        1.0  0.6051082836347997  0.2972025980399915  0.8067324244638523  1.0000
  C   C4        1.0  0.5437946358566225  0.25567566755338045  0.8872466019214733  1.0000
  C   C5        1.0  0.47059422234565623  0.27740014396065327  0.8456785691721704  1.0000
  C   C6        1.0  0.4578849534745035  0.34111949239488193  0.7224953178066917  1.0000
  C   C7        1.0  0.38011618984522955  0.3641744079600462  0.6781465224089716  1.0000
  C   C8        1.0  0.36131907270747626  0.3473102407484654  0.5485554952803247  1.0000
  C   C9        1.0  0.2880887089565064  0.3689959890583079  0.5069433851002105  1.0000
  C   C10       1.0  0.23271234298856172  0.40786451990343986  0.5941019898380913  1.0000
  C   C11       1.0  0.1573451944878239  0.43020889021940345  0.5511285311174041  1.0000
  N   N2        1.0  0.0967553806671779  0.44817210395468243  0.516580997903447  1.0000
  C   C12       1.0  0.2508178675507732  0.4249393213019981  0.7231618585345583  1.0000
  C   C13       1.0  0.3239954898318215  0.4032186212208242  0.7650294143367187  1.0000
  C   C14       1.0  0.5200559142202952  0.3826418563503573  0.6419975570646881  1.0000
  H   H1        1.0  0.6615755055866224  0.27978417081702256  0.8400992057536258  1.0000
  H   H2        1.0  0.5529967958997047  0.2062121755101507  0.9819862663499048  1.0000
  H   H3        1.0  0.4239575441810475  0.24283648324468632  0.9091199015370401  1.0000
  H   H4        1.0  0.4029881026144291  0.31567075347361695  0.4798317586954346  1.0000
  H   H5        1.0  0.2746366944247951  0.3551214247809338  0.40690057162806914  1.0000
  H   H6        1.0  0.2084318912681995  0.4553557155181627  0.7913707043366687  1.0000
  H   H7        1.0  0.3369192009513493  0.41863873970444976  0.8648895669259191  1.0000
  H   H8        1.0  0.5115523818329526  0.4334677997373182  0.5474923200499757  1.0000
  C   C15       1.0  0.9020520958009558  0.06203768415446209  0.5255980044203221  1.0000
  C   C16       1.0  0.9371845915686589  0.07140864643969458  0.4014542620845547  1.0000
  C   C17       1.0  0.9541592281876202  0.9590045458262955  0.3380287867435836  1.0000
  C   C18       1.0  0.9371851503747552  0.8361720639219211  0.40140509531444724  1.0000
  C   C19       1.0  0.9021238871554477  0.8248336173261421  0.5256402313827169  1.0000
  C   C20       1.0  0.8845989857418193  0.9383332505100073  0.586802282705648  1.0000
  C   C21       1.0  0.9918974150167085  0.968724165822403  0.2074523970383486  1.0000
  O   O1        1.0  0.03776494162623556  0.8818632556212711  0.18010997013649166  1.0000
  C   C22       1.0  0.9776033801555021  0.07692327579692582  0.10790231085405111  1.0000
  C   C23       1.0  0.906465700824834  0.13458741018973597  0.0990947265102593  1.0000
  C   C24       1.0  0.8932925450265933  0.23594675407890242  0.003791857403249832  1.0000
  N   N3        1.0  0.8209523426898615  0.294423775398553  0.9959435150555427  1.0000
  C   C25       1.0  0.9513034154919663  0.27925077643248186  0.9159595126984397  1.0000
  C   C26       1.0  0.021755177112709134  0.22140537051193854  0.9229427110406965  1.0000
  C   C27       1.0  0.03486986966792194  0.12046910664818777  0.017944061802155353  1.0000
  H   H9        1.0  0.8367108727027632  0.25165160230699213  0.7609830803867994  1.0000
  H   H10       1.0  0.9521201782550861  0.16629254585925657  0.35453594420251267  1.0000
  H   H11       1.0  0.9507299192858477  0.7493139124897522  0.35307511710230455  1.0000
  H   H12       1.0  0.8575218780367208  0.9303579436800598  0.6824963508764152  1.0000
  H   H13       1.0  0.8361583031995744  0.5960984266870608  0.7605657148633065  1.0000
  H   H14       1.0  0.8609762732285622  0.10007202261619508  0.16517290493383774  1.0000
  H   H15       1.0  0.7773081409647988  0.26290337171877654  0.0609245367218858  1.0000
  H   H16       1.0  0.8105238157428127  0.36979196245680024  0.9251836055368288  1.0000
  H   H17       1.0  0.9418289991975545  0.35737863314496265  0.8419063430838505  1.0000
  H   H18       1.0  0.06632391483020106  0.2548629796300199  0.8545747659611709  1.0000
  H   H19       1.0  0.089968900210875  0.07716580048485988  0.02191551710324502  1.0000
  C   C28       1.0  0.9020533507216499  0.4434628052406464  0.1442196774457074  1.0000
  C   C29       1.0  0.9431004356277557  0.56133524153901  0.13230239438337854  1.0000
  C   C30       1.0  0.9631026119062194  0.6217223319352985  0.009072546278842353  1.0000
  C   C31       1.0  0.9431034259553112  0.5613841798332391  0.897058229131249  1.0000
  C   C32       1.0  0.9021226215280275  0.44340845175256893  0.9070185696842055  1.0000
  C   C33       1.0  0.8816850808568812  0.38537281127546374  0.03101747566397961  1.0000
  C   C34       1.0  0.007057187668856768  0.7455691410915595  0.996360257221343  1.0000
  O   O2        1.0  0.05400095556438633  0.7650544983815344  0.9028362506979835  1.0000
  C   C35       1.0  0.9977582042149391  0.8473026758456774  0.0896875083049904  1.0000
  C   C36       1.0  0.9274774374686368  0.8681704189532911  0.14965414985458048  1.0000
  C   C37       1.0  0.9190831449056309  0.9654767764930914  0.2367497454060845  1.0000
  N   N4        1.0  0.8475596607532463  0.9855918764858571  0.29774189131942275  1.0000
  C   C38       1.0  0.9810817271837142  0.04324131857379854  0.26327524454245577  1.0000
  C   C39       1.0  0.050770671217499785  0.024310009354896245  0.20287684598203115  1.0000
  C   C40       1.0  0.0591216991680108  0.9273142974737865  0.11616008116567178  1.0000
  H   H20       1.0  0.8254901176135974  0.21975235698054685  0.37413163835149565  1.0000
  H   H21       1.0  0.9602614791787938  0.605601911996055  0.21905489329531358  1.0000
  H   H22       1.0  0.9589515221205651  0.6072952366089379  0.8019192855591744  1.0000
  H   H23       1.0  0.8500487617818967  0.29451212664536097  0.03945159418105937  1.0000
  H   H24       1.0  0.8249614538288006  0.22026250863134766  0.7185416953497397  1.0000
  H   H25       1.0  0.8789989134497075  0.8099800215284101  0.1278571477174264  1.0000
  H   H26       1.0  0.8009694780290308  0.9281826155999446  0.2786723075037245  1.0000
  H   H27       1.0  0.8406831605763103  0.0579493364978001  0.3625530171802349  1.0000
  H   H28       1.0  0.9753161563771897  0.11872200407701872  0.33028035034933434  1.0000
  H   H29       1.0  0.09844685504497686  0.08494093242575929  0.2233045796568065  1.0000
  H   H30       1.0  0.11369759839118943  0.9139948356559915  0.07062642410541464  1.0000
  Zn  Zn1       1.0  0.8197691100103064  0.44143637124677193  0.5294406014626798  1.0000
  Zn  Zn2       1.0  0.9843996902792359  0.44543411048904713  0.5217973846084438  1.0000
  C   C41       1.0  0.90210738104388  0.43824456422797686  0.7628330384705244  1.0000
  C   C42       1.0  0.9020632171723166  0.44862759991976486  0.28840499170431366  1.0000
  C   C43       1.0  0.9021059886184764  0.6806492069115841  0.5204568540672769  1.0000
  C   C44       1.0  0.9020645532802158  0.20622139542525542  0.5307812478734191  1.0000
  O   O3        1.0  0.9645429751425062  0.45187240715608  0.33389433904161603  1.0000
  O   O4        1.0  0.9645784240792907  0.43803296879185516  0.7115422924626333  1.0000
  O   O5        1.0  0.9645764575884529  0.6337777628362797  0.5158218478815937  1.0000
  O   O6        1.0  0.9645448854481076  0.2561276210454855  0.5296146888488185  1.0000
  O   O7        1.0  0.8396238586610971  0.630742859327516  0.5216232998237289  1.0000
  O   O8        1.0  0.8396258252891018  0.4349996257311759  0.7173436752403339  1.0000
  O   O9        1.0  0.8395903762561747  0.4488390189478275  0.33969416028879795  1.0000
  O   O10       1.0  0.8395922865666748  0.2530942235405853  0.5354146074712607  1.0000
