data_image0
_chemical_formula_structural       NC10NC3NH7C6SCOC6H10C7OC3NC3H11Zn2C4O8
_chemical_formula_sum              "N4 C43 H28 S1 O10 Zn2"
_cell_length_a       19.210446455230148
_cell_length_b       10.302038109246572
_cell_length_c       10.298749378158432
_cell_angle_alpha    85.56336078908824
_cell_angle_beta     89.99958857852239
_cell_angle_gamma    89.9653702289085

_space_group_name_H-M_alt    "P 1"
_space_group_IT_number       1

loop_
  _space_group_symop_operation_xyz
  'x, y, z'

loop_
  _atom_site_type_symbol
  _atom_site_label
  _atom_site_symmetry_multiplicity
  _atom_site_fract_x
  _atom_site_fract_y
  _atom_site_fract_z
  _atom_site_occupancy
  N   N1        1.0  0.6555898465928273  0.41996595297512096  0.5674421986553175  1.0000
  C   C1        1.0  0.5953615191683238  0.422172885592244  0.5676737349869092  1.0000
  C   C2        1.0  0.5205573547164402  0.4249090779265956  0.5679605799592433  1.0000
  C   C3        1.0  0.48495839596284607  0.5411086049460432  0.5830930332421491  1.0000
  C   C4        1.0  0.4122929242133609  0.5412601088649951  0.5830404570663257  1.0000
  C   C5        1.0  0.375390672072534  0.4256178563610922  0.5680471887331027  1.0000
  C   C6        1.0  0.2980684083863288  0.42426173956927093  0.5678963575771383  1.0000
  C   C7        1.0  0.2603166326176883  0.5278122882348371  0.5045468934297199  1.0000
  C   C8        1.0  0.1875381431635804  0.5264104238059919  0.5044375756564612  1.0000
  C   C9        1.0  0.1515100356250078  0.42171546019472417  0.567626764294894  1.0000
  C   C10       1.0  0.0765803873946582  0.42041372227843943  0.5674897066300633  1.0000
  N   N2        1.0  0.0163424320232836  0.41936708079274543  0.567379547138795  1.0000
  C   C11       1.0  0.1885381622682649  0.3182905746293778  0.6309512390447334  1.0000
  C   C12       1.0  0.2613184819493779  0.31941823564712557  0.6311107607256323  1.0000
  C   C13       1.0  0.4135996821862963  0.3112380948709845  0.5532032277196794  1.0000
  N   N3        1.0  0.4843698601134724  0.313682432802459  0.5533692130462107  1.0000
  H   H1        1.0  0.5130684215373073  0.630518316190328  0.5951573904570593  1.0000
  H   H2        1.0  0.3850333311934013  0.6312513976900493  0.5964997455223178  1.0000
  H   H3        1.0  0.287045389548284  0.6090501371941597  0.45356583272398576  1.0000
  H   H4        1.0  0.1593932796442205  0.6068206442937862  0.45478687512668237  1.0000
  H   H5        1.0  0.161169599945514  0.23691721175640268  0.6805022857383034  1.0000
  H   H6        1.0  0.2888186384964211  0.23912702638428285  0.682199321292069  1.0000
  H   H7        1.0  0.3873250016610146  0.2203841088711216  0.5396975440936496  1.0000
  C   C14       1.0  0.8359035323366776  0.038388203048677294  0.5673707229037219  1.0000
  C   C15       1.0  0.7763892442046909  0.04326275001441138  0.48785515391971646  1.0000
  C   C16       1.0  0.7471047943428658  0.9287291059416412  0.4478074937657597  1.0000
  C   C17       1.0  0.7766131327569539  0.8081297842286259  0.4878011045843509  1.0000
  C   C18       1.0  0.8360354185220259  0.8009348745254453  0.5674622816778523  1.0000
  C   C19       1.0  0.8654099897456401  0.9167177502885805  0.6067489751654287  1.0000
  S   S1        1.0  0.6715616617756578  0.93639743433595  0.3452033555418468  1.0000
  C   C20       1.0  0.7227260728911694  0.944818371905519  0.19876083408308198  1.0000
  O   O1        1.0  0.7395063442277648  0.8395263862852211  0.15240418127506472  1.0000
  C   C21       1.0  0.7456777168435627  0.07095154482725818  0.13325407728229788  1.0000
  C   C22       1.0  0.7948841343374207  0.07321701999831198  0.03173091354040514  1.0000
  C   C23       1.0  0.8172507035119211  0.19152086736981055  0.9699990177672935  1.0000
  C   C24       1.0  0.7907873011572318  0.3087987133119261  0.008507948681532707  1.0000
  C   C25       1.0  0.741790112423995  0.30800557924629257  0.10867792425057377  1.0000
  C   C26       1.0  0.7191915509535864  0.19000572974426366  0.17073005839942357  1.0000
  H   H8        1.0  0.9480003923900107  0.2365044010241384  0.7174170392846899  1.0000
  H   H9        1.0  0.7527041370065098  0.13582657435041035  0.45658097751176374  1.0000
  H   H10       1.0  0.7531522393306075  0.7204197409264449  0.4560383192686239  1.0000
  H   H11       1.0  0.9112916124984372  0.9120395033953074  0.668046850243083  1.0000
  H   H12       1.0  0.8587491274743424  0.47088467018780344  0.5974273020349432  1.0000
  H   H13       1.0  0.8164144232449454  0.9836192363772053  0.0004271062705334394  1.0000
  H   H14       1.0  0.8552154658392603  0.1922174336406317  0.8922886321149117  1.0000
  H   H15       1.0  0.8081825185465898  0.4002780355255857  0.9606268275011494  1.0000
  H   H16       1.0  0.721171965767619  0.3989848751696814  0.13822077886650042  1.0000
  H   H17       1.0  0.6808189296203837  0.19269763817137053  0.2473080867134121  1.0000
  C   C27       1.0  0.8359373638311349  0.41968958408830637  0.18601544101965795  1.0000
  C   C28       1.0  0.8739803732051468  0.5364633159648675  0.1760031799017312  1.0000
  C   C29       1.0  0.8925189209655522  0.5963140533812821  0.05370182349350139  1.0000
  C   C30       1.0  0.8739831481383694  0.5365121611301196  0.9407591558644635  1.0000
  C   C31       1.0  0.8360015432855231  0.41963345857790624  0.9488175328975021  1.0000
  C   C32       1.0  0.8170598022277727  0.3621446563222228  0.07186795869451101  1.0000
  C   C33       1.0  0.9332564299094561  0.718985103762583  0.04302935179876899  1.0000
  O   O2        1.0  0.9767546900421199  0.7372513223478669  0.9516770861988699  1.0000
  C   C34       1.0  0.9246490031728821  0.8209258878164649  0.1359327714135392  1.0000
  C   C35       1.0  0.8595308838422535  0.8436026065816582  0.19265105742483635  1.0000
  C   C36       1.0  0.8517613355146034  0.9410942760826304  0.2793643854230088  1.0000
  N   N4        1.0  0.785491689589599  0.9630507021507171  0.3370506701832552  1.0000
  C   C37       1.0  0.9092138958507424  0.017231828052193254  0.30876123606097683  1.0000
  C   C38       1.0  0.9737838170721183  0.9965062052093541  0.25158394528554107  1.0000
  C   C39       1.0  0.9815133044025781  0.899326198381293  0.16524746629262377  1.0000
  H   H18       1.0  0.7649771645568944  0.19802974664215545  0.41237382048071813  1.0000
  H   H19       1.0  0.8898850377119586  0.5802722640629436  0.26355183186713727  1.0000
  H   H20       1.0  0.8886714185052758  0.5819988829675202  0.8463557569261746  1.0000
  H   H21       1.0  0.7877388204796967  0.2721307828887305  0.0788338142806857  1.0000
  H   H22       1.0  0.7644873653266062  0.1985533911658548  0.7567594640854578  1.0000
  H   H23       1.0  0.8146072528074962  0.7866835523684985  0.1686090183343607  1.0000
  H   H24       1.0  0.7423178019987314  0.9068637447561165  0.31582340883779425  1.0000
  H   H25       1.0  0.7791263422049506  0.03556235276881159  0.40154820397344815  1.0000
  H   H26       1.0  0.9038781675274647  0.09283698971180954  0.3755043047172344  1.0000
  H   H27       1.0  0.017964234421745884  0.05588572244917556  0.27421976471953435  1.0000
  H   H28       1.0  0.03208044318212422  0.8846010569812786  0.12223646447830583  1.0000
  Zn  Zn1       1.0  0.7596952492560411  0.4197896676174686  0.5674316180643519  1.0000
  Zn  Zn2       1.0  0.9122370124857488  0.4195327853344675  0.567400763133157  1.0000
  C   C40       1.0  0.8359869796588141  0.41447163960376443  0.8046309857923934  1.0000
  C   C41       1.0  0.8359469481283045  0.42485244876397754  0.3302015227420141  1.0000
  C   C42       1.0  0.8360064512258598  0.6567976991539013  0.5622693458283099  1.0000
  C   C43       1.0  0.8359274242454958  0.18252482936447545  0.5725632317738463  1.0000
  O   O3        1.0  0.8938389678940746  0.42648200342932263  0.3785799789586537  1.0000
  O   O4        1.0  0.8938706284074094  0.41264613776720216  0.756228737401806  1.0000
  O   O5        1.0  0.8938855716889416  0.608327496700062  0.5605199987018947  1.0000
  O   O6        1.0  0.8938239725537818  0.2308006538792966  0.5742886202873363  1.0000
  O   O7        1.0  0.7781082371329907  0.6085217991617151  0.5605437609138704  1.0000
  O   O8        1.0  0.7780932941122036  0.41284200016729544  0.756252430549732  1.0000
  O   O9        1.0  0.7780616335059195  0.426677820698969  0.3786021105688946  1.0000
  O   O10       1.0  0.7780466381693694  0.23099646185518474  0.5743108492725042  1.0000
