data_image0
_chemical_formula_structural       NC9NC5H8C7OC3FC3H9C7OC3FC3H9Zn2C4O8
_chemical_formula_sum              "N2 C44 H26 O10 F2 Zn2"
_cell_length_a       17.807436237873137
_cell_length_b       10.29937835083307
_cell_length_c       10.29938172300155
_cell_angle_alpha    85.56710995607625
_cell_angle_beta     89.37614531969923
_cell_angle_gamma    88.41049276798935

_space_group_name_H-M_alt    "P 1"
_space_group_IT_number       1

loop_
  _space_group_symop_operation_xyz
  'x, y, z'

loop_
  _atom_site_type_symbol
  _atom_site_label
  _atom_site_symmetry_multiplicity
  _atom_site_fract_x
  _atom_site_fract_y
  _atom_site_fract_z
  _atom_site_occupancy
  N   N1        1.0  0.7079392456331255  0.3874130349127707  0.5569128140845963  1.0000
  C   C1        1.0  0.6473462497318065  0.35221929275511155  0.5458943703552817  1.0000
  C   C2        1.0  0.5719752225679794  0.30844215324406554  0.5321886227174317  1.0000
  C   C3        1.0  0.55388646523235  0.23699690723882627  0.4271968474287997  1.0000
  C   C4        1.0  0.48070507778827437  0.1943811564846385  0.4138068386483835  1.0000
  C   C5        1.0  0.4245636562553126  0.22283310188444627  0.505376212275018  1.0000
  C   C6        1.0  0.3467907164231487  0.1776584763798188  0.49122815709137324  1.0000
  C   C7        1.0  0.2846270087376028  0.2594240605563809  0.5171543521829378  1.0000
  C   C8        1.0  0.2113032720340215  0.21660526915265943  0.5037780561431424  1.0000
  C   C9        1.0  0.1480899724186875  0.30106238468628854  0.5300677352575012  1.0000
  N   N2        1.0  0.0972794667296634  0.3689600627864513  0.5512039116873053  1.0000
  C   C10       1.0  0.199559648860917  0.0917628989713033  0.4644502554159222  1.0000
  C   C11       1.0  0.2608659852465552  0.009983459836961917  0.4385156727791084  1.0000
  C   C12       1.0  0.3340702418086438  0.05240764412725274  0.4516894917613363  1.0000
  C   C13       1.0  0.4433438841526037  0.2947727878482982  0.6105871403385297  1.0000
  C   C14       1.0  0.5165781293380868  0.3371980968799373  0.6238215279193122  1.0000
  H   H1        1.0  0.596288655148534  0.21449186963769784  0.35548755463534  1.0000
  H   H2        1.0  0.46779518796579567  0.14067512920317093  0.3308946978737093  1.0000
  H   H3        1.0  0.293139887587268  0.3568996097690378  0.5460162157921762  1.0000
  H   H4        1.0  0.143089326335439  0.05772299024034444  0.4538606716686895  1.0000
  H   H5        1.0  0.2516551316184697  0.913327714807346  0.4084532694394467  1.0000
  H   H6        1.0  0.38070060640829  0.9866555335791637  0.4326513282300397  1.0000
  H   H7        1.0  0.4016582473162476  0.316739105073796  0.6835910162139283  1.0000
  H   H8        1.0  0.5300167952422628  0.392124469036496  0.7056918511469947  1.0000
  C   C15       1.0  0.9025337503568663  0.9968051936111263  0.5541235085098171  1.0000
  C   C16       1.0  0.8241536177281013  0.0005236755150701544  0.5392480588762971  1.0000
  C   C17       1.0  0.7845252147501489  0.8851162671501476  0.533224041325812  1.0000
  C   C18       1.0  0.8243373127825471  0.7652709680244573  0.5392522405978117  1.0000
  C   C19       1.0  0.9026921187056441  0.7595576314250945  0.5540043930846834  1.0000
  C   C20       1.0  0.9413137342171294  0.875867432111957  0.5616969398114011  1.0000
  C   C21       1.0  0.7018542632928405  0.8890003470786441  0.5161420344636627  1.0000
  O   O1        1.0  0.6728476987092941  0.8056679576853117  0.4499065824248154  1.0000
  C   C22       1.0  0.6520895281746842  0.9873209368410583  0.5742104500501028  1.0000
  C   C23       1.0  0.5851790803019581  0.030474297449295307  0.5114109222027987  1.0000
  C   C24       1.0  0.5374477969002842  0.12200700010943355  0.5661715137263359  1.0000
  F   F1        1.0  0.47335784317554996  0.16371902302313468  0.5043919858001544  1.0000
  C   C25       1.0  0.5557131614583146  0.17046786777984346  0.6845083587966112  1.0000
  C   C26       1.0  0.6215448847834691  0.1271135908811516  0.7485382626662553  1.0000
  C   C27       1.0  0.6694314407348161  0.03564523862009228  0.6941801051658505  1.0000
  H   H9        1.0  0.0505777747583096  0.19725594974839122  0.5801972296081099  1.0000
  H   H10       1.0  0.7939274553814781  0.09346547760152002  0.5308781578206645  1.0000
  H   H11       1.0  0.7939251087612502  0.6762422592057026  0.5336458831877962  1.0000
  H   H12       1.0  0.0017389918511585556  0.8721967553768621  0.5731640639309441  1.0000
  H   H13       1.0  0.9328633435588847  0.42998736446317953  0.5585743952983946  1.0000
  H   H14       1.0  0.5702263515513187  0.9941579849823279  0.4194721163478985  1.0000
  H   H15       1.0  0.5187433011271141  0.2412186062765902  0.726929279220345  1.0000
  H   H16       1.0  0.6353361473720486  0.16397216833157646  0.8407076685382651  1.0000
  H   H17       1.0  0.7194893807911746  0.0017241667489653612  0.746598092478594  1.0000
  C   C28       1.0  0.9026761648382615  0.3780772582714724  0.1726953691178552  1.0000
  C   C29       1.0  0.9264231519081859  0.24649208750655371  0.18122838850549328  1.0000
  C   C30       1.0  0.9392167333812171  0.18054172866254214  0.06831139768774608  1.0000
  C   C31       1.0  0.926351359433214  0.24678863595243294  0.9459633462846524  1.0000
  C   C32       1.0  0.9025496925139126  0.3782855062366304  0.9354325481569616  1.0000
  C   C33       1.0  0.8910392072828635  0.44326388454551724  0.049383553913624256  1.0000
  C   C34       1.0  0.9635314557432844  0.041215362480310214  0.07722132602194676  1.0000
  O   O2        1.0  0.9403774653129202  0.9690657277767405  0.9933907894891649  1.0000
  C   C35       1.0  0.014118348483307841  0.9837424719068558  0.18113322391820685  1.0000
  C   C36       1.0  0.008038954440404922  0.8520644908584222  0.22651572158422972  1.0000
  C   C37       1.0  0.05606699732715059  0.7965789294621983  0.3233761084206572  1.0000
  F   F2        1.0  0.04938801679536109  0.6698232358977901  0.3671622992552488  1.0000
  C   C38       1.0  0.11095113778262422  0.8716043526101093  0.37502738501058697  1.0000
  C   C39       1.0  0.11811215869025005  0.0020255734277732085  0.32956415372709924  1.0000
  C   C40       1.0  0.0702331753815284  0.0579158568513114  0.2327724940497049  1.0000
  H   H18       1.0  0.8567589930176455  0.6258335017301291  0.36397642954826637  1.0000
  H   H19       1.0  0.9341957053053498  0.19473118291481062  0.27592787984799316  1.0000
  H   H20       1.0  0.9356524058169605  0.19579630753855537  0.8588089003831243  1.0000
  H   H21       1.0  0.8727316971255569  0.5447059615507617  0.042001181662600695  1.0000
  H   H22       1.0  0.8928006355893565  0.42849075732687036  0.6039657182579856  1.0000
  H   H23       1.0  0.9657050755710312  0.7925522021786776  0.18777293297428566  1.0000
  H   H24       1.0  0.14815426084049554  0.8286310220024843  0.4499048732360429  1.0000
  H   H25       1.0  0.16103516464290402  0.05976213286898968  0.36893749564015077  1.0000
  H   H26       1.0  0.07764033887635513  0.1585277314804039  0.19738769972464465  1.0000
  Zn  Zn1       1.0  0.82029442007226  0.3820844424165384  0.5552728594987497  1.0000
  Zn  Zn2       1.0  0.9849242701251307  0.3742780716831857  0.552854544529022  1.0000
  C   C41       1.0  0.9025708681971056  0.3730724042548672  0.791259703846612  1.0000
  C   C42       1.0  0.9026496200722617  0.3832916633066936  0.31686780098365763  1.0000
  C   C43       1.0  0.9026591863656376  0.6153799325108205  0.5488517930811376  1.0000
  C   C44       1.0  0.9025612453915888  0.14098257738058617  0.5592757820565879  1.0000
  O   O3        1.0  0.9651168803491845  0.3820735223367435  0.36433564910625815  1.0000
  O   O4        1.0  0.965053854693416  0.3683647106091854  0.7419560369252931  1.0000
  O   O5        1.0  0.965124330298919  0.5640311443771624  0.5462099460668155  1.0000
  O   O6        1.0  0.9650463485847374  0.1864071004964829  0.56008164341391  1.0000
  O   O7        1.0  0.8401722854325665  0.5699554162685836  0.5480457614322827  1.0000
  O   O8        1.0  0.8401018101591177  0.37429054283610363  0.7437917828017246  1.0000
  O   O9        1.0  0.8401648361143024  0.3879993088774971  0.36616983358971433  1.0000
  O   O10       1.0  0.8400943043287127  0.19233287777486296  0.5619159252666126  1.0000
