data_image0
_chemical_formula_structural       NC10NC3NH7C7OC3NC3H11C7OC4NC3H9Zn2C4O8
_chemical_formula_sum              "N5 C44 H27 O10 Zn2"
_cell_length_a       19.210446455230148
_cell_length_b       10.298746005989749
_cell_length_c       10.299375074045738
_cell_angle_alpha    85.54279281073397
_cell_angle_beta     89.9839463016943
_cell_angle_gamma    89.95621662588981

_space_group_name_H-M_alt    "P 1"
_space_group_IT_number       1

loop_
  _space_group_symop_operation_xyz
  'x, y, z'

loop_
  _atom_site_type_symbol
  _atom_site_label
  _atom_site_symmetry_multiplicity
  _atom_site_fract_x
  _atom_site_fract_y
  _atom_site_fract_z
  _atom_site_occupancy
  N   N1        1.0  0.6556777001098794  0.420855861033143  0.567410282308664  1.0000
  C   C1        1.0  0.595449149761474  0.4230634403284381  0.5676416769218271  1.0000
  C   C2        1.0  0.5206447089566052  0.4258004344905266  0.5679283461974163  1.0000
  C   C3        1.0  0.4850335826201145  0.5420331291387817  0.5830532274801239  1.0000
  C   C4        1.0  0.4123681055803926  0.5421846979655454  0.5830006441413664  1.0000
  C   C5        1.0  0.375477952927215  0.426509416942491  0.56801490899798  1.0000
  C   C6        1.0  0.2981558274747065  0.42515290534319217  0.567864165245864  1.0000
  C   C7        1.0  0.2604044450440149  0.5287560308752242  0.5045108326866381  1.0000
  C   C8        1.0  0.1876260916717402  0.5273537443584884  0.5044016035193681  1.0000
  C   C9        1.0  0.1515977122739784  0.42260588059018067  0.5675947355652391  1.0000
  C   C10       1.0  0.0766681956045361  0.42130376138327685  0.567457761509951  1.0000
  N   N2        1.0  0.0164303460068181  0.420256813315137  0.567347669242114  1.0000
  C   C11       1.0  0.1886254384684539  0.31912846641702086  0.6309230720879304  1.0000
  C   C12       1.0  0.2614056382163252  0.3202564455153232  0.6310825198114354  1.0000
  C   C13       1.0  0.4136989325385192  0.31209699182005646  0.5531783994717445  1.0000
  N   N3        1.0  0.4844688767900056  0.3145420730957764  0.5533442312246959  1.0000
  H   H1        1.0  0.513134184326731  0.6314682351708967  0.595111742655229  1.0000
  H   H2        1.0  0.3850988348732231  0.6322011523507738  0.596454003223774  1.0000
  H   H3        1.0  0.2871336980260265  0.6100355116885163  0.45352678515941247  1.0000
  H   H4        1.0  0.1594816005513849  0.6078049295965449  0.45474791620603083  1.0000
  H   H5        1.0  0.1612566008307846  0.23771385615539598  0.6804771673611736  1.0000
  H   H6        1.0  0.2889052018942062  0.23992387933187032  0.6821740061040644  1.0000
  H   H7        1.0  0.3874340103909617  0.22121757425507838  0.5396786989643829  1.0000
  C   C14       1.0  0.8360240853431513  0.039154328350696765  0.5673618120987418  1.0000
  C   C15       1.0  0.8685947254125259  0.0476540349474448  0.4448471576938118  1.0000
  C   C16       1.0  0.8843320780486814  0.9348300097996993  0.3822089224693497  1.0000
  C   C17       1.0  0.868595250372027  0.812417452710573  0.44479801860394796  1.0000
  C   C18       1.0  0.836090598410112  0.8019483925042593  0.5674073569252169  1.0000
  C   C19       1.0  0.8198437215552496  0.9158828569860784  0.6277568101315072  1.0000
  C   C20       1.0  0.9193179968351497  0.9436129238803265  0.2533823421684518  1.0000
  O   O1        1.0  0.9618211673357091  0.855574171904053  0.22816173568102194  1.0000
  C   C21       1.0  0.9060882254844687  0.052211471509338025  0.15317506737022657  1.0000
  C   C22       1.0  0.8401759427134216  0.11171770894412836  0.14107859082296703  1.0000
  C   C23       1.0  0.8279841157714811  0.21344623454547818  0.04517020048831566  1.0000
  N   N4        1.0  0.7609574789013288  0.2737961661236179  0.033977328437190035  1.0000
  C   C24       1.0  0.8817477105064074  0.2552765377234296  0.9600234198271349  1.0000
  C   C25       1.0  0.9470247138253436  0.19560731167511003  0.9702638636801648  1.0000
  C   C26       1.0  0.959162414959882  0.09430346816546997  0.06586804377937039  1.0000
  H   H8        1.0  0.7754468757486757  0.23038730560434506  0.7997168580285898  1.0000
  H   H9        1.0  0.8824403549580363  0.14216578963279436  0.3986211809384512  1.0000
  H   H10       1.0  0.8811524054988831  0.7252235429743384  0.3970961266036632  1.0000
  H   H11       1.0  0.7947410698460929  0.9085790347295498  0.7221953168111019  1.0000
  H   H12       1.0  0.7749349461011643  0.5748485432622297  0.7992739587612645  1.0000
  H   H13       1.0  0.7980174401529417  0.07835878107501659  0.2050509795531994  1.0000
  H   H14       1.0  0.7205088555677339  0.24338483736537886  0.09693791999625367  1.0000
  H   H15       1.0  0.7513051354321665  0.34945521172583893  0.9627378824959263  1.0000
  H   H16       1.0  0.8729798926689681  0.3336715684352751  0.885534952811291  1.0000
  H   H17       1.0  0.9883304736900795  0.22793295412445946  0.9039592237834109  1.0000
  H   H18       1.0  0.010214579846210325  0.049574232130499274  0.07238698688625922  1.0000
  C   C27       1.0  0.8360810214147991  0.4206936782174393  0.18599783507358292  1.0000
  C   C28       1.0  0.8896703114052285  0.513723513988233  0.17755059343370916  1.0000
  C   C29       1.0  0.9161585754987174  0.5617264041142305  0.05603276569654003  1.0000
  C   C30       1.0  0.8895575872937417  0.5134859453672576  0.942325282585168  1.0000
  C   C31       1.0  0.8360336495546742  0.42040904841726  0.9487713823542774  1.0000
  C   C32       1.0  0.8094802885769155  0.3748030274341021  0.07108563862605521  1.0000
  C   C33       1.0  0.9732449075716045  0.658958717637635  0.047051123763696134  1.0000
  O   O2        1.0  0.017728071083125574  0.6541994397292179  0.9574081874746327  1.0000
  C   C34       1.0  0.979857530205751  0.7616019295340839  0.1396826080810014  1.0000
  C   C35       1.0  0.0460564353312054  0.8080569721619084  0.17143045802058543  1.0000
  C   C36       1.0  0.052810325569671024  0.9060658728671389  0.25765187499456377  1.0000
  C   C37       1.0  0.12079158691372305  0.9523086099902587  0.290430512066042  1.0000
  N   N5        1.0  0.1754408618479637  0.9894769434003559  0.31677708175439734  1.0000
  C   C38       1.0  0.9933718553255297  0.9590201186502016  0.31185877908869264  1.0000
  C   C39       1.0  0.9274050178913676  0.9145765113261188  0.279610055800406  1.0000
  C   C40       1.0  0.920512710740703  0.8168378478650065  0.1936642377606448  1.0000
  H   H19       1.0  0.7356836627841618  0.24367050373968824  0.4093734427060194  1.0000
  H   H20       1.0  0.9114053118774837  0.5478916320950982  0.26573211460981994  1.0000
  H   H21       1.0  0.9102804506410738  0.5496904639086437  0.8485786903081571  1.0000
  H   H22       1.0  0.7681670929252363  0.30308315183064183  0.07679402581845252  1.0000
  H   H23       1.0  0.8158735072570229  0.38385267634225717  0.6238525818011378  1.0000
  H   H24       1.0  0.09232940851381621  0.7672565680671193  0.13003933112803168  1.0000
  H   H25       1.0  0.9980220310264315  0.03489681937491573  0.3785416983355079  1.0000
  H   H26       1.0  0.881478931010705  0.9563551202622746  0.32085236228656333  1.0000
  H   H27       1.0  0.8688063978054296  0.785527503117073  0.16836802092346614  1.0000
  Zn  Zn1       1.0  0.7597831194224437  0.4206795216490731  0.5673997127413077  1.0000
  Zn  Zn2       1.0  0.9123249091710346  0.42042256526392086  0.5673688744521599  1.0000
  C   C41       1.0  0.836040617038183  0.41528870307672516  0.804590512154254  1.0000
  C   C42       1.0  0.8360690774418988  0.4258150197445403  0.3301782022727524  1.0000
  C   C43       1.0  0.8360747723051041  0.6577659978502848  0.5622233462717012  1.0000
  C   C44       1.0  0.8360348699827437  0.1833361645948246  0.5725454373144978  1.0000
  O   O3        1.0  0.8939538826727058  0.4274306089028983  0.37855474730027283  1.0000
  O   O4        1.0  0.8939315005875628  0.41347711029959133  0.7561901876567751  1.0000
  O   O5        1.0  0.8939583009448195  0.6092805931837333  0.5604769866571273  1.0000
  O   O6        1.0  0.8939270302701243  0.23162713543380775  0.5742678509317749  1.0000
  O   O7        1.0  0.7781809462683282  0.6094749515682898  0.5605007362653851  1.0000
  O   O8        1.0  0.7781541460482796  0.4136730291494073  0.7562138681095327  1.0000
  O   O9        1.0  0.7781765282727013  0.4276264830754626  0.37857686627658427  1.0000
  O   O10       1.0  0.7781496758604184  0.2318230002804238  0.574290067279924  1.0000
