data_image0
_chemical_formula_structural       NC10NC3NCH9C7OC6OCH12C7OC6H10Zn2C4O8
_chemical_formula_sum              "N3 C45 H31 O11 Zn2"
_cell_length_a       19.437513618241372
_cell_length_b       10.299359160628079
_cell_length_c       10.299382801718286
_cell_angle_alpha    85.57723515363111
_cell_angle_beta     90.32786270847616
_cell_angle_gamma    89.54510135387923

_space_group_name_H-M_alt    "P 1"
_space_group_IT_number       1

loop_
  _space_group_symop_operation_xyz
  'x, y, z'

loop_
  _atom_site_type_symbol
  _atom_site_label
  _atom_site_symmetry_multiplicity
  _atom_site_fract_x
  _atom_site_fract_y
  _atom_site_fract_z
  _atom_site_occupancy
  N   N1        1.0  0.6484003782474513  0.41024008308227367  0.5758950079276837  1.0000
  C   C1        1.0  0.5894710856765772  0.4272499585743075  0.5729222187743455  1.0000
  C   C2        1.0  0.5160356618127039  0.448502243692261  0.569232234314629  1.0000
  C   C3        1.0  0.47425329029231916  0.34730949916673404  0.5575537569321596  1.0000
  C   C4        1.0  0.3983664805966604  0.3573734779919475  0.5503343130727698  1.0000
  C   C5        1.0  0.3588003452887454  0.4382313180304238  0.6160921895160985  1.0000
  C   C6        1.0  0.2826174486303454  0.4296218901716946  0.607646450117242  1.0000
  C   C7        1.0  0.2494550864589132  0.3082762645135275  0.6122668256449986  1.0000
  C   C8        1.0  0.177720026420016  0.3019035342788592  0.6050975552672244  1.0000
  C   C9        1.0  0.1381765520722372  0.41640378328403527  0.5936700516829243  1.0000
  C   C10       1.0  0.0643269694228548  0.409692848135347  0.5863326257136678  1.0000
  N   N2        1.0  0.0049570030657267  0.4042978464048972  0.5804337937521318  1.0000
  C   C11       1.0  0.170622151023729  0.5374389239923845  0.5897948938077853  1.0000
  C   C12       1.0  0.24234166184749492  0.5440656560926087  0.5970262338037631  1.0000
  C   C13       1.0  0.3874919487842549  0.5305280106270833  0.7060296791926961  1.0000
  N   N3        1.0  0.4444934572211853  0.5937389274484046  0.6856374584753333  1.0000
  C   C14       1.0  0.48834697607589284  0.584464638456065  0.5725280919708542  1.0000
  H   H1        1.0  0.49661820477017543  0.2522507487946317  0.5454145224155154  1.0000
  H   H2        1.0  0.3736448022210834  0.28785375260375723  0.4920029723692567  1.0000
  H   H3        1.0  0.2788844200497108  0.21836463640298964  0.6232706277088522  1.0000
  H   H4        1.0  0.15310545467937023  0.20767662727729497  0.6089668604756919  1.0000
  H   H5        1.0  0.14050709043547513  0.6266959001340846  0.5811031163252858  1.0000
  H   H6        1.0  0.2664748036600653  0.6387053657201605  0.5931415470773262  1.0000
  H   H7        1.0  0.35748215214581214  0.5509234356760422  0.7904002324014374  1.0000
  H   H8        1.0  0.5311141275852791  0.6547785479365724  0.5783048278669167  1.0000
  H   H9        1.0  0.4586978327306885  0.6125634071259511  0.48188781098936206  1.0000
  C   C15       1.0  0.8266010330017463  0.025891934977898323  0.5781319425987581  1.0000
  C   C16       1.0  0.7697104994561405  0.032104904960587266  0.49301107288490287  1.0000
  C   C17       1.0  0.7415098685788704  0.9182455247966483  0.4489915820531105  1.0000
  C   C18       1.0  0.7698743342269467  0.7968407100640141  0.493268263855954  1.0000
  C   C19       1.0  0.826762945836761  0.7886357980175486  0.578208249855672  1.0000
  C   C20       1.0  0.8548937282672577  0.9037514665507349  0.6199413352102667  1.0000
  C   C21       1.0  0.6809610268799624  0.9269504941431401  0.3602876197581162  1.0000
  O   O1        1.0  0.6372377466461705  0.016554062450504947  0.37129753290226275  1.0000
  C   C22       1.0  0.6700119852579456  0.8340757936428835  0.2591010824557076  1.0000
  C   C23       1.0  0.7259836900729703  0.7797819425106699  0.19575862447191716  1.0000
  C   C24       1.0  0.7149427508925212  0.6935610096481332  0.09953659246737012  1.0000
  C   C25       1.0  0.6481118041690186  0.6607538528088315  0.06392327528510733  1.0000
  C   C26       1.0  0.5919087581979762  0.7160860853682726  0.1259510338230625  1.0000
  C   C27       1.0  0.6028867771622659  0.8023669650381107  0.2222186862126918  1.0000
  O   O2        1.0  0.6397964006802352  0.5736469512594761  0.966919447515433  1.0000
  C   C28       1.0  0.5749692499345594  0.5318743570637042  0.9212262940672953  1.0000
  H   H10       1.0  0.9337735195163772  0.22140903524694466  0.7391709518019485  1.0000
  H   H11       1.0  0.7475900253504986  0.12579533030188395  0.45974481379923526  1.0000
  H   H12       1.0  0.7470402338684925  0.708578292224389  0.4625262369311902  1.0000
  H   H13       1.0  0.8987772262768191  0.898154369367504  0.6854684662100567  1.0000
  H   H14       1.0  0.8484098045187743  0.4579858647735509  0.6112018153618715  1.0000
  H   H15       1.0  0.7782858715691037  0.805002691213564  0.21955545314408043  1.0000
  H   H16       1.0  0.7586147627644979  0.6523763244439093  0.051911418849846847  1.0000
  H   H17       1.0  0.5395781216782047  0.6931424884339843  0.10050923280075486  1.0000
  H   H18       1.0  0.5588304414359283  0.843512061644704  0.2687882098365564  1.0000
  H   H19       1.0  0.5835713101342086  0.46332102255161356  0.8448612350947817  1.0000
  H   H20       1.0  0.5447455851853118  0.6167182186476405  0.8783316741361356  1.0000
  H   H21       1.0  0.5460738439527866  0.4808020556141854  0.0023939170887399275  1.0000
  C   C29       1.0  0.8267506010460707  0.4071895192164863  0.19680115402148757  1.0000
  C   C30       1.0  0.8990299203077845  0.40684841418099604  0.1964176714465844  1.0000
  C   C31       1.0  0.9354852433898061  0.40518826336442215  0.0791659893638974  1.0000
  C   C32       1.0  0.8988622723393219  0.4068792455633885  0.9611699713917377  1.0000
  C   C33       1.0  0.8266133429219825  0.4073382657115696  0.9595389551842466  1.0000
  C   C34       1.0  0.790976528825268  0.4071460113039205  0.07792567123275296  1.0000
  C   C35       1.0  0.011803103118268599  0.40621208126909325  0.07850921845612313  1.0000
  O   O3        1.0  0.042129732222234706  0.4664169683185917  0.9843743175008526  1.0000
  C   C36       1.0  0.05371708766027994  0.33892879013289323  0.18454245263180402  1.0000
  C   C37       1.0  0.11839456392107994  0.38831186897382497  0.2164721005391783  1.0000
  C   C38       1.0  0.1586313598140292  0.3247059305589528  0.31523258505565654  1.0000
  C   C39       1.0  0.13503303466848315  0.21079295005298326  0.38228500304617397  1.0000
  C   C40       1.0  0.07126756449990101  0.15994767493779216  0.35034380488786687  1.0000
  C   C41       1.0  0.030834696739457934  0.22317815977152722  0.25168284830663423  1.0000
  H   H22       1.0  0.6903491328668531  0.4098449698879332  0.40468958772518726  1.0000
  H   H23       1.0  0.9270589551182268  0.40933183250238625  0.2873736020271862  1.0000
  H   H24       1.0  0.92689777992791  0.40658336600221645  0.8705753869587158  1.0000
  H   H25       1.0  0.7352546197412634  0.40740977631012254  0.07741707218460836  1.0000
  H   H26       1.0  0.7988587254077636  0.40861960085333715  0.6313706904587142  1.0000
  H   H27       1.0  0.13751431329275654  0.476668353851029  0.16578863876651817  1.0000
  H   H28       1.0  0.20816385653922254  0.36376511805613765  0.3397396883627144  1.0000
  H   H29       1.0  0.166276643206978  0.1616438429032041  0.4586213849346237  1.0000
  H   H30       1.0  0.05326759386446778  0.07111660865525238  0.40167023865043405  1.0000
  H   H31       1.0  0.9821276272872859  0.1808229696926269  0.22699971178115463  1.0000
  Zn  Zn1       1.0  0.7512949215399705  0.40852179411147804  0.5772123120790362  1.0000
  Zn  Zn2       1.0  0.9020624617984253  0.4060054676828102  0.5791271584066005  1.0000
  C   C42       1.0  0.8266366753528592  0.40213638080529535  0.8153646757132964  1.0000
  C   C43       1.0  0.8267223546872855  0.41239249218972884  0.3409749433127034  1.0000
  C   C44       1.0  0.8267297241885563  0.6444600570956005  0.573018576056799  1.0000
  C   C45       1.0  0.8266292540615007  0.1700672564361394  0.583321111398412  1.0000
  O   O4        1.0  0.8839283695450159  0.41317805882284553  0.3900876576781447  1.0000
  O   O5        1.0  0.8838597348871774  0.3994400008206169  0.7677049114599432  1.0000
  O   O6        1.0  0.8839341014635558  0.5951194471624786  0.5720087116874255  1.0000
  O   O7        1.0  0.8838539515413805  0.2174986226110649  0.585783759423514  1.0000
  O   O8        1.0  0.7695033803474547  0.5970286400433347  0.5705557104018482  1.0000
  O   O9        1.0  0.7694290141116035  0.4013507540248693  0.7662518410848809  1.0000
  O   O10       1.0  0.7694976490865196  0.4150887664649334  0.3886330258984232  1.0000
  O   O11       1.0  0.7694232310605806  0.2194093209831831  0.5843292250106678  1.0000
