data_image0
_chemical_formula_structural       NC10NC5H10C7OC3FC3H9C6NCOC6H11Zn2C4O8
_chemical_formula_sum              "N3 C45 H30 O10 F1 Zn2"
_cell_length_a       19.4436361288709
_cell_length_b       10.29937835083307
_cell_length_c       10.299662537453274
_cell_angle_alpha    85.53091033731847
_cell_angle_beta     89.69093770751046
_cell_angle_gamma    89.43853249218071

_space_group_name_H-M_alt    "P 1"
_space_group_IT_number       1

loop_
  _space_group_symop_operation_xyz
  'x, y, z'

loop_
  _atom_site_type_symbol
  _atom_site_label
  _atom_site_symmetry_multiplicity
  _atom_site_fract_x
  _atom_site_fract_y
  _atom_site_fract_z
  _atom_site_occupancy
  N   N1        1.0  0.6480897163545503  0.40990069243985827  0.5618847737643899  1.0000
  C   C1        1.0  0.5892547018996052  0.4197949690812155  0.5762678104165586  1.0000
  C   C2        1.0  0.5159265630150005  0.43213442875645236  0.594258958728666  1.0000
  C   C3        1.0  0.47374295691174434  0.4001888225651651  0.4995872067386724  1.0000
  C   C4        1.0  0.3978398776415208  0.4106245164487339  0.5049140836034134  1.0000
  C   C5        1.0  0.3580888563816456  0.385816523075841  0.6119919599675303  1.0000
  C   C6        1.0  0.2819699029002725  0.3897404468121448  0.599031805753192  1.0000
  C   C7        1.0  0.24141142036596422  0.44735182217854175  0.6927972501890762  1.0000
  C   C8        1.0  0.1697494036907918  0.4509955341459515  0.6822526619199789  1.0000
  C   C9        1.0  0.1376510211173514  0.39663168734568743  0.5782292119845873  1.0000
  C   C10       1.0  0.0638597815459888  0.4003367305901053  0.5675293306244698  1.0000
  N   N2        1.0  0.0045366299154759  0.40331539085968626  0.558927335394046  1.0000
  C   C11       1.0  0.1774844556370485  0.3383129854410889  0.48484709990359875  1.0000
  C   C12       1.0  0.2491629082150695  0.3346151870328711  0.49513991210784125  1.0000
  C   C13       1.0  0.38620531675096165  0.3452818164511178  0.7430945348783329  1.0000
  C   C14       1.0  0.4448737217662024  0.3883789851863382  0.7903326273457927  1.0000
  C   C15       1.0  0.4891043189198619  0.486281638957927  0.7159512590563182  1.0000
  H   H1        1.0  0.49584267370596535  0.37112075114285514  0.4092820943591149  1.0000
  H   H2        1.0  0.3731519235299472  0.43317151540238985  0.41175087727261084  1.0000
  H   H3        1.0  0.2652844382523689  0.4905993939798352  0.7736418810967505  1.0000
  H   H4        1.0  0.1394080668208336  0.49627128977812185  0.7551694004014415  1.0000
  H   H5        1.0  0.1531395689098889  0.2952608924697504  0.40433693459094266  1.0000
  H   H6        1.0  0.278838165273687  0.2870955814530183  0.4229198041837645  1.0000
  H   H7        1.0  0.35522358180677976  0.28102702345120467  0.8073509235971226  1.0000
  H   H8        1.0  0.4600107058540115  0.35425638731257236  0.8882734801234942  1.0000
  H   H9        1.0  0.4590138649190779  0.5770129172504375  0.6906873817483485  1.0000
  H   H10       1.0  0.5323898931506209  0.5118335526965319  0.7790343877825412  1.0000
  C   C16       1.0  0.826243960697169  0.02522433074498065  0.5604706696342083  1.0000
  C   C17       1.0  0.7544853099978546  0.026563836755631565  0.5450409600380492  1.0000
  C   C18       1.0  0.7182047195147101  0.9099526867869226  0.5387367452779246  1.0000
  C   C19       1.0  0.7546534858166132  0.7913167241939064  0.5450464400821666  1.0000
  C   C20       1.0  0.826388946121985  0.7879816699265288  0.5603526708676259  1.0000
  C   C21       1.0  0.8617478528677359  0.9054634750355735  0.5683183356736545  1.0000
  C   C22       1.0  0.6425176960727149  0.9113284398427777  0.5210701060373975  1.0000
  O   O1        1.0  0.6159599060090558  0.8271541662858815  0.4546282198373308  1.0000
  C   C23       1.0  0.5969589007083571  0.008095763566404512  0.5787880767031286  1.0000
  C   C24       1.0  0.535699605669945  0.04925004852149906  0.5155143102347313  1.0000
  C   C25       1.0  0.4920023760930732  0.13929354665316507  0.5699387562073945  1.0000
  F   F1        1.0  0.4333253157932521  0.17909179349550475  0.5077049451039213  1.0000
  C   C26       1.0  0.5087278648056903  0.18823594739609195  0.6884072530633982  1.0000
  C   C27       1.0  0.5689996045065914  0.14684709477792857  0.7529037985257252  1.0000
  C   C28       1.0  0.6128389996278343  0.056872423300036834  0.6988828926587094  1.0000
  H   H11       1.0  0.9617813055505466  0.2301697683171362  0.5875912304913846  1.0000
  H   H12       1.0  0.726812553637988  0.11858989141792953  0.536457259588782  1.0000
  H   H13       1.0  0.7268104815397955  0.7013648461678528  0.5392250283534825  1.0000
  H   H14       1.0  0.9170684399725116  0.9036268123972528  0.5802127530198722  1.0000
  H   H15       1.0  0.8540113016322417  0.4593278862990307  0.5651360018629965  1.0000
  H   H16       1.0  0.5220076144396439  0.012536403903566029  0.4234678361516724  1.0000
  H   H17       1.0  0.4748825467973301  0.25783323100201483  0.7305678149468671  1.0000
  H   H18       1.0  0.5816282616030031  0.1840674657711019  0.8451726691688533  1.0000
  H   H19       1.0  0.6586692733547341  0.02444347932495372  0.7516557915167843  1.0000
  C   C29       1.0  0.8263638324803173  0.4067426445633735  0.17903527045577805  1.0000
  C   C30       1.0  0.896580077063354  0.4378212827640038  0.1746337527679982  1.0000
  C   C31       1.0  0.932153753130149  0.4515897216410911  0.05573172895864942  1.0000
  C   C32       1.0  0.8964596675534057  0.43751342156975803  0.9394915027028521  1.0000
  C   C33       1.0  0.8262691079722994  0.4064633143069265  0.9417880557408682  1.0000
  C   C34       1.0  0.7916761142698701  0.39080759171856316  0.06212459259211056  1.0000
  N   N3        1.0  0.0037815406857051315  0.4853533999706501  0.054648493632476036  1.0000
  C   C35       1.0  0.05245169263169713  0.4446025870233046  0.9600377830985405  1.0000
  O   O2        1.0  0.03988841616641858  0.3462725175065937  0.8986055946870128  1.0000
  C   C36       1.0  0.11850016480735537  0.5137138904432539  0.9371285815368569  1.0000
  C   C37       1.0  0.1268221289153153  0.6416355461288263  0.9733937357669133  1.0000
  C   C38       1.0  0.18923033714095294  0.7060407405297029  0.9506753122612586  1.0000
  C   C39       1.0  0.24381691244473247  0.6440027907486583  0.891256926256033  1.0000
  C   C40       1.0  0.23605332587562478  0.5175172605628047  0.8539809498273319  1.0000
  C   C41       1.0  0.17376230020957162  0.45265285070842776  0.8763693916046726  1.0000
  H   H20       1.0  0.6937542269498683  0.3493270533431623  0.39450954515545744  1.0000
  H   H21       1.0  0.9241391131836952  0.45053183810689656  0.2638234502884089  1.0000
  H   H22       1.0  0.9231021648698365  0.4529857709994032  0.8471548080707687  1.0000
  H   H23       1.0  0.7375494747841357  0.36683247194146085  0.06465353904189719  1.0000
  H   H24       1.0  0.7991222695649197  0.3962373772822536  0.6150913585174069  1.0000
  H   H25       1.0  0.022561236516240424  0.5322121735284333  0.1334080434518743  1.0000
  H   H26       1.0  0.08504076316755715  0.6929447110614184  0.01750650371770024  1.0000
  H   H27       1.0  0.19516572955185807  0.8044146036297308  0.9787268409788945  1.0000
  H   H28       1.0  0.2920529131165628  0.6940918279942796  0.8737313965792617  1.0000
  H   H29       1.0  0.27834372924773465  0.46961613954525205  0.8076664544404726  1.0000
  H   H30       1.0  0.16900550697976224  0.3544798432472449  0.8469330127268475  1.0000
  Zn  Zn1       1.0  0.7509525956049935  0.40799684239964407  0.5610388337585848  1.0000
  Zn  Zn2       1.0  0.9016737388368342  0.40520862889556697  0.5597839584303907  1.0000
  C   C42       1.0  0.8262844773577238  0.4013422758501781  0.7976122664884073  1.0000
  C   C43       1.0  0.826343503249978  0.41186480363403644  0.3232106392128029  1.0000
  C   C44       1.0  0.8263586540594255  0.6438062353771778  0.5551997264539801  1.0000
  C   C45       1.0  0.8262692748124625  0.16939928467024679  0.5656232491568205  1.0000
  O   O3        1.0  0.8835345678641232  0.41252006855545487  0.3711209922552767  1.0000
  O   O4        1.0  0.8834872728668735  0.3985698417705854  0.7487491184058803  1.0000
  O   O5        1.0  0.8835464002689556  0.5943625692332712  0.5529992834299708  1.0000
  O   O6        1.0  0.8834753890449862  0.21672735137043708  0.5668707302813751  1.0000
  O   O7        1.0  0.7691508939631135  0.5964781208776706  0.5539520623289966  1.0000
  O   O8        1.0  0.7690917668631172  0.40068695380467156  0.749701827816712  1.0000
  O   O9        1.0  0.7691390620914602  0.41463713590276696  0.3720721402414098  1.0000
  O   O10       1.0  0.7690798832556501  0.218844409392978  0.567821975638716  1.0000
