data_image0
_chemical_formula_structural       NC12NC2H8C7OC6OCH12C7OC6OCH12Zn2C4O8
_chemical_formula_sum              "N2 C46 H32 O12 Zn2"
_cell_length_a       19.240039667572717
_cell_length_b       10.299359160628079
_cell_length_c       10.299362532796529
_cell_angle_alpha    85.5843088683533
_cell_angle_beta     90.01509071760941
_cell_angle_gamma    90.02126226386561

_space_group_name_H-M_alt    "P 1"
_space_group_IT_number       1

loop_
  _space_group_symop_operation_xyz
  'x, y, z'

loop_
  _atom_site_type_symbol
  _atom_site_label
  _atom_site_symmetry_multiplicity
  _atom_site_fract_x
  _atom_site_fract_y
  _atom_site_fract_z
  _atom_site_occupancy
  N   N1        1.0  0.6545574286880763  0.42086839813786514  0.5676519322443059  1.0000
  C   C1        1.0  0.5944090598759227  0.42086848209598604  0.5676518503192494  1.0000
  C   C2        1.0  0.519591022738694  0.42086859934236376  0.5676517130312997  1.0000
  C   C3        1.0  0.4831190881285519  0.3564334629796948  0.6710543225518018  1.0000
  C   C4        1.0  0.41044833020606564  0.3563226055929545  0.6711408491445012  1.0000
  C   C5        1.0  0.373258787787637  0.42086869183995357  0.5676514853635684  1.0000
  C   C6        1.0  0.4104449238210134  0.48541496513737714  0.46416231614771863  1.0000
  C   C7        1.0  0.4831156024327412  0.4853038722830918  0.46424896520804926  1.0000
  C   C8        1.0  0.2960536973189227  0.42086861314767443  0.5676513899377855  1.0000
  C   C9        1.0  0.2588492921943431  0.30761795171134154  0.6095061970056357  1.0000
  C   C10       1.0  0.18617861216673548  0.30772482651724853  0.6094148869043599  1.0000
  C   C11       1.0  0.14972141037865377  0.42086848399036847  0.5676514508298303  1.0000
  C   C12       1.0  0.0749033732361785  0.42086837032091706  0.5676516994734064  1.0000
  N   N2        1.0  0.0147550564053674  0.4208683295601898  0.5676519078858626  1.0000
  C   C13       1.0  0.1862117194547896  0.5340122172767214  0.5258879618753558  1.0000
  C   C14       1.0  0.25888242404204764  0.5341192721581007  0.5257964892054088  1.0000
  H   H1        1.0  0.5108354271736626  0.3065465861458938  0.7517882010234274  1.0000
  H   H2        1.0  0.3833568124347318  0.3072341740612563  0.7529903383214798  1.0000
  H   H3        1.0  0.38334991080242103  0.5345034237065911  0.38231277612635983  1.0000
  H   H4        1.0  0.5108290348696953  0.5351906489363765  0.383515362516321  1.0000
  H   H5        1.0  0.28592925024318505  0.21846997517514422  0.6406612744868476  1.0000
  H   H6        1.0  0.1584507774092468  0.21947636741171261  0.6416030495333185  1.0000
  H   H7        1.0  0.1585097307616659  0.6222606518492673  0.49369981379334593  1.0000
  H   H8        1.0  0.2859889448198308  0.6232673278591052  0.4946413669638976  1.0000
  C   C15       1.0  0.8345777879368493  0.039490073937245906  0.5676204151841309  1.0000
  C   C16       1.0  0.7770789618605741  0.0447444569631239  0.4832243910931624  1.0000
  C   C17       1.0  0.748576209024624  0.9304096789444212  0.43956422005001117  1.0000
  C   C18       1.0  0.7772445523146526  0.8094830241248967  0.4834794945439784  1.0000
  C   C19       1.0  0.8347413782213675  0.8022366445684093  0.5676946607637845  1.0000
  C   C20       1.0  0.8631728287206902  0.9178262633569834  0.6090693328873866  1.0000
  C   C21       1.0  0.6873805715811868  0.9380946545660421  0.35163169970057373  1.0000
  O   O1        1.0  0.6432145546199987  0.026970981346692735  0.36319811173227445  1.0000
  C   C22       1.0  0.6762869781822162  0.8450249458553196  0.2505853105391076  1.0000
  C   C23       1.0  0.7328094868309503  0.7916559526033237  0.18653083381869484  1.0000
  C   C24       1.0  0.7216246665866863  0.7052390960169839  0.09045008197702509  1.0000
  C   C25       1.0  0.6541000037632198  0.6713138462526311  0.05568777156543625  1.0000
  C   C26       1.0  0.5973433665178638  0.7257172027535478  0.1184305037465525  1.0000
  C   C27       1.0  0.608464639072479  0.8121929633003819  0.21455767657921432  1.0000
  O   O2        1.0  0.6456682867194479  0.5840563424838382  0.9587905347545655  1.0000
  C   C28       1.0  0.5801646071945548  0.5411977962824897  0.913922957179854  1.0000
  H   H9        1.0  0.9428964204000452  0.23681308068950657  0.7272939282366826  1.0000
  H   H10       1.0  0.7547219134760439  0.1380621385419798  0.45023997155258644  1.0000
  H   H11       1.0  0.7541674113329734  0.7208362837564719  0.4530283721664028  1.0000
  H   H12       1.0  0.9075255008249884  0.912968572403444  0.6740373426741604  1.0000
  H   H13       1.0  0.856619888395547  0.4719515289019447  0.6004124177672141  1.0000
  H   H14       1.0  0.7856532531957506  0.8177512201182342  0.20966169201831253  1.0000
  H   H15       1.0  0.7657270266334605  0.6647762556840706  0.042269340915339404  1.0000
  H   H16       1.0  0.5444703216195057  0.7018984087635187  0.09365504794569346  1.0000
  H   H17       1.0  0.563973690108288  0.8526096796809478  0.26168766799974774  1.0000
  H   H18       1.0  0.5888297265357658  0.4727783335288782  0.8374489783569792  1.0000
  H   H19       1.0  0.5496185349250757  0.6255326876000409  0.8714134010159316  1.0000
  H   H20       1.0  0.5510005544291319  0.489654049326503  0.9954577909819151  1.0000
  C   C29       1.0  0.8346053118617949  0.4207428444893979  0.18629062637609484  1.0000
  C   C30       1.0  0.7686176496287835  0.36206095360711466  0.1895725846479237  1.0000
  C   C31       1.0  0.7350359947472321  0.33378681619405715  0.0740565279262333  1.0000
  C   C32       1.0  0.7688134108600942  0.36222451497893715  0.9543183006690241  1.0000
  C   C33       1.0  0.8347138566102359  0.42098390407599995  0.9490244248930964  1.0000
  C   C34       1.0  0.8671725330533436  0.45015965982941375  0.06554941572051476  1.0000
  C   C35       1.0  0.6657078352277692  0.2704877709341642  0.07985319277568248  1.0000
  O   O3        1.0  0.6514909326654474  0.19127944839125455  0.17574205186296443  1.0000
  C   C36       1.0  0.6125107855706068  0.2970395785187987  0.9769409748043092  1.0000
  C   C37       1.0  0.6071925010231284  0.420414825365075  0.9090995803913473  1.0000
  C   C38       1.0  0.5563252294679315  0.44459496538264  0.8134063540212639  1.0000
  C   C39       1.0  0.5095517435619803  0.34692854217378133  0.7843480503058267  1.0000
  C   C40       1.0  0.51413914487655  0.22374685414802942  0.8531076796955808  1.0000
  C   C41       1.0  0.5650001607446827  0.19943951223994327  0.9488732987008093  1.0000
  O   O4        1.0  0.4595251373102849  0.3760887715890622  0.6873663466250335  1.0000
  C   C42       1.0  0.4088305946760182  0.2863255701089602  0.647985003552729  1.0000
  H   H21       1.0  0.9592425264891197  0.5309841140930365  0.3874056406818185  1.0000
  H   H22       1.0  0.7428792051595534  0.3393195233995765  0.2821044570701632  1.0000
  H   H23       1.0  0.743962525723509  0.3371438995189888  0.8652617917921179  1.0000
  H   H24       1.0  0.9180101014759796  0.4954840683828119  0.06219835916859329  1.0000
  H   H25       1.0  0.8601111567768408  0.4430424044336114  0.6195573697272243  1.0000
  H   H26       1.0  0.6418520031283425  0.4986672476983942  0.9309313940227097  1.0000
  H   H27       1.0  0.5530341726758049  0.5400564323469064  0.7618520063152019  1.0000
  H   H28       1.0  0.4786814288830298  0.14618023529326085  0.8333727086526981  1.0000
  H   H29       1.0  0.5676159078959686  0.10379617306033051  0.00031443666626262967  1.0000
  H   H30       1.0  0.3761948750163382  0.3350217095778898  0.5699063488320628  1.0000
  H   H31       1.0  0.374885048527506  0.2541118640315947  0.7315315479398379  1.0000
  H   H32       1.0  0.43472100839197886  0.20100375491337674  0.6093208707423061  1.0000
  Zn  Zn1       1.0  0.7585026928437382  0.42086491342716514  0.5676594132637769  1.0000
  Zn  Zn2       1.0  0.9108098102569769  0.42086122387995806  0.5676550246793515  1.0000
  C   C43       1.0  0.8346906697408594  0.41576454368377114  0.8048508881268601  1.0000
  C   C44       1.0  0.8346234969184146  0.42596323228325206  0.33046367739353877  1.0000
  C   C45       1.0  0.8347061357420283  0.6580597062324922  0.5625054493831954  1.0000
  C   C46       1.0  0.834607978620686  0.1836665094167016  0.572809185225164  1.0000
  O   O5        1.0  0.892429356077518  0.4277081760709376  0.3788478043559482  1.0000
  O   O6        1.0  0.8924823882882816  0.41401581975035784  0.7564630563910499  1.0000
  O   O7        1.0  0.8924940983035983  0.6096722281946831  0.5607674001251799  1.0000
  O   O8        1.0  0.8924175940782358  0.23205177688754608  0.5745433632500683  1.0000
  O   O9        1.0  0.7768948570475342  0.6096743604222474  0.5607710746877264  1.0000
  O   O10       1.0  0.7768831473538321  0.41401951229842227  0.7564666618603029  1.0000
  O   O11       1.0  0.7768301149574074  0.42771182286842135  0.3788498484283962  1.0000
  O   O12       1.0  0.7768183529671459  0.23205541442676725  0.5745455046889332  1.0000
