data_image0
_chemical_formula_structural       NC12NC2H8C6NCOC6H11C7OC4NC3H9Zn2C4O8
_chemical_formula_sum              "N4 C45 H28 O10 Zn2"
_cell_length_a       17.80743265337812
_cell_length_b       10.29965916528486
_cell_length_c       10.299375074045738
_cell_angle_alpha    85.55751919023885
_cell_angle_beta     91.52722468557046
_cell_angle_gamma    89.45195528988225

_space_group_name_H-M_alt    "P 1"
_space_group_IT_number       1

loop_
  _space_group_symop_operation_xyz
  'x, y, z'

loop_
  _atom_site_type_symbol
  _atom_site_label
  _atom_site_symmetry_multiplicity
  _atom_site_fract_x
  _atom_site_fract_y
  _atom_site_fract_z
  _atom_site_occupancy
  N   N1        1.0  0.7077490843780607  0.4071303264045054  0.6017840366831071  1.0000
  C   C1        1.0  0.6569384921404178  0.4367120381595446  0.533093711396003  1.0000
  C   C2        1.0  0.593725099724665  0.47350953905541115  0.4476515942313002  1.0000
  C   C3        1.0  0.6054686952394689  0.5275724636163523  0.321047186818469  1.0000
  C   C4        1.0  0.5441622533808251  0.5628655870516002  0.2380005933310061  1.0000
  C   C5        1.0  0.47095799795729354  0.5443594710005493  0.28089857876933455  1.0000
  C   C6        1.0  0.45823758063786  0.4901775853512311  0.4079711002945172  1.0000
  C   C7        1.0  0.5204013401397811  0.4548877214166902  0.4910011827680878  1.0000
  C   C8        1.0  0.3804647551740943  0.47055638575418235  0.4537290696321876  1.0000
  C   C9        1.0  0.3616761983164514  0.4976984813152072  0.5807865593530195  1.0000
  C   C10       1.0  0.2884420016905132  0.4792339236358898  0.6237251234394074  1.0000
  C   C11       1.0  0.23305330125693813  0.4333727175684299  0.5404441007508582  1.0000
  C   C12       1.0  0.1576823252999882  0.4143548676166815  0.5847834378812338  1.0000
  N   N2        1.0  0.0970893980783385  0.3990657953196437  0.6204292146735926  1.0000
  C   C13       1.0  0.2511503053291294  0.40606152757933445  0.4139295366553224  1.0000
  C   C14       1.0  0.3243316638607575  0.42454095803567116  0.37073508349371354  1.0000
  H   H1        1.0  0.6619388393233376  0.5424076605242549  0.2866144176912331  1.0000
  H   H2        1.0  0.553373016373735  0.604995103513501  0.1402335252113256  1.0000
  H   H3        1.0  0.4243273949450357  0.5740167250757493  0.21531631426992615  1.0000
  H   H4        1.0  0.511888735090856  0.41137297306850007  0.5886433164923688  1.0000
  H   H5        1.0  0.4033551459725171  0.5348543839243249  0.6463745512503722  1.0000
  H   H6        1.0  0.2749967783815825  0.5010453809354418  0.721744439619926  1.0000
  H   H7        1.0  0.20875466776256701  0.3701727344449559  0.34875495489204744  1.0000
  H   H8        1.0  0.3372482184441495  0.4011938873812837  0.2730185734997179  1.0000
  C   C15       1.0  0.9023567637812452  0.021738722703884106  0.6109881317129393  1.0000
  C   C16       1.0  0.9028766509016811  0.031060875655064102  0.474192651796149  1.0000
  C   C17       1.0  0.9042463477737837  0.9188980943366708  0.4054204443514733  1.0000
  C   C18       1.0  0.9030181777036675  0.795867538772722  0.47449582317874084  1.0000
  C   C19       1.0  0.9024888949141177  0.7844472426394772  0.6112366278050947  1.0000
  C   C20       1.0  0.90242553193714  0.8979854507366016  0.6787236219641468  1.0000
  N   N3        1.0  0.9036237661271022  0.9320369976377825  0.2653200103347375  1.0000
  C   C21       1.0  0.9388443180916929  0.8402088916902756  0.18727802436995966  1.0000
  O   O1        1.0  0.9906666075479935  0.7662989783136082  0.23673929007401617  1.0000
  C   C22       1.0  0.9170172758679711  0.8345169884641266  0.04786209316939427  1.0000
  C   C23       1.0  0.8475530033899346  0.8858307390995381  0.9981882668637168  1.0000
  C   C24       1.0  0.8274308993552204  0.8792837984259938  0.8666978425965888  1.0000
  C   C25       1.0  0.876073378317188  0.821221773352322  0.7835679428722551  1.0000
  C   C26       1.0  0.9448764134888289  0.7691347213209156  0.8318338401129957  1.0000
  C   C27       1.0  0.9652853230089565  0.7753194285274695  0.963233521319113  1.0000
  H   H9        1.0  0.9006590388154497  0.21143285660965438  0.8689939185273723  1.0000
  H   H10       1.0  0.9027938699986658  0.12569236322198574  0.42036399351938347  1.0000
  H   H11       1.0  0.9011560801374304  0.7091355924508945  0.42159964792800175  1.0000
  H   H12       1.0  0.9020348030559238  0.8899335267200795  0.784177981159121  1.0000
  H   H13       1.0  0.9012863872432549  0.45263803795192875  0.6636421819282732  1.0000
  H   H14       1.0  0.8821914513438724  0.018631346662635107  0.21835176628426956  1.0000
  H   H15       1.0  0.8081811107355685  0.9293185420017813  0.060787161808883106  1.0000
  H   H16       1.0  0.7738933011000212  0.9188392914397859  0.8293471444626359  1.0000
  H   H17       1.0  0.8603475889399008  0.8162286236814473  0.6818541900907493  1.0000
  H   H18       1.0  0.9824709183300303  0.723888631018683  0.7673860532464545  1.0000
  H   H19       1.0  0.01901119901898074  0.734574760285072  0.9983744582363849  1.0000
  C   C28       1.0  0.9024483972817733  0.4032348224333979  0.22972690002641483  1.0000
  C   C29       1.0  0.9602917137653426  0.49514540155238085  0.22408302329198904  1.0000
  C   C30       1.0  0.9888828297684182  0.5425948396454485  0.10395137889443662  1.0000
  C   C31       1.0  0.9601700380718312  0.49491019188600216  0.9888518046612207  1.0000
  C   C32       1.0  0.9023972489349661  0.40295120435136567  0.9924979162520589  1.0000
  C   C33       1.0  0.8737360670942032  0.3578997182424568  0.11342324029910844  1.0000
  C   C34       1.0  0.05050064281357902  0.6386350639166722  0.09795555059860606  1.0000
  O   O2        1.0  0.09850848408915924  0.6329557582942569  0.010618176798407042  1.0000
  C   C35       1.0  0.05764540128202178  0.7411301131933339  0.19095679884760264  1.0000
  C   C36       1.0  0.12909389311182284  0.7862100864573762  0.2261497411685809  1.0000
  C   C37       1.0  0.13639074724715217  0.8840684121139288  0.3127470358099287  1.0000
  C   C38       1.0  0.20976282075666042  0.9288992184860028  0.34906313913835896  1.0000
  N   N4        1.0  0.26874570086551564  0.9649325192684561  0.37825343167542447  1.0000
  C   C39       1.0  0.07224628361559238  0.9382468623555735  0.3638854308575916  1.0000
  C   C40       1.0  0.001048408743288043  0.8951733000944211  0.3282041758479781  1.0000
  C   C41       1.0  0.9936021902709713  0.7975880463386213  0.24187537279983817  1.0000
  H   H20       1.0  0.7940810763408673  0.22830883148808812  0.44784980185568357  1.0000
  H   H21       1.0  0.9837518007269719  0.5288599591228569  0.3134006146014392  1.0000
  H   H22       1.0  0.9825379425307108  0.5306818709131895  0.8961893277507786  1.0000
  H   H23       1.0  0.8291433461233506  0.2870427030235805  0.1169704498036317  1.0000
  H   H24       1.0  0.8806366303413304  0.3668160654128265  0.6665240898846023  1.0000
  H   H25       1.0  0.17903052556311727  0.7444565898169759  0.1871475660271713  1.0000
  H   H26       1.0  0.07727096402419198  0.014018963638836368  0.4308293446291731  1.0000
  H   H27       1.0  0.9514862288806218  0.9378977151057917  0.3670757752605267  1.0000
  H   H28       1.0  0.9377959497143673  0.7673511854233506  0.21388958137182246  1.0000
  Zn  Zn1       1.0  0.8201042909344342  0.40479960696026196  0.607172118421218  1.0000
  Zn  Zn2       1.0  0.9847341864827028  0.4013859176333434  0.615051722995297  1.0000
  C   C42       1.0  0.9024043634575576  0.397831279437161  0.84831606813019  1.0000
  C   C43       1.0  0.902435911988268  0.40835584640979805  0.3739079873372648  1.0000
  C   C44       1.0  0.9024604089785219  0.6402811297120177  0.6060140941266412  1.0000
  C   C45       1.0  0.902379810015663  0.16590443701093238  0.6162100273853015  1.0000
  O   O3        1.0  0.9649079082127758  0.4087733659303261  0.42528674437417324  1.0000
  O   O4        1.0  0.9648826485330241  0.39482186914619866  0.802917374461861  1.0000
  O   O5        1.0  0.9649270637005937  0.5906032064014697  0.6072567762564776  1.0000
  O   O6        1.0  0.964863436876311  0.2129920391661151  0.6209472425149081  1.0000
  O   O7        1.0  0.8399749843607229  0.5931934865938315  0.6012765962058537  1.0000
  O   O8        1.0  0.8399305694646912  0.3974137096289099  0.7969371256709967  1.0000
  O   O9        1.0  0.839955829291224  0.41136516173783  0.4193049341023998  1.0000
  O   O10       1.0  0.8399113579435513  0.21558382564890044  0.6149655296120302  1.0000
