data_image0
_chemical_formula_structural       NC12NC2H8C6NCOC6H11C7OC6H10Zn2C4O8
_chemical_formula_sum              "N3 C44 H29 O10 Zn2"
_cell_length_a       17.80743265337812
_cell_length_b       10.29965916528486
_cell_length_c       10.299382801718286
_cell_angle_alpha    85.58981362736998
_cell_angle_beta     91.51478421497153
_cell_angle_gamma    89.45195528988225

_space_group_name_H-M_alt    "P 1"
_space_group_IT_number       1

loop_
  _space_group_symop_operation_xyz
  'x, y, z'

loop_
  _atom_site_type_symbol
  _atom_site_label
  _atom_site_symmetry_multiplicity
  _atom_site_fract_x
  _atom_site_fract_y
  _atom_site_fract_z
  _atom_site_occupancy
  N   N1        1.0  0.7079300688467929  0.406336258084637  0.6018546773766973  1.0000
  C   C1        1.0  0.6571283678551053  0.43587895954897515  0.5331678224635186  1.0000
  C   C2        1.0  0.5939260350299941  0.47262793655425317  0.4477300220070901  1.0000
  C   C3        1.0  0.6056860181644617  0.5266189605277884  0.32113201090454724  1.0000
  C   C4        1.0  0.5443903258209122  0.5618649205271355  0.23808961309866605  1.0000
  C   C5        1.0  0.4711805177007242  0.543383166900858  0.28098543124415554  1.0000
  C   C6        1.0  0.45844365216913885  0.4892734476881393  0.40805153280897954  1.0000
  C   C7        1.0  0.5205966642931447  0.4540307378126407  0.49107742043513825  1.0000
  C   C8        1.0  0.38066490381363977  0.46967823474464465  0.4538071903616494  1.0000
  C   C9        1.0  0.361859900689555  0.49689248820547616  0.58085826088156  1.0000
  C   C10       1.0  0.2886201461144781  0.4784523159961691  0.623794655624994  1.0000
  C   C11       1.0  0.23324222554041124  0.43254381335686465  0.5405178404618629  1.0000
  C   C12       1.0  0.1578655103188663  0.4135511443956519  0.5848549374794014  1.0000
  N   N2        1.0  0.0972679691233066  0.3982823158827149  0.6204989133751446  1.0000
  C   C13       1.0  0.2513556056029863  0.4051607738037639  0.41400966813754936  1.0000
  C   C14       1.0  0.3245425552059243  0.4236156734667538  0.3708173972469275  1.0000
  H   H1        1.0  0.6621606192110538  0.5414346025372734  0.2867009813903305  1.0000
  H   H2        1.0  0.5536137437407769  0.6039389135695099  0.14032748436866727  1.0000
  H   H3        1.0  0.4245584036283798  0.573003175800813  0.21540648009316565  1.0000
  H   H4        1.0  0.5120714204887182  0.4105714419318154  0.5887146210816754  1.0000
  H   H5        1.0  0.4035303586643554  0.5340856392425162  0.6464429391411346  1.0000
  H   H6        1.0  0.2751622352277126  0.500319439970796  0.721809019671749  1.0000
  H   H7        1.0  0.2089684042060606  0.36923496702342695  0.34883837912573834  1.0000
  H   H8        1.0  0.3374717581720494  0.40021310810557575  0.2731058240883151  1.0000
  C   C15       1.0  0.9025365568759027  0.020949881530943015  0.6110583073970648  1.0000
  C   C16       1.0  0.9030741507440136  0.030194346228124225  0.47426973866412236  1.0000
  C   C17       1.0  0.904452749460863  0.9179925081168948  0.4055010057302242  1.0000
  C   C18       1.0  0.9032156383036275  0.7950011815214664  0.47457289472988373  1.0000
  C   C19       1.0  0.9026686558435485  0.783658542591283  0.6113067909346956  1.0000
  C   C20       1.0  0.9025965573792754  0.8972350775888797  0.6787903755145408  1.0000
  N   N3        1.0  0.903848302353684  0.931051846229816  0.26540764987028953  1.0000
  C   C21       1.0  0.9390789560391385  0.8391794190398828  0.18736960674421677  1.0000
  O   O1        1.0  0.9908948432506279  0.7652975954756525  0.23682837356526343  1.0000
  C   C22       1.0  0.9172699597531709  0.8334083393652054  0.04796071911798894  1.0000
  C   C23       1.0  0.8478121170336979  0.8846938794717494  0.9982894024343127  1.0000
  C   C24       1.0  0.8277070330625531  0.8780722633667867  0.8668056213289104  1.0000
  C   C25       1.0  0.8763602723227379  0.8199630275463231  0.7836799214949566  1.0000
  C   C26       1.0  0.9451570599775436  0.7679033864592444  0.8319433802451153  1.0000
  C   C27       1.0  0.9655489611798446  0.7741627175628384  0.9633364228740309  1.0000
  H   H9        1.0  0.9008054357528028  0.21079054088559035  0.869051059238211  1.0000
  H   H10       1.0  0.9029983373992131  0.12479526367329097  0.42044379991985736  1.0000
  H   H11       1.0  0.9013603875954059  0.7082391946493156  0.42167939190072024  1.0000
  H   H12       1.0  0.9021921785314768  0.8892430427225505  0.784239406942367  1.0000
  H   H13       1.0  0.9014593648204567  0.4518790998227845  0.6637096974234689  1.0000
  H   H14       1.0  0.8824220671196225  0.017619521267517202  0.2184417787503441  1.0000
  H   H15       1.0  0.8084321216054817  0.928217233247848  0.06088513475691304  1.0000
  H   H16       1.0  0.7741742694655438  0.9176065443454633  0.8294568102276405  1.0000
  H   H17       1.0  0.8606476487295592  0.8149121130730873  0.6819713074976104  1.0000
  H   H18       1.0  0.9827599069123653  0.722620695269038  0.767498849410893  1.0000
  H   H19       1.0  0.019270288562213578  0.7334380063982233  0.9984755844002171  1.0000
  C   C28       1.0  0.9026775406651381  0.4022294571514353  0.229816337797766  1.0000
  C   C29       1.0  0.9816020584926671  0.40146025472071023  0.23229241142107027  1.0000
  C   C30       1.0  0.021409089416123184  0.3995842524144064  0.11648267235354481  1.0000
  C   C31       1.0  0.9814189955861864  0.40149207770283857  0.9970380853117389  1.0000
  C   C32       1.0  0.9025276546617086  0.402379009951088  0.9925487408748515  1.0000
  C   C33       1.0  0.8636144928861736  0.4023978421632928  0.10952549432451764  1.0000
  C   C34       1.0  0.10474336099755344  0.40015599122601775  0.11884553362039618  1.0000
  O   O2        1.0  0.1378546174016675  0.4601785490962933  0.025923553124116205  1.0000
  C   C35       1.0  0.15051475295732253  0.33262746367660134  0.22652240738150486  1.0000
  C   C36       1.0  0.22113562080294868  0.3816252381441294  0.26102166618810685  1.0000
  C   C37       1.0  0.2650754122057999  0.317783832221032  0.3613602341907116  1.0000
  C   C38       1.0  0.23931418912582725  0.2040157407753065  0.42745425048890784  1.0000
  C   C39       1.0  0.16968926056641664  0.15355043385439693  0.3929792057692343  1.0000
  C   C40       1.0  0.12553539293520255  0.21701756439657016  0.2927323267612367  1.0000
  H   H20       1.0  0.753735509466779  0.4056926988220271  0.4323088151828747  1.0000
  H   H21       1.0  0.012207866704865289  0.4037775446535363  0.3243578115775805  1.0000
  H   H22       1.0  0.012032034469625197  0.4010301562230385  0.9075526222675232  1.0000
  H   H23       1.0  0.8027696363603084  0.40299163796927995  0.10681239308165447  1.0000
  H   H24       1.0  0.872221272453922  0.40382467903730057  0.6632826820414213  1.0000
  H   H25       1.0  0.24200801614708967  0.4698645083597781  0.21111386102928797  1.0000
  H   H26       1.0  0.3191595139781289  0.356547883150927  0.3878355138095979  1.0000
  H   H27       1.0  0.2734331353434043  0.15468378384780035  0.5050160561576498  1.0000
  H   H28       1.0  0.15003962139490845  0.06482997106001487  0.44357418221714573  1.0000
  H   H29       1.0  0.07235279920966664  0.17495276986468067  0.2661129541864413  1.0000
  Zn  Zn1       1.0  0.8202845779721996  0.4040085986147648  0.60724248689804  1.0000
  Zn  Zn2       1.0  0.9849134535878646  0.40059938423630137  0.6151216933785859  1.0000
  C   C41       1.0  0.9025534369269107  0.39717722044427806  0.8483742535277814  1.0000
  C   C42       1.0  0.9026463926341354  0.4074323637817041  0.3739901407889705  1.0000
  C   C43       1.0  0.9026408459104504  0.6394894637067381  0.6060845211091888  1.0000
  C   C44       1.0  0.9025589271904063  0.16511856143274328  0.6162799392487142  1.0000
  O   O3        1.0  0.9651117384145844  0.40787906208744706  0.4253663020673346  1.0000
  O   O4        1.0  0.9650375983896237  0.3941420275379328  0.8029778534931205  1.0000
  O   O5        1.0  0.9651073397802855  0.589812246134457  0.6073271404562146  1.0000
  O   O6        1.0  0.9650419408679797  0.21220885392515365  0.6210169150446472  1.0000
  O   O7        1.0  0.8401560345123306  0.5923991300907228  0.6013472625363616  1.0000
  O   O8        1.0  0.8400862934021043  0.39673047174550846  0.7969979068364994  1.0000
  O   O9        1.0  0.8401604337759632  0.4104674607330263  0.4193847940086939  1.0000
  O   O10       1.0  0.8400906362055475  0.2147972433013121  0.6150355043499829  1.0000
