data_image0
_chemical_formula_structural       NC11NC3H8C7OC6OCH12C7OC6OCH12Zn2C4O8
_chemical_formula_sum              "N2 C46 H32 O12 Zn2"
_cell_length_a       17.807433833752565
_cell_length_b       10.299359160628079
_cell_length_c       10.299362532796529
_cell_angle_alpha    85.5843088683533
_cell_angle_beta     88.53944106115836
_cell_angle_gamma    90.7076958246699

_space_group_name_H-M_alt    "P 1"
_space_group_IT_number       1

loop_
  _space_group_symop_operation_xyz
  'x, y, z'

loop_
  _atom_site_type_symbol
  _atom_site_label
  _atom_site_symmetry_multiplicity
  _atom_site_fract_x
  _atom_site_fract_y
  _atom_site_fract_z
  _atom_site_occupancy
  N   N1        1.0  0.7075192306100632  0.43805114334920403  0.5348267588891977  1.0000
  C   C1        1.0  0.6567020303690744  0.40334458755629554  0.6013843533379655  1.0000
  C   C2        1.0  0.593480306990219  0.36017249200454104  0.6841735069943184  1.0000
  C   C3        1.0  0.6052117313182696  0.2966594776509355  0.8068832068908485  1.0000
  C   C4        1.0  0.5438974363344643  0.2551664785331662  0.8873886436135803  1.0000
  C   C5        1.0  0.47069739618107553  0.2768734199674172  0.8458251324244814  1.0000
  C   C6        1.0  0.45798914296451293  0.34054084394300155  0.7226552597709872  1.0000
  C   C7        1.0  0.3802207607557546  0.3635770587550473  0.6783112845832391  1.0000
  C   C8        1.0  0.36141316193854733  0.34666321781365705  0.5487317182966229  1.0000
  C   C9        1.0  0.2881831634380559  0.368331416202321  0.5071241325470006  1.0000
  C   C10       1.0  0.23281763661059904  0.4072317313154872  0.594275886672637  1.0000
  C   C11       1.0  0.1574508583116454  0.4295579805612082  0.5513070988164586  1.0000
  N   N2        1.0  0.09686134210164012  0.44750662627685234  0.5167633206365692  1.0000
  C   C12       1.0  0.2509336384044161  0.42435598633325866  0.7233243502176199  1.0000
  C   C13       1.0  0.324110906707949  0.4026529381133752  0.7651873568734993  1.0000
  C   C14       1.0  0.5201607513209799  0.38202928321796303  0.6421662381031765  1.0000
  H   H1        1.0  0.6616786563108309  0.2792551246290731  0.8402463593301892  1.0000
  H   H2        1.0  0.5530987522948058  0.20574294833569162  0.9821180042919373  1.0000
  H   H3        1.0  0.42405995440517796  0.2423366042934494  0.9092595201073188  1.0000
  H   H4        1.0  0.4030735087154875  0.3149987274935515  0.48001335244891163  1.0000
  H   H5        1.0  0.27472293937588627  0.3544185548643328  0.40709014005946753  1.0000
  H   H6        1.0  0.20855614444851941  0.45479725446460484  0.791527834801331  1.0000
  H   H7        1.0  0.3370430286311856  0.41811119101851557  0.8650387535239539  1.0000
  H   H8        1.0  0.511658265344991  0.43281527600521574  0.5476713256022467  1.0000
  C   C15       1.0  0.9021054662672174  0.061398522089615826  0.5257674633014249  1.0000
  C   C16       1.0  0.839954273104525  0.06514350710835481  0.4442549278868466  1.0000
  C   C17       1.0  0.8091452945903258  0.9500605051472801  0.4020241315050035  1.0000
  C   C18       1.0  0.8401332618769856  0.8298864211745508  0.4445017271994418  1.0000
  C   C19       1.0  0.9022822930316305  0.8241493871188791  0.5258335050486673  1.0000
  C   C20       1.0  0.9330141999671717  0.9404853580967452  0.5657823782270979  1.0000
  C   C21       1.0  0.7429981722401099  0.9561390380029189  0.317160489942387  1.0000
  O   O1        1.0  0.6952585775614252  0.043855965496077065  0.33094176823274646  1.0000
  C   C22       1.0  0.7310069697537639  0.8627781120811493  0.21667042954672855  1.0000
  C   C23       1.0  0.7921028493184588  0.8108928875899223  0.149781425153811  1.0000
  C   C24       1.0  0.7800130386052958  0.7241824190024525  0.05426157698135725  1.0000
  C   C25       1.0  0.7070247943441039  0.6884845836315128  0.02288553745415456  1.0000
  C   C26       1.0  0.6456758422799072  0.7413980252768392  0.0884745385415242  1.0000
  C   C27       1.0  0.6576969635083638  0.8281657296384656  0.1840439945360064  1.0000
  O   O2        1.0  0.6979108469743706  0.6010057393976858  0.9264111398954449  1.0000
  C   C28       1.0  0.6271071085881609  0.5564276602931091  0.8848284836149758  1.0000
  H   H9        1.0  0.0191884174984005  0.26156499433731195  0.6800089428419296  1.0000
  H   H10       1.0  0.8157882626393488  0.15787429523946717  0.41239168420764827  1.0000
  H   H11       1.0  0.8151888944060324  0.7406338842536538  0.4152078923570215  1.0000
  H   H12       1.0  0.9809555525015533  0.9367919663029258  0.6285261612512116  1.0000
  H   H13       1.0  0.9259310456190935  0.49443860282419344  0.557454084237373  1.0000
  H   H14       1.0  0.8492223307914563  0.8383753534371075  0.17026223965116993  1.0000
  H   H15       1.0  0.8276838257368727  0.6848773069034413  0.0038691619695241375  1.0000
  H   H16       1.0  0.5885247132774061  0.7161912643656232  0.06635059472194316  1.0000
  H   H17       1.0  0.6096061458037241  0.8674145169623027  0.23340514711746385  1.0000
  H   H18       1.0  0.6364733433916155  0.4882356650333194  0.8079199607291181  1.0000
  H   H19       1.0  0.594089480794099  0.6399606886204786  0.8438507718295885  1.0000
  H   H20       1.0  0.5955833227907557  0.5041183296525822  0.9678258553790338  1.0000
  C   C29       1.0  0.9021352172185434  0.4426520151705622  0.14443629420562787  1.0000
  C   C30       1.0  0.8308083359295596  0.38223788638592326  0.15102744485258301  1.0000
  C   C31       1.0  0.7945095092979082  0.3530821990976143  0.03719546288847009  1.0000
  C   C32       1.0  0.831019936668761  0.38240658667331306  0.915763343711625  1.0000
  C   C33       1.0  0.9022525445813353  0.44289592415841583  0.9071646493497059  1.0000
  C   C34       1.0  0.937337529912076  0.4729237505518906  0.02206188127557418  1.0000
  C   C35       1.0  0.7195718431237813  0.2879632247546746  0.0464688415522867  1.0000
  O   O3        1.0  0.7042046170841763  0.20838169521155936  0.14307065915279948  1.0000
  C   C36       1.0  0.662070493365062  0.3131185599899142  0.9462243839644096  1.0000
  C   C37       1.0  0.6563218937368538  0.43635419688855936  0.8786496943577355  1.0000
  C   C38       1.0  0.6013388299801722  0.45919902341272967  0.785507393137562  1.0000
  C   C39       1.0  0.5507807898285882  0.3603047524158183  0.7587947167360829  1.0000
  C   C40       1.0  0.5557393687191972  0.23724348796867933  0.8273242941291747  1.0000
  C   C41       1.0  0.6107156706262615  0.2142712953363468  0.9205393016987742  1.0000
  O   O4        1.0  0.4967064116091345  0.38815173658883917  0.6643217799726124  1.0000
  C   C42       1.0  0.4419100526821355  0.297057755911202  0.6274826999275005  1.0000
  H   H21       1.0  0.03685712599780966  0.556165128326698  0.3393009200850221  1.0000
  H   H22       1.0  0.8029873325617289  0.3588207979182121  0.24485006559508338  1.0000
  H   H23       1.0  0.804158307174988  0.35667361221648664  0.8279530732499962  1.0000
  H   H24       1.0  0.9922884871849332  0.51958269286365  0.016161389145830096  1.0000
  H   H25       1.0  0.9297048008477782  0.46562112741892325  0.5764239537908251  1.0000
  H   H26       1.0  0.6937857787804604  0.5155164635956857  0.8987433806451222  1.0000
  H   H27       1.0  0.5977814859376082  0.5545740970555597  0.734118087496547  1.0000
  H   H28       1.0  0.5174126843987591  0.15874607087835546  0.8093674797815669  1.0000
  H   H29       1.0  0.6135430641151073  0.11869662196796416  0.9718492634680205  1.0000
  H   H30       1.0  0.40663369914612524  0.344897177189911  0.5510406825872161  1.0000
  H   H31       1.0  0.4052178914736514  0.2639529474722011  0.71273156772906  1.0000
  H   H32       1.0  0.46989532149072155  0.2124155883107719  0.5875201977437969  1.0000
  Zn  Zn1       1.0  0.8198749538784945  0.44077631912210946  0.5296215249262861  1.0000
  Zn  Zn2       1.0  0.9845056032389856  0.4447708339763565  0.5219791395623774  1.0000
  C   C43       1.0  0.9022274816070833  0.4376759550891609  0.7629922753737355  1.0000
  C   C44       1.0  0.9021548736714446  0.4478728803391747  0.28860843326697716  1.0000
  C   C45       1.0  0.9022441989992755  0.6799715236348902  0.5206460610309447  1.0000
  C   C46       1.0  0.9021380997512538  0.20557575010278284  0.5309547193203308  1.0000
  O   O5        1.0  0.964637942695618  0.45113528203982645  0.3340936742574687  1.0000
  O   O6        1.0  0.9646952658689755  0.43744431786442073  0.7117062667986356  1.0000
  O   O7        1.0  0.9647079233695461  0.6331010337076091  0.5160100232912708  1.0000
  O   O8        1.0  0.9646252290049351  0.2554785740929437  0.5297898230000098  1.0000
  O   O9        1.0  0.8397552719321838  0.6300685776438024  0.521810844089794  1.0000
  O   O10       1.0  0.8397426147792498  0.4344134221295566  0.7175070184877363  1.0000
  O   O11       1.0  0.8396852914052091  0.44810434054950776  0.3398928645590753  1.0000
  O   O12       1.0  0.8396725777242767  0.2524476233445989  0.5355891106675803  1.0000
