data_image0
_chemical_formula_structural       NC10NC3NH7C7OC3FC3H9C7OC6OCH12Zn2C4O8
_chemical_formula_sum              "N3 C44 H28 O11 F1 Zn2"
_cell_length_a       19.210446455230148
_cell_length_b       10.29937835083307
_cell_length_c       10.299362532796529
_cell_angle_alpha    85.57000454149363
_cell_angle_beta     90.00583596421428
_cell_angle_gamma    89.96745330776054

_space_group_name_H-M_alt    "P 1"
_space_group_IT_number       1

loop_
  _space_group_symop_operation_xyz
  'x, y, z'

loop_
  _atom_site_type_symbol
  _atom_site_label
  _atom_site_symmetry_multiplicity
  _atom_site_fract_x
  _atom_site_fract_y
  _atom_site_fract_z
  _atom_site_occupancy
  N   N1        1.0  0.65553393330531  0.41980473672577223  0.5671826975718604  1.0000
  C   C1        1.0  0.595305662369039  0.4220123758718999  0.5674136101482443  1.0000
  C   C2        1.0  0.5205015679395216  0.4247494440880839  0.5676996817978572  1.0000
  C   C3        1.0  0.48490575500461947  0.5409873166836288  0.5827990292910978  1.0000
  C   C4        1.0  0.4122402831387542  0.5411388424444337  0.5827464164354559  1.0000
  C   C5        1.0  0.3753349041518945  0.4254584542006814  0.5677860891480668  1.0000
  C   C6        1.0  0.2980126052556289  0.42410189992893366  0.5676356420447886  1.0000
  C   C7        1.0  0.2602591507220811  0.5276567027066665  0.5042635663221804  1.0000
  C   C8        1.0  0.1874806275886245  0.5262544041852024  0.5041546413781681  1.0000
  C   C9        1.0  0.1514541671770073  0.421554804430756  0.5673667686490025  1.0000
  C   C10       1.0  0.0765244855991398  0.42025264958506403  0.5672300789439448  1.0000
  N   N2        1.0  0.0162865034175343  0.41920567288935984  0.5671202153012846  1.0000
  C   C11       1.0  0.1884839735747954  0.31812569011954506  0.6307138228806388  1.0000
  C   C12       1.0  0.2612643245235913  0.3192537281955743  0.6308730221495371  1.0000
  C   C13       1.0  0.4135408207173628  0.31104096770853196  0.5529747108454381  1.0000
  N   N3        1.0  0.4843110559324965  0.3134860529502508  0.5531400134300242  1.0000
  H   H1        1.0  0.5130182256699592  0.6304266967329599  0.5948378755330175  1.0000
  H   H2        1.0  0.3849832279095012  0.6311605056518765  0.596179909920237  1.0000
  H   H3        1.0  0.2869865158418155  0.6088973899759857  0.45326488126273845  1.0000
  H   H4        1.0  0.1593344337461949  0.6066677498404252  0.4544864233187862  1.0000
  H   H5        1.0  0.1611167170039343  0.2367488942802436  0.6802826591961613  1.0000
  H   H6        1.0  0.2887658975889715  0.2389599868676191  0.6819789387826702  1.0000
  H   H7        1.0  0.3872635828932759  0.22015634831824027  0.539495062062544  1.0000
  C   C14       1.0  0.8358401833818023  0.038120387974021064  0.5672154851705917  1.0000
  C   C15       1.0  0.76321043613231  0.0382437975146408  0.5512033671426209  1.0000
  C   C16       1.0  0.7264898278190386  0.9210188231084944  0.5446046554581891  1.0000
  C   C17       1.0  0.7633806452507913  0.8029995140452508  0.5512102128743173  1.0000
  C   C18       1.0  0.8359868888101748  0.8008800821781347  0.5670986667195714  1.0000
  C   C19       1.0  0.8717751236235809  0.918961364102277  0.5753513032015263  1.0000
  C   C20       1.0  0.6498836468812712  0.9211109529773327  0.5263237577204181  1.0000
  O   O1        1.0  0.6229871756452986  0.8364450568978987  0.45966778160592225  1.0000
  C   C21       1.0  0.603789910351959  0.017152376945099856  0.583670341875393  1.0000
  C   C22       1.0  0.541773534834385  0.057234223559152086  0.519900585395058  1.0000
  C   C23       1.0  0.49756297136098077  0.14658084300605578  0.5739688424434988  1.0000
  F   F1        1.0  0.43816030699868935  0.18535074433159626  0.5112599876502961  1.0000
  C   C24       1.0  0.5145223060920063  0.1958852759234555  0.6925703277302138  1.0000
  C   C25       1.0  0.5755395230159824  0.1555531072877272  0.7575548135247123  1.0000
  C   C26       1.0  0.6198940778560442  0.06627797893114629  0.7038912414690108  1.0000
  H   H8        1.0  0.9730223080021058  0.24536139793250755  0.5954361444626384  1.0000
  H   H9        1.0  0.7352010467874737  0.1297990794134547  0.5423951319865112  1.0000
  H   H10       1.0  0.7351996920269984  0.7125758927991006  0.5451628174422027  1.0000
  H   H11       1.0  0.9277672612358887  0.9180622209631539  0.5876947141861097  1.0000
  H   H12       1.0  0.8639442490469569  0.47269362472791726  0.5721062143808715  1.0000
  H   H13       1.0  0.5278914339573042  0.02022758479848763  0.4277451244110211  1.0000
  H   H14       1.0  0.4802793914363819  0.26494280255757663  0.7344550063500657  1.0000
  H   H15       1.0  0.5883455026524427  0.19304876061841902  0.84992402998968  1.0000
  H   H16       1.0  0.6662922085369092  0.03465508298356745  0.7570350776686405  1.0000
  C   C27       1.0  0.8358591946647447  0.41937977343732347  0.18579022144460544  1.0000
  C   C28       1.0  0.7697711909654753  0.3608065903694231  0.1890983097898542  1.0000
  C   C29       1.0  0.7361384358319757  0.33258780301238655  0.07359515283158102  1.0000
  C   C30       1.0  0.7699672501093775  0.3609698290610657  0.9538439509285057  1.0000
  C   C31       1.0  0.8359679012241588  0.4196206567327887  0.9485239407870263  1.0000
  C   C32       1.0  0.8684759276668703  0.44874294561907146  0.06503600068368698  1.0000
  C   C33       1.0  0.6667048922005862  0.2694029399237676  0.0794196828409166  1.0000
  O   O2        1.0  0.6524678649626893  0.190216875317762  0.17533084035951707  1.0000
  C   C34       1.0  0.6134252932558859  0.29604367447602575  0.976510034858427  1.0000
  C   C35       1.0  0.6080960470944091  0.4194299206985179  0.9086386674832077  1.0000
  C   C36       1.0  0.5571498686435528  0.44369507198612146  0.8129482012524805  1.0000
  C   C37       1.0  0.5103065167338803  0.34610472363678335  0.783922460040003  1.0000
  C   C38       1.0  0.5149037493463977  0.222913255025748  0.8527121405822573  1.0000
  C   C39       1.0  0.5658436653272219  0.19852091002812466  0.9484750323850593  1.0000
  O   O3        1.0  0.4602021869358993  0.37534865335730627  0.6869421237414968  1.0000
  C   C40       1.0  0.4094315603145591  0.28566818526207927  0.6475920436191793  1.0000
  H   H17       1.0  0.9606859472175976  0.5294157057583695  0.3868560308337734  1.0000
  H   H18       1.0  0.74399360506538  0.3381075641489477  0.2816403373187151  1.0000
  H   H19       1.0  0.7450786433739578  0.33593010077030105  0.864798029106459  1.0000
  H   H20       1.0  0.919390797592325  0.49398360657686635  0.06166478438883827  1.0000
  H   H21       1.0  0.8614038325913095  0.44163730847209326  0.619046960647319  1.0000
  H   H22       1.0  0.642807188467079  0.4976260737351059  0.9304448794173443  1.0000
  H   H23       1.0  0.5538515996780569  0.5391636795159611  0.7613705192089508  1.0000
  H   H24       1.0  0.47939314899653257  0.14540424482473302  0.8330027378312082  1.0000
  H   H25       1.0  0.5684655883749355  0.10287155009977456  0.9999396672598202  1.0000
  H   H26       1.0  0.3767444705181572  0.33441944647100486  0.5695068504778842  1.0000
  H   H27       1.0  0.3754344417173025  0.25351036554100115  0.7311525373448737  1.0000
  H   H28       1.0  0.4353637744431285  0.20030182544449993  0.6089447896655851  1.0000
  Zn  Zn1       1.0  0.7596393319180235  0.41962839801352114  0.5671721660954856  1.0000
  Zn  Zn2       1.0  0.9121810883448465  0.4193714319716977  0.567141384118236  1.0000
  C   C41       1.0  0.8359447957526966  0.4144012437138491  0.8043517150278205  1.0000
  C   C42       1.0  0.8358772905947808  0.4246002221935128  0.3299619620645431  1.0000
  C   C43       1.0  0.8359548486469751  0.6567006135645024  0.5619456000643706  1.0000
  C   C44       1.0  0.8358671853583891  0.18229929208473727  0.5723681465157378  1.0000
  O   O4        1.0  0.8937721642502787  0.42624906923400485  0.37833563450956564  1.0000
  O   O5        1.0  0.8938255854074397  0.4125563855119545  0.7559543060803597  1.0000
  O   O6        1.0  0.893832923070411  0.60821619270119  0.5602096531345404  1.0000
  O   O7        1.0  0.8937647745230494  0.2305892713923099  0.5740801900903247  1.0000
  O   O8        1.0  0.7780555936848047  0.6084105586820108  0.5602333601270695  1.0000
  O   O9        1.0  0.7780482563089308  0.41275231183999983  0.755977943588817  1.0000
  O   O10       1.0  0.7779948349668495  0.4264449498109786  0.3783577106327065  1.0000
  O   O11       1.0  0.7779874452488623  0.23078514271084405  0.5741023635821993  1.0000
