data_image0
_chemical_formula_structural       NC9NC5H8C6NCOC6H11C7OC3NC3H11Zn2C4O8
_chemical_formula_sum              "N4 C44 H30 O10 Zn2"
_cell_length_a       17.807436237873137
_cell_length_b       10.29965916528486
_cell_length_c       10.298749378158432
_cell_angle_alpha    85.57464278776027
_cell_angle_beta     89.40102399035862
_cell_angle_gamma    88.40731929758992

_space_group_name_H-M_alt    "P 1"
_space_group_IT_number       1

loop_
  _space_group_symop_operation_xyz
  'x, y, z'

loop_
  _atom_site_type_symbol
  _atom_site_label
  _atom_site_symmetry_multiplicity
  _atom_site_fract_x
  _atom_site_fract_y
  _atom_site_fract_z
  _atom_site_occupancy
  N   N1        1.0  0.707521303100891  0.38783312179427165  0.5574457794299088  1.0000
  C   C1        1.0  0.646926687090876  0.35264542961795287  0.5464098312724521  1.0000
  C   C2        1.0  0.5715536446858702  0.3088758156234168  0.5326823100522524  1.0000
  C   C3        1.0  0.553440394772014  0.23747183484596812  0.4276480862392862  1.0000
  C   C4        1.0  0.48025703326572017  0.19486342675135804  0.4142368775148988  1.0000
  C   C5        1.0  0.42413813489007  0.22328148438443307  0.5058273191188789  1.0000
  C   C6        1.0  0.3463631142573624  0.17811462630906116  0.49165679488041425  1.0000
  C   C7        1.0  0.2842032545008881  0.25986603984281187  0.5176236853580307  1.0000
  C   C8        1.0  0.2108775542207893  0.21705459889324086  0.5042260948537447  1.0000
  C   C9        1.0  0.1476681034649539  0.3014972491868495  0.5305577679545224  1.0000
  N   N2        1.0  0.0968606922732363  0.36938329785128254  0.5517277047357105  1.0000
  C   C10       1.0  0.1991281218990688  0.09223377470355798  0.4648361805972574  1.0000
  C   C11       1.0  0.2604306086785284  0.0104685100144013  0.4388608953444333  1.0000
  C   C12       1.0  0.3336367903951148  0.05288543937447132  0.4520558059193105  1.0000
  C   C13       1.0  0.44294289464168  0.29517979754925805  0.6110809470127803  1.0000
  C   C14       1.0  0.5161790804867461  0.3375978303341003  0.6243364317842601  1.0000
  H   H1        1.0  0.5958249541626096  0.21499334914253176  0.3559221893087581  1.0000
  H   H2        1.0  0.4673277084884797  0.14118981816417375  0.3312924940351858  1.0000
  H   H3        1.0  0.2927201956271963  0.35732541333407375  0.5465338921591547  1.0000
  H   H4        1.0  0.1426562497332828  0.05819969388448398  0.4542296719658141  1.0000
  H   H5        1.0  0.2512153565515063  0.9138293109476409  0.408750434629638  1.0000
  H   H6        1.0  0.3802645252915833  0.9871440891062168  0.4329850685290415  1.0000
  H   H7        1.0  0.4012752390431044  0.3171191421965118  0.6841012815176242  1.0000
  H   H8        1.0  0.5296368721130379  0.392492073494243  0.7062394855401337  1.0000
  C   C15       1.0  0.9021284943106813  0.9972505080314463  0.5544721953100247  1.0000
  C   C16       1.0  0.9026267817754073  0.006518795181558179  0.4176393588930911  1.0000
  C   C17       1.0  0.9039856086369704  0.8942993543307367  0.34877901473957706  1.0000
  C   C18       1.0  0.9027683550242023  0.7713217698535239  0.4179336846145294  1.0000
  C   C19       1.0  0.9022606633530652  0.7599555742896309  0.5547124317678369  1.0000
  C   C20       1.0  0.902207954473213  0.8735152026845353  0.6222057706015047  1.0000
  N   N3        1.0  0.9033409170118322  0.9074139159262153  0.20871260018634596  1.0000
  C   C21       1.0  0.9385487979918846  0.8146230269597228  0.12846385892832002  1.0000
  O   O1        1.0  0.9903783784700176  0.7393445369689904  0.17468397486587062  1.0000
  C   C22       1.0  0.9166999653525074  0.8094728879851109  0.9904088870985386  1.0000
  C   C23       1.0  0.8472285442708912  0.862625983339336  0.945080188965437  1.0000
  C   C24       1.0  0.8270858839311153  0.8565776223863104  0.8148443132649756  1.0000
  C   C25       1.0  0.8757147548535751  0.7971931217340917  0.7286675722362572  1.0000
  C   C26       1.0  0.9445247229694012  0.7432839605262821  0.7726296700399375  1.0000
  C   C27       1.0  0.9649541716091437  0.7489624072032479  0.9027568519955436  1.0000
  H   H9        1.0  0.9004715149510769  0.18706537676959734  0.8125933183044123  1.0000
  H   H10       1.0  0.9025355043314708  0.10113675564809332  0.36381398281056443  1.0000
  H   H11       1.0  0.9008979258664728  0.6846240555391755  0.3651521690922588  1.0000
  H   H12       1.0  0.9018338764648451  0.8655045351699358  0.7276882988451694  1.0000
  H   H13       1.0  0.9010664403929027  0.42819378252424556  0.6071950832782274  1.0000
  H   H14       1.0  0.8819014016240065  0.9945665210088896  0.16308387428165272  1.0000
  H   H15       1.0  0.8078669261702475  0.9071828458171349  0.010145073956052464  1.0000
  H   H16       1.0  0.7735429235322144  0.8975510106968272  0.7808425311390006  1.0000
  H   H17       1.0  0.8599730658507667  0.7925899276513773  0.6279343088874514  1.0000
  H   H18       1.0  0.9821086791205307  0.6970157051671998  0.7058270518886318  1.0000
  H   H19       1.0  0.01868505905299611  0.7067941728913443  0.9345370130937454  1.0000
  C   C28       1.0  0.902159941178797  0.37863270368173096  0.17319178615342135  1.0000
  C   C29       1.0  0.9432160074398038  0.4935492464770128  0.16260624380519673  1.0000
  C   C30       1.0  0.963222793672283  0.5524956038033741  0.04002610724074862  1.0000
  C   C31       1.0  0.9432190016156835  0.4935979648993998  0.9273621859264809  1.0000
  C   C32       1.0  0.90222920709396  0.3785733902897279  0.9359928608362411  1.0000
  C   C33       1.0  0.8817872463001376  0.322009429978138  0.05932885444398628  1.0000
  C   C34       1.0  0.007186798980481468  0.6731774111676407  0.02873928075005927  1.0000
  O   O2        1.0  0.05413171021245611  0.6892951923579027  0.9367087357466484  1.0000
  C   C35       1.0  0.9978959473567918  0.7755661628292192  0.12179779191629447  1.0000
  C   C36       1.0  0.9276174298238178  0.8014699742613389  0.17954137317885532  1.0000
  C   C37       1.0  0.9192309109646777  0.8993671888172785  0.26639577807794734  1.0000
  N   N4        1.0  0.8477096270132286  0.924607531781501  0.3251252673214622  1.0000
  C   C38       1.0  0.9812351217350185  0.9726783336796883  0.2949070417449784  1.0000
  C   C39       1.0  0.05092197486590111  0.9487531663003466  0.23671343526684185  1.0000
  C   C40       1.0  0.0592652540696752  0.8511696641464499  0.15023656901293037  1.0000
  H   H20       1.0  0.8255796509387016  0.16043617934867838  0.40061872501480744  1.0000
  H   H21       1.0  0.960380409073051  0.5365806743932955  0.2499142328521773  1.0000
  H   H22       1.0  0.9590705971861878  0.5383677193568357  0.8327375244068302  1.0000
  H   H23       1.0  0.85014400400825  0.23342694971270195  0.0667365539906597  1.0000
  H   H24       1.0  0.8250510320291404  0.1609841734915236  0.7450121504087681  1.0000
  H   H25       1.0  0.8791347117913683  0.7467615259674167  0.15619231435503655  1.0000
  H   H26       1.0  0.8011152960552524  0.8705447575530021  0.30456370152078405  1.0000
  H   H27       1.0  0.8408389127918363  0.9974498404805441  0.3897369254968499  1.0000
  H   H28       1.0  0.9754755746616971  0.048563874851446975  0.36174870592142994  1.0000
  H   H29       1.0  0.09860255270852036  0.005959385742109635  0.25866841183287614  1.0000
  H   H30       1.0  0.11383963506608996  0.8339391646102485  0.10642994985921295  1.0000
  Zn  Zn1       1.0  0.8198762395111329  0.3825054353758648  0.5558031769139729  1.0000
  Zn  Zn2       1.0  0.9845057368010874  0.37470039758141915  0.5533809814142818  1.0000
  C   C41       1.0  0.9022135579884254  0.37341117527583223  0.7918055212752397  1.0000
  C   C42       1.0  0.9021702163683387  0.383796211011489  0.31737873859590127  1.0000
  C   C43       1.0  0.9022313532749014  0.6157886948320304  0.54949149651251  1.0000
  C   C44       1.0  0.9021523646412108  0.14141713385717458  0.5596928329380335  1.0000
  O   O3        1.0  0.9646497000816404  0.3825614945014295  0.3648499846462101  1.0000
  O   O4        1.0  0.9646840532471859  0.36872106903196444  0.7424955107008064  1.0000
  O   O5        1.0  0.9646975810818842  0.5644440211795108  0.5468252341099151  1.0000
  O   O6        1.0  0.9646361160628113  0.1868385543147284  0.5605201646838172  1.0000
  O   O7        1.0  0.8397458040694409  0.5703672813074459  0.5486639944641829  1.0000
  O   O8        1.0  0.8397322764954267  0.37464588942290655  0.7443342022954176  1.0000
  O   O9        1.0  0.8396979232301659  0.38848626975676104  0.3666871146956694  1.0000
  O   O10       1.0  0.8396843392154997  0.19276332027410548  0.5623573921063065  1.0000
