data_image0
_chemical_formula_structural       NC10NC3NH7C7OC6H10C7OC4NC3H9Zn2C4O8
_chemical_formula_sum              "N4 C44 H26 O10 Zn2"
_cell_length_a       19.210446455230148
_cell_length_b       10.299379429549807
_cell_length_c       10.299375074045738
_cell_angle_alpha    85.51714373298503
_cell_angle_beta     89.9839463016943
_cell_angle_gamma    89.94476483549958

_space_group_name_H-M_alt    "P 1"
_space_group_IT_number       1

loop_
  _space_group_symop_operation_xyz
  'x, y, z'

loop_
  _atom_site_type_symbol
  _atom_site_label
  _atom_site_symmetry_multiplicity
  _atom_site_fract_x
  _atom_site_fract_y
  _atom_site_fract_z
  _atom_site_occupancy
  N   N1        1.0  0.6555255235468842  0.4208184395207828  0.566772368642734  1.0000
  C   C1        1.0  0.59529673676223  0.42302596067439135  0.5670027721314346  1.0000
  C   C2        1.0  0.5204920028196999  0.4257628827514337  0.5672882125941459  1.0000
  C   C3        1.0  0.4848684277243557  0.5419925161439068  0.5823609095375573  1.0000
  C   C4        1.0  0.4122029344513033  0.542144080978757  0.5823082581497958  1.0000
  C   C5        1.0  0.3753251708568419  0.4264718465307116  0.567374457086846  1.0000
  C   C6        1.0  0.2980031906894945  0.4251153706582709  0.5672243223601141  1.0000
  C   C7        1.0  0.2602407121525817  0.528715767563319  0.5038244756882166  1.0000
  C   C8        1.0  0.1874625089680554  0.5273135179790289  0.503715876097639  1.0000
  C   C9        1.0  0.1514453482803165  0.4225684129870235  0.5669560362028696  1.0000
  C   C10       1.0  0.0765159710704992  0.4212663280744291  0.56681964675272  1.0000
  N   N2        1.0  0.0162782336030563  0.4202194075800785  0.5667100245272694  1.0000
  C   C11       1.0  0.18848415711707  0.3190937241299501  0.6303308303983106  1.0000
  C   C12       1.0  0.2612642360560774  0.3202216735203238  0.6304897716993829  1.0000
  C   C13       1.0  0.4135584042724175  0.3120624347230678  0.552589314663734  1.0000
  N   N3        1.0  0.48432808665070826  0.31450745160193927  0.5527540486622942  1.0000
  H   H1        1.0  0.5129594507485594  0.631425266696471  0.5943792715360336  1.0000
  H   H2        1.0  0.3849240227981257  0.6321581645732859  0.5957212030508736  1.0000
  H   H3        1.0  0.286961259936289  0.6099931076942384  0.4528039365695551  1.0000
  H   H4        1.0  0.1593094013615426  0.6077625843497854  0.45402606906807197  1.0000
  H   H5        1.0  0.1611240391503449  0.23768125810964325  0.6799214779312983  1.0000
  H   H6        1.0  0.288772403515773  0.23989122308006605  0.6816173244525114  1.0000
  H   H7        1.0  0.387303215495986  0.22118541067691222  0.5391304157774279  1.0000
  C   C14       1.0  0.8359127897934431  0.03912695982753478  0.5668952688234912  1.0000
  C   C15       1.0  0.8781021368263412  0.02912687627981736  0.6786381901014857  1.0000
  C   C16       1.0  0.8987286837334479  0.9068446320662038  0.7358494075085777  1.0000
  C   C17       1.0  0.8780174256036313  0.7939050468688998  0.6783619109960946  1.0000
  C   C18       1.0  0.8358976205785803  0.8019009226371293  0.5665983517030044  1.0000
  C   C19       1.0  0.8149384187479761  0.9249854332193652  0.5117104810488893  1.0000
  C   C20       1.0  0.9438820805223137  0.8962014095886522  0.8530439035013164  1.0000
  O   O1        1.0  0.9880422857809626  0.8053370719023766  0.8653929768382962  1.0000
  C   C21       1.0  0.9389346734149696  0.988537074082508  0.9562337534578254  1.0000
  C   C22       1.0  0.9984718872321882  0.01787645037382224  0.02778905090546202  1.0000
  C   C23       1.0  0.9941543049484203  0.10360670405867256  0.1262861077193862  1.0000
  C   C24       1.0  0.930387939062139  0.15999553901925312  0.15505653505375583  1.0000
  C   C25       1.0  0.8707438661254387  0.13034664029784016  0.08574544700918207  1.0000
  C   C26       1.0  0.8747819190422754  0.04469653609180835  0.987160767974965  1.0000
  H   H8        1.0  0.757177413229512  0.265407036704395  0.35486877475373335  1.0000
  H   H9        1.0  0.8956094543312327  0.11667027293774734  0.720473876935076  1.0000
  H   H10       1.0  0.8943100655080749  0.6995604852485706  0.7217980731523299  1.0000
  H   H11       1.0  0.7824139393474316  0.9318906508559498  0.4255645049078616  1.0000
  H   H12       1.0  0.820201605967761  0.47756449218701347  0.5230316943846722  1.0000
  H   H13       1.0  0.04841005358749295  0.9753561857708277  0.006732228707641674  1.0000
  H   H14       1.0  0.04029373553910087  0.12628021204290962  0.18037640598726767  1.0000
  H   H15       1.0  0.9271408003744397  0.22624305227036579  0.23140121563080185  1.0000
  H   H16       1.0  0.8212534920301338  0.1733041649939553  0.10880209906000682  1.0000
  H   H17       1.0  0.827680966695321  0.021338561798174283  0.9362305105908435  1.0000
  C   C27       1.0  0.8359288622219144  0.4206562609765374  0.1853599942219597  1.0000
  C   C28       1.0  0.8895081885270387  0.5136836465922907  0.1768709854998607  1.0000
  C   C29       1.0  0.9159913114130107  0.5616852724515913  0.055331606175050174  1.0000
  C   C30       1.0  0.8893954898596358  0.5134460842282322  0.941645781311168  1.0000
  C   C31       1.0  0.8358815208462222  0.42037163867273963  0.948133669291296  1.0000
  C   C32       1.0  0.8093330443664029  0.3747668188292079  0.07046840104185437  1.0000
  C   C33       1.0  0.9730672297066468  0.6589150251380229  0.04630631039717725  1.0000
  O   O2        1.0  0.017550902946547042  0.6541558725761532  0.9566655108543527  1.0000
  C   C34       1.0  0.9796688590432818  0.7615555336890245  0.13889171156883773  1.0000
  C   C35       1.0  0.04586278873884586  0.8080093528162828  0.1706187048491672  1.0000
  C   C36       1.0  0.05260618202398826  0.9060156722313268  0.25679611931813606  1.0000
  C   C37       1.0  0.12058249067650273  0.9522571914454341  0.28955399504796797  1.0000
  N   N4        1.0  0.17522778480636658  0.989424545941846  0.3158838774786834  1.0000
  C   C38       1.0  0.9931620402720325  0.9589685233423348  0.3109792488423173  1.0000
  C   C39       1.0  0.9271999628389338  0.9145260865430374  0.2787504791504878  1.0000
  C   C40       1.0  0.920318123698632  0.8167899972547898  0.19284854228884019  1.0000
  H   H18       1.0  0.735550463134607  0.2436377488118988  0.4088150789535747  1.0000
  H   H19       1.0  0.9112395295240999  0.547850864803052  0.26503716640812525  1.0000
  H   H20       1.0  0.9101144756291311  0.5496496492402179  0.8478829344950576  1.0000
  H   H21       1.0  0.7680275300597966  0.30304883213389466  0.07620898790349373  1.0000
  H   H22       1.0  0.8157252938106396  0.3838162293940113  0.6232312812469565  1.0000
  H   H23       1.0  0.09214013172801816  0.7672100232941275  0.1292458958846039  1.0000
  H   H24       1.0  0.9978040894234057  0.03484322567933651  0.3776281021534904  1.0000
  H   H25       1.0  0.881269401383975  0.9563035951432803  0.3199740285295276  1.0000
  H   H26       1.0  0.8686151641651925  0.7854804771369153  0.16756638268107293  1.0000
  Zn  Zn1       1.0  0.7596309617457566  0.4206421047810167  0.5667618782454793  1.0000
  Zn  Zn2       1.0  0.9121727790149008  0.420385155163403  0.5667311553205949  1.0000
  C   C41       1.0  0.8358890367291687  0.4152514281882953  0.8039550979439256  1.0000
  C   C42       1.0  0.8359163697428832  0.42577746762131086  0.32953806212122316  1.0000
  C   C43       1.0  0.8358972221828703  0.6577223367636962  0.5614790683938784  1.0000
  C   C44       1.0  0.8359081322640669  0.18330499871085038  0.5720141615310168  1.0000
  O   O3        1.0  0.8938010019407935  0.4273930142294069  0.3779138818067638  1.0000
  O   O4        1.0  0.8937801143038326  0.41343988312363056  0.7555555867870682  1.0000
  O   O5        1.0  0.8937859437083949  0.6092382090719737  0.5597544769987859  1.0000
  O   O6        1.0  0.8937951204898982  0.23159469769586694  0.5737148942226742  1.0000
  O   O7        1.0  0.7780085682157237  0.609432562337654  0.5597781393470522  1.0000
  O   O8        1.0  0.7780027387812409  0.41363579681347207  0.7555791792792415  1.0000
  O   O9        1.0  0.778023626562265  0.42758888324317335  0.37793591284254924  1.0000
  O   O10       1.0  0.7780177451026675  0.2317905573839314  0.5737370226344847  1.0000
