data_image0
_chemical_formula_structural       NC9NC5H8C7OC6OCH12C7OC3OC4H12Zn2C4O8
_chemical_formula_sum              "N2 C46 H32 O12 Zn2"
_cell_length_a       17.807436237873137
_cell_length_b       10.299359160628079
_cell_length_c       10.299374482448636
_cell_angle_alpha    85.55316158380268
_cell_angle_beta     89.37372472773512
_cell_angle_gamma    88.41300836981586

_space_group_name_H-M_alt    "P 1"
_space_group_IT_number       1

loop_
  _space_group_symop_operation_xyz
  'x, y, z'

loop_
  _atom_site_type_symbol
  _atom_site_label
  _atom_site_symmetry_multiplicity
  _atom_site_fract_x
  _atom_site_fract_y
  _atom_site_fract_z
  _atom_site_occupancy
  N   N1        1.0  0.7079969232993502  0.38809971579192815  0.5572032109513685  1.0000
  C   C1        1.0  0.647403262814256  0.3529120734879254  0.546175534641338  1.0000
  C   C2        1.0  0.5720314089816859  0.30914252153149735  0.5324583026891527  1.0000
  C   C3        1.0  0.5539426878124466  0.23775046086863516  0.4274445470014736  1.0000
  C   C4        1.0  0.4807604964333858  0.19514212001365205  0.41404335670484427  1.0000
  C   C5        1.0  0.4246182262308209  0.22354831303209366  0.5056234335320666  1.0000
  C   C6        1.0  0.346844433420575  0.17838151965938143  0.4914635272359571  1.0000
  C   C7        1.0  0.2846822642782351  0.260132770541214  0.5174111851888485  1.0000
  C   C8        1.0  0.2113577185098113  0.2173213860644232  0.5040236573963668  1.0000
  C   C9        1.0  0.1481460162975768  0.30176393843601934  0.5303354866797991  1.0000
  N   N2        1.0  0.0973367947918071  0.3696499082215585  0.5514894703560145  1.0000
  C   C10       1.0  0.1996117419268738  0.09250077343132213  0.46466309654731797  1.0000
  C   C11       1.0  0.2609165395755761  0.01073567199302472  0.4387070472558252  1.0000
  C   C12       1.0  0.3341215990743511  0.053152556730524214  0.4518919913779962  1.0000
  C   C13       1.0  0.4433984262195331  0.29543469617622753  0.6108564742257663  1.0000
  C   C14       1.0  0.5166334733533241  0.3378526757232705  0.6241019896012348  1.0000
  H   H1        1.0  0.5963455369304129  0.21528125680510501  0.35572681638516235  1.0000
  H   H2        1.0  0.46785070067709345  0.1414780424713864  0.3311145367573012  1.0000
  H   H3        1.0  0.2931970115760403  0.3575922427471854  0.5462985552472546  1.0000
  H   H4        1.0  0.1431407754724046  0.05846673117707235  0.4540645855609906  1.0000
  H   H5        1.0  0.2517038574123506  0.9140965814948349  0.4086192954280692  1.0000
  H   H6        1.0  0.380750696093063  0.9874110782792708  0.4328366393507468  1.0000
  H   H7        1.0  0.4017120954749638  0.3173645506377405  0.683868703938062  1.0000
  H   H8        1.0  0.5300720921092787  0.39273758978778184  0.7059892563447889  1.0000
  C   C15       1.0  0.9025820483217685  0.9975005614375045  0.5543161178192482  1.0000
  C   C16       1.0  0.840459599842221  0.005744790898875252  0.4708282924792744  1.0000
  C   C17       1.0  0.809665483929714  0.8928930761600362  0.42761824099445045  1.0000
  C   C18       1.0  0.840638501779409  0.7704747412414494  0.47108078096869677  1.0000
  C   C19       1.0  0.9027588490948172  0.7602387134725875  0.5543877718571215  1.0000
  C   C20       1.0  0.933476662599129  0.8743501314396058  0.595313350467068  1.0000
  C   C21       1.0  0.7435483187864599  0.9037591258152066  0.34065239764416844  1.0000
  O   O1        1.0  0.6958051088339486  0.9948915611223458  0.3529199248589998  1.0000
  C   C22       1.0  0.7315911722953387  0.8113111520223545  0.23977733892811415  1.0000
  C   C23       1.0  0.7927082445059936  0.7550809314640764  0.174823330908068  1.0000
  C   C24       1.0  0.7806508201667384  0.6692878530155122  0.0789155847057188  1.0000
  C   C25       1.0  0.7076746887598173  0.6388397011826488  0.04522278800519319  1.0000
  C   C26       1.0  0.6463049867124917  0.6961169719481403  0.10886870509518021  1.0000
  C   C27       1.0  0.6582937063491642  0.781972184759942  0.20482388244678806  1.0000
  O   O2        1.0  0.6985933852409061  0.5520653908497799  0.9484548482015085  1.0000
  C   C28       1.0  0.6278051460228324  0.5125857767063857  0.904624262264301  1.0000
  H   H9        1.0  0.019610618800660617  0.18919081094139867  0.7122787605022831  1.0000
  H   H10       1.0  0.8163048229175162  0.1002250925316519  0.4381969966165611  1.0000
  H   H11       1.0  0.815704520260764  0.6830261633941201  0.44099432111696  1.0000
  H   H12       1.0  0.9813958869320684  0.8671862429421676  0.6595808000249799  1.0000
  H   H13       1.0  0.9263964608141319  0.4288156302312286  0.5867599837497872  1.0000
  H   H14       1.0  0.8498196167958066  0.7784572325675981  0.19711701693757755  1.0000
  H   H15       1.0  0.8283375381790213  0.6265915536267567  0.030033056261375757  1.0000
  H   H16       1.0  0.5891625202350753  0.675019514935656  0.08493081034731342  1.0000
  H   H17       1.0  0.61018731360319  0.8246428205791129  0.2526617769768542  1.0000
  H   H18       1.0  0.6371970488393572  0.44376297304090473  0.8280093199085905  1.0000
  H   H19       1.0  0.5948020065483233  0.5985077831401828  0.8625972906882073  1.0000
  H   H20       1.0  0.5962541176716127  0.46249266932218785  0.9866254566026917  1.0000
  C   C29       1.0  0.9027400591764879  0.3789538530127099  0.1729683752089961  1.0000
  C   C30       1.0  0.9812146736534983  0.389899816697024  0.16944678578378847  1.0000
  C   C31       1.0  0.020700539902084314  0.39689656058810496  0.050384336644629935  1.0000
  C   C32       1.0  0.9810350873547264  0.3898444545365132  0.9342105643115057  1.0000
  C   C33       1.0  0.9026008194479118  0.37878545404685293  0.9357354289864719  1.0000
  C   C34       1.0  0.863885964725615  0.3737461846723813  0.055614232032238586  1.0000
  C   C35       1.0  0.10365216706200409  0.4070920313842863  0.04662935395347945  1.0000
  O   O3        1.0  0.14049706501630377  0.35180277612113575  0.9602363017642626  1.0000
  C   C36       1.0  0.14480193874934488  0.48002516880200097  0.14080057493140186  1.0000
  C   C37       1.0  0.2180889240059063  0.4398336040803048  0.1778857725185834  1.0000
  C   C38       1.0  0.2582329210892116  0.5081969670792088  0.26550682015588745  1.0000
  O   O4        1.0  0.3309085517861081  0.4628598971393556  0.2997294415566074  1.0000
  C   C39       1.0  0.377992423384395  0.5225008384542531  0.3874368153047185  1.0000
  C   C40       1.0  0.22467494454279024  0.6191763229421001  0.31592459310826637  1.0000
  C   C41       1.0  0.15226539951603346  0.660659551753235  0.2783160942180982  1.0000
  C   C42       1.0  0.11255495130646587  0.5920426294467929  0.19092969397962078  1.0000
  H   H21       1.0  0.7547767695889879  0.35630383556348755  0.3870879026078293  1.0000
  H   H22       1.0  0.011812843344050528  0.3915419072032438  0.25958932810762647  1.0000
  H   H23       1.0  0.011460596298303649  0.3942583849261525  0.842371016782435  1.0000
  H   H24       1.0  0.8033877702164334  0.3653067949586408  0.05752540466772338  1.0000
  H   H25       1.0  0.8725404657154734  0.3734502148882797  0.6089471380552101  1.0000
  H   H26       1.0  0.24412287171334457  0.354285898739255  0.13961700292390367  1.0000
  H   H27       1.0  0.43205701808027297  0.4665804362508197  0.39659689322921143  1.0000
  H   H28       1.0  0.35086407475497383  0.5219854000243647  0.48506946296890163  1.0000
  H   H29       1.0  0.3895659050280855  0.6239604839742776  0.34961535405111643  1.0000
  H   H30       1.0  0.25412744268275156  0.6742196681223467  0.38368880941714023  1.0000
  H   H31       1.0  0.12693712229207543  0.7466628781816091  0.31660348645339575  1.0000
  H   H32       1.0  0.057008975482391255  0.6274023324188422  0.1615238650943247  1.0000
  Zn  Zn1       1.0  0.82035199664078  0.3827720328736559  0.5555618595943459  1.0000
  Zn  Zn2       1.0  0.9849816988505303  0.37496700246511305  0.5531414977407405  1.0000
  C   C43       1.0  0.9026242706131892  0.3736436253213107  0.7915556978651266  1.0000
  C   C44       1.0  0.9027112229858969  0.3840969634004454  0.31714776066487715  1.0000
  C   C45       1.0  0.9027225006704966  0.6160663282111793  0.5491988811331072  1.0000
  C   C46       1.0  0.9026129363776788  0.1416727028348519  0.5595046473175855  1.0000
  O   O5        1.0  0.9651776579973512  0.3828554040473853  0.3646171642772391  1.0000
  O   O6        1.0  0.9651079701480795  0.3689603675371347  0.7422489216568717  1.0000
  O   O7        1.0  0.9651864497072458  0.5647198056048548  0.5465440899400622  1.0000
  O   O8        1.0  0.9650991222811475  0.18709597795483823  0.5603218994424217  1.0000
  O   O9        1.0  0.8402345170301266  0.5706430600488197  0.5483814587117837  1.0000
  O   O10       1.0  0.8401560378418348  0.37488518232171364  0.7440862213270241  1.0000
  O   O11       1.0  0.8402257260155994  0.3887801739177208  0.3664529024818053  1.0000
  O   O12       1.0  0.840147190276397  0.19302073851488988  0.5621577350177345  1.0000
