data_image0
_chemical_formula_structural       NC12NC2H8C7OC3NC3H11C7OC3OC4H12Zn2C4O8
_chemical_formula_sum              "N3 C45 H31 O11 Zn2"
_cell_length_a       19.240039667572717
_cell_length_b       10.298746005989749
_cell_length_c       10.299374482448636
_cell_angle_alpha    85.55101224981432
_cell_angle_beta     89.98179719486372
_cell_angle_gamma    90.00762981599719

_space_group_name_H-M_alt    "P 1"
_space_group_IT_number       1

loop_
  _space_group_symop_operation_xyz
  'x, y, z'

loop_
  _atom_site_type_symbol
  _atom_site_label
  _atom_site_symmetry_multiplicity
  _atom_site_fract_x
  _atom_site_fract_y
  _atom_site_fract_z
  _atom_site_occupancy
  N   N1        1.0  0.654822076339431  0.42173841389217714  0.5675398276984656  1.0000
  C   C1        1.0  0.5946737075420718  0.42173849790022744  0.5675397457668958  1.0000
  C   C2        1.0  0.5198556704326212  0.42173861522881273  0.5675396084689124  1.0000
  C   C3        1.0  0.48335977329975977  0.35724305100646747  0.6709488789862275  1.0000
  C   C4        1.0  0.4106890025772864  0.3571321395017857  0.6710354132905909  1.0000
  C   C5        1.0  0.3735234355406122  0.42173870785637035  0.5675393807883691  1.0000
  C   C6        1.0  0.4107335468713902  0.4863454631669102  0.4640435428521881  1.0000
  C   C7        1.0  0.4834042126750198  0.486234316113185  0.46413019963804736  1.0000
  C   C8        1.0  0.2963183451116075  0.4217386292112377  0.5675392853616257  1.0000
  C   C9        1.0  0.2591153423847922  0.3084580697167598  0.6094000614404487  1.0000
  C   C10       1.0  0.1864446771525626  0.30856500100162254  0.6093087435808096  1.0000
  C   C11       1.0  0.1499860581688442  0.42173850001265656  0.5675393462610177  1.0000
  C   C12       1.0  0.0751680209634918  0.42173838620047377  0.5675395949190618  1.0000
  N   N2        1.0  0.015019704073034  0.42173834532351107  0.5675398033415977  1.0000
  C   C13       1.0  0.1864749500561389  0.5349120748704996  0.5257698960562662  1.0000
  C   C14       1.0  0.2591456694664164  0.5350191863307532  0.525678415614526  1.0000
  H   H1        1.0  0.5110573492922947  0.3073090201280795  0.7516879423238338  1.0000
  H   H2        1.0  0.3835782729922891  0.30799599515546805  0.7528901031196589  1.0000
  H   H3        1.0  0.3836577456788357  0.5354816345801672  0.3821888021756392  1.0000
  H   H4        1.0  0.5111364080915123  0.5361682466543636  0.3833914120954127  1.0000
  H   H5        1.0  0.2861969618442048  0.21928753573850646  0.6405597640636718  1.0000
  H   H6        1.0  0.1587180678460557  0.2202934770088174  0.6415015399577462  1.0000
  H   H7        1.0  0.15877173591063237  0.6231835743208485  0.4935771142277958  1.0000
  H   H8        1.0  0.2862505288374716  0.6241897995031707  0.49451866822619506  1.0000
  C   C15       1.0  0.8348910177279171  0.040336313158525705  0.5675226284041412  1.0000
  C   C16       1.0  0.8674246422352342  0.048872472563529445  0.4450149775300116  1.0000
  C   C17       1.0  0.8831444776591938  0.9360655653306503  0.38238016434346633  1.0000
  C   C18       1.0  0.8674251716381058  0.8136358841287096  0.4449658390750799  1.0000
  C   C19       1.0  0.8349574236027478  0.80313049429982  0.5675681842592366  1.0000
  C   C20       1.0  0.8187290924020375  0.917046665592352  0.627914152414859  1.0000
  C   C21       1.0  0.9180903396527907  0.9448880343510159  0.25356107622537016  1.0000
  O   O1        1.0  0.9605308173612552  0.8569162242521036  0.22834811855177883  1.0000
  C   C22       1.0  0.9048916293894408  0.053450199200747894  0.15335261667914635  1.0000
  C   C23       1.0  0.8390820402130814  0.11284525858209005  0.14124484545061633  1.0000
  C   C24       1.0  0.8269192181841327  0.2145397432338012  0.04533540275449077  1.0000
  N   N3        1.0  0.7599968926978699  0.27477677653593036  0.03413103280171259  1.0000
  C   C25       1.0  0.8806092005147348  0.25644706309615084  0.9601988866683189  1.0000
  C   C26       1.0  0.9457846859022886  0.19688769328759093  0.9704505355950857  1.0000
  C   C27       1.0  0.9578934978999865  0.0956177570932959  0.06605576203808727  1.0000
  H   H9        1.0  0.7743821721523909  0.23150213934337027  0.7998645989280435  1.0000
  H   H10       1.0  0.8812539110324894  0.1434005654398005  0.398791913142011  1.0000
  H   H11       1.0  0.8799681059509876  0.7264559609214676  0.3972666523692825  1.0000
  H   H12       1.0  0.7936549675341437  0.9097147507621606  0.7223472612113893  1.0000
  H   H13       1.0  0.7738710773972265  0.5759624632973397  0.799421615799246  1.0000
  H   H14       1.0  0.7969815592021031  0.07942553626708149  0.20520921619482757  1.0000
  H   H15       1.0  0.7196037685164496  0.2443073467716328  0.0970839140511921  1.0000
  H   H16       1.0  0.7503670112299758  0.3504095467150392  0.9628907017669381  1.0000
  H   H17       1.0  0.8718628310928895  0.3348168195791814  0.8857097238901002  1.0000
  H   H18       1.0  0.9870339853197666  0.22927237879025175  0.9041537916418734  1.0000
  H   H19       1.0  0.008866426351180845  0.050974223617678005  0.0725834849569813  1.0000
  C   C28       1.0  0.8349886185858584  0.4218208912986099  0.18616288247954293  1.0000
  C   C29       1.0  0.9075875165400803  0.4364864633980281  0.1837923727825006  1.0000
  C   C30       1.0  0.9441167242431328  0.44535488581664895  0.06530905350681282  1.0000
  C   C31       1.0  0.9074213804653233  0.43642258715787885  0.9485535182442666  1.0000
  C   C32       1.0  0.8348598232810744  0.42164588323180485  0.9489278994571242  1.0000
  C   C33       1.0  0.7990436626992253  0.41477159582338885  0.0682388125181903  1.0000
  C   C34       1.0  0.02085759767816442  0.4594820846085259  0.0627708717931239  1.0000
  O   O2        1.0  0.05495146305167631  0.4059354659829908  0.9769205360017787  1.0000
  C   C35       1.0  0.05891775929067666  0.5343698670101562  0.15754316219385966  1.0000
  C   C36       1.0  0.12672386783709855  0.4976488776527017  0.19570523925177485  1.0000
  C   C37       1.0  0.16385412545795108  0.5679189367010069  0.2839127697369461  1.0000
  O   O3        1.0  0.23109529854108812  0.5260231489056473  0.3192034931391563  1.0000
  C   C38       1.0  0.27464704795611294  0.587899123938517  0.40759950889224306  1.0000
  C   C39       1.0  0.1327940418949809  0.6773148981356041  0.33383396574274204  1.0000
  C   C40       1.0  0.06579952710763215  0.7153692142116055  0.29516141393151973  1.0000
  C   C41       1.0  0.029070396771801787  0.6448661259923827  0.20719490200838275  1.0000
  H   H20       1.0  0.6981042040592608  0.3921574549387117  0.3981121333156359  1.0000
  H   H21       1.0  0.9358950100915386  0.4395787088893175  0.2743838331401762  1.0000
  H   H22       1.0  0.9355687849999721  0.44227866304171237  0.8571602511557339  1.0000
  H   H23       1.0  0.7430752164653927  0.40346465971820655  0.0692625868116048  1.0000
  H   H24       1.0  0.8070503571126862  0.41488574586812543  0.6216987207508575  1.0000
  H   H25       1.0  0.15081990484975139  0.4133295883655501  0.1578216885497139  1.0000
  H   H26       1.0  0.32467168697515314  0.5345373633936406  0.4175549986931075  1.0000
  H   H27       1.0  0.24954949386931968  0.5860980362323187  0.5048341103513168  1.0000
  H   H28       1.0  0.28534125922146214  0.6899135686919187  0.36994406079664444  1.0000
  H   H29       1.0  0.16003482349272447  0.7337574363674266  0.40202828419020786  1.0000
  H   H30       1.0  0.04235627864072722  0.8001775948575998  0.33307392476454845  1.0000
  H   H31       1.0  0.9776778860045726  0.677595701641986  0.17697269628722267  1.0000
  Zn  Zn1       1.0  0.7587673386115291  0.4217349248830504  0.5675473091556553  1.0000
  Zn  Zn2       1.0  0.9110744578599755  0.4217312374997022  0.5675429205297293  1.0000
  C   C42       1.0  0.8348821738411322  0.4165048450686375  0.8047487054972784  1.0000
  C   C43       1.0  0.8349612859405416  0.4269629560066541  0.33034165170908536  1.0000
  C   C44       1.0  0.8349421758059622  0.6589473275531008  0.5623842282422193  1.0000
  C   C45       1.0  0.8349012318563808  0.184518913069327  0.5727061981135222  1.0000
  O   O4        1.0  0.8927518703612956  0.428681614319238  0.3787276979526688  1.0000
  O   O5        1.0  0.8926891687609138  0.4147824083955023  0.7563589544702465  1.0000
  O   O6        1.0  0.8927368417099503  0.6105577788144179  0.5606479244210294  1.0000
  O   O7        1.0  0.8927041454574068  0.23290625321495106  0.5744386306257934  1.0000
  O   O8        1.0  0.777137599039154  0.6105599091704756  0.5606515990542573  1.0000
  O   O9        1.0  0.7770899262345051  0.4147860992070973  0.7563625599487629  1.0000
  O   O10       1.0  0.7771526281408093  0.428685260229166  0.3787297419720468  1.0000
  O   O11       1.0  0.7771049032168296  0.23290988981292338  0.5744407720159301  1.0000
