data_image0
_chemical_formula_structural       NC10NC5H10C7OC3FC3H9C7OC6H10Zn2C4O8
_chemical_formula_sum              "N2 C45 H29 O10 F1 Zn2"
_cell_length_a       19.4436361288709
_cell_length_b       10.29937835083307
_cell_length_c       10.299382801718286
_cell_angle_alpha    85.56292937340861
_cell_angle_beta     89.6852200800954
_cell_angle_gamma    89.43853249218071

_space_group_name_H-M_alt    "P 1"
_space_group_IT_number       1

loop_
  _space_group_symop_operation_xyz
  'x, y, z'

loop_
  _atom_site_type_symbol
  _atom_site_label
  _atom_site_symmetry_multiplicity
  _atom_site_fract_x
  _atom_site_fract_y
  _atom_site_fract_z
  _atom_site_occupancy
  N   N1        1.0  0.6481697476583724  0.4090931559765665  0.561907590684448  1.0000
  C   C1        1.0  0.5893339327855226  0.41899550904068716  0.5762903991375179  1.0000
  C   C2        1.0  0.5160047926911188  0.4313450711806035  0.5942812620047699  1.0000
  C   C3        1.0  0.47382645508346627  0.3993463045120602  0.49961101206256653  1.0000
  C   C4        1.0  0.3979230793718359  0.40978498956575615  0.5049378044118795  1.0000
  C   C5        1.0  0.3581660992138838  0.38503712300885007  0.6120139818945018  1.0000
  C   C6        1.0  0.2820478669668184  0.38895376930527514  0.5990540333040224  1.0000
  C   C7        1.0  0.2414841663730426  0.44661779623532816  0.6928179900714566  1.0000
  C   C8        1.0  0.1698227365056113  0.4502555871615288  0.6822735691012121  1.0000
  C   C9        1.0  0.1377301428510103  0.39583332867955234  0.5782517695862444  1.0000
  C   C10       1.0  0.0639394987294701  0.399532363681937  0.5675520579888369  1.0000
  N   N2        1.0  0.004616825801137099  0.402506193723259  0.5589501992363763  1.0000
  C   C11       1.0  0.1775687740976784  0.3374621904616819  0.48487113909181234  1.0000
  C   C12       1.0  0.24924665387932973  0.3337701717163264  0.49516378799184335  1.0000
  C   C13       1.0  0.38627526370744997  0.3445760336491006  0.743114476751553  1.0000
  C   C14       1.0  0.4449410399165552  0.3876997277151344  0.7903518197465365  1.0000
  C   C15       1.0  0.4891757764032639  0.48556061455039723  0.7159716315806735  1.0000
  H   H1        1.0  0.49593119736921504  0.37022752458619146  0.4093073324503509  1.0000
  H   H2        1.0  0.37324030980509904  0.4322796751270104  0.41177607619450796  1.0000
  H   H3        1.0  0.2653526852449729  0.48991076425114466  0.7736613383103663  1.0000
  H   H4        1.0  0.1394773418094479  0.4955722873049835  0.7551891506966601  1.0000
  H   H5        1.0  0.1532283677719382  0.2943648890863366  0.40436225114134006  1.0000
  H   H6        1.0  0.2789259299965692  0.2862100128000873  0.4229448259011461  1.0000
  H   H7        1.0  0.35528995288668036  0.2803573221647313  0.8073698459881358  1.0000
  H   H8        1.0  0.4600725735828668  0.35363212599774063  0.8882911186093869  1.0000
  H   H9        1.0  0.459086728340616  0.5762777065650921  0.6907081551055845  1.0000
  H   H10       1.0  0.5324578400495099  0.5111479509906991  0.7790537594394562  1.0000
  C   C16       1.0  0.826324070696074  0.024416000228036028  0.5604935089902294  1.0000
  C   C17       1.0  0.7545662786621534  0.02574684208376432  0.5450640441995243  1.0000
  C   C18       1.0  0.7182860390093995  0.9091321521460752  0.5387599294611238  1.0000
  C   C19       1.0  0.7547344541759468  0.7904997325992166  0.5450695241566961  1.0000
  C   C20       1.0  0.8264690626875372  0.7871732731504245  0.5603755120957978  1.0000
  C   C21       1.0  0.8618275261429814  0.9046595511728132  0.5683410505197859  1.0000
  C   C22       1.0  0.6425999987182304  0.9104979849569386  0.5210935705168391  1.0000
  O   O1        1.0  0.6160459061543849  0.8262864026748319  0.4546527384737542  1.0000
  C   C23       1.0  0.59703799134112  0.007297718716318569  0.5788106254379222  1.0000
  C   C24       1.0  0.5357822174962367  0.04841647392201587  0.5155378628615948  1.0000
  C   C25       1.0  0.4920819591916999  0.1384905326957051  0.569961445344177  1.0000
  F   F1        1.0  0.4334083622117531  0.17825383374872383  0.5077286216329981  1.0000
  C   C26       1.0  0.5088008551166933  0.18749945636337184  0.6884280625968131  1.0000
  C   C27       1.0  0.5690690055762517  0.14614682011456992  0.7529235847666425  1.0000
  C   C28       1.0  0.612911406968099  0.05614181459217882  0.6989035359872011  1.0000
  H   H11       1.0  0.9618599062866291  0.229376666650702  0.5876136395566629  1.0000
  H   H12       1.0  0.7268939999863597  0.11776807679076495  0.5364804799379581  1.0000
  H   H13       1.0  0.7268917738614668  0.7005445857097554  0.5392482047896556  1.0000
  H   H14       1.0  0.9171474513218477  0.9028295675373577  0.5802352791509653  1.0000
  H   H15       1.0  0.854091152004787  0.45852217547890856  0.5651587671995575  1.0000
  H   H16       1.0  0.5220953486644742  0.01165114298383263  0.4234928491740606  1.0000
  H   H17       1.0  0.4749531908674506  0.2571204141439454  0.7305879555671431  1.0000
  H   H18       1.0  0.5816925278977266  0.18341900230903763  0.8451909914857352  1.0000
  H   H19       1.0  0.6587387438761508  0.023742503875491483  0.7516755975583935  1.0000
  C   C29       1.0  0.8264651694099743  0.40572012884929975  0.17906416160851957  1.0000
  C   C30       1.0  0.8987222598832216  0.4052483563484628  0.17716087890072485  1.0000
  C   C31       1.0  0.9351664043659303  0.4035222745425464  0.05914303174660751  1.0000
  C   C32       1.0  0.8985546628096065  0.4052794913438631  0.9419166964229309  1.0000
  C   C33       1.0  0.8263279502265848  0.4058691261282541  0.9418048118059863  1.0000
  C   C34       1.0  0.790702103841354  0.40574128996090364  0.06094094489982793  1.0000
  C   C35       1.0  0.01146076271901797  0.40440814879274734  0.05688119695213767  1.0000
  O   O2        1.0  0.04177673200953058  0.4645592895524111  0.9620935240118946  1.0000
  C   C36       1.0  0.05336333902852042  0.3370478860375403  0.16204990278206344  1.0000
  C   C37       1.0  0.11801982669857058  0.3863149281777216  0.19260715899527492  1.0000
  C   C38       1.0  0.1582456490995252  0.3226351157688614  0.29053746279583303  1.0000
  C   C39       1.0  0.13465710031835942  0.20876275870672045  0.35811460997322286  1.0000
  C   C40       1.0  0.0709123704686625  0.158031845499903  0.32752699178741573  1.0000
  C   C41       1.0  0.030490544814831155  0.22133655206197123  0.22970043286171027  1.0000
  H   H20       1.0  0.6901056057091265  0.4086222037708327  0.3898201732832536  1.0000
  H   H21       1.0  0.9267426168579277  0.4076811501762061  0.26752679506640153  1.0000
  H   H22       1.0  0.9265815519691373  0.40493292591487307  0.850732656941148  1.0000
  H   H23       1.0  0.7349973314607284  0.40610578975169487  0.061603997041118186  1.0000
  H   H24       1.0  0.7985818429572954  0.40720065697751706  0.6142198489937281  1.0000
  H   H25       1.0  0.13713174208773293  0.47463842889933505  0.1414995383862505  1.0000
  H   H26       1.0  0.20776204456831415  0.36160546005869576  0.31399322558333154  1.0000
  H   H27       1.0  0.16589218269951966  0.1595562931824661  0.43380630179361557  1.0000
  H   H28       1.0  0.05291989980621392  0.06923173063529342  0.3792541564981138  1.0000
  H   H29       1.0  0.9817993954936431  0.17906865413422413  0.20605210458975742  1.0000
  Zn  Zn1       1.0  0.7510326739854893  0.40718883092059  0.5610616641001991  1.0000
  Zn  Zn2       1.0  0.9017538870513095  0.4043999127736815  0.5598068086816688  1.0000
  C   C42       1.0  0.8263513903951892  0.40066710607232436  0.7976313433914912  1.0000
  C   C43       1.0  0.8264368168011669  0.41092324587469076  0.3232372429008106  1.0000
  C   C44       1.0  0.8264390573870204  0.6429949450982222  0.5552226494379937  1.0000
  C   C45       1.0  0.8263490980696313  0.16859384745125872  0.5656460067627895  1.0000
  O   O3        1.0  0.883625215197786  0.41160541361748626  0.37114683580482355  1.0000
  O   O4        1.0  0.8835569051450356  0.3978672341539078  0.7487689705643283  1.0000
  O   O5        1.0  0.883626926051498  0.5935500433523668  0.5530222413258827  1.0000
  O   O6        1.0  0.8835551428796643  0.2159226146422557  0.5668934680949957  1.0000
  O   O7        1.0  0.7692313667233831  0.5956661300051498  0.5539750051082617  1.0000
  O   O8        1.0  0.7691613461228737  0.39998488115735786  0.7497216648596154  1.0000
  O   O9        1.0  0.7692296564936111  0.4137230150573845  0.37209796870018597  1.0000
  O   O10       1.0  0.7691595841533974  0.21804020681205927  0.5678446983600209  1.0000
