data_image0
_chemical_formula_structural       NC10NC5H10C7OC3FC3H9C7OC3NC3H11Zn2C4O8
_chemical_formula_sum              "N3 C45 H30 O10 F1 Zn2"
_cell_length_a       19.4436361288709
_cell_length_b       10.29937835083307
_cell_length_c       10.298749378158432
_cell_angle_alpha    85.54775683836141
_cell_angle_beta     89.71352480550038
_cell_angle_gamma    89.43853249218071

_space_group_name_H-M_alt    "P 1"
_space_group_IT_number       1

loop_
  _space_group_symop_operation_xyz
  'x, y, z'

loop_
  _atom_site_type_symbol
  _atom_site_label
  _atom_site_symmetry_multiplicity
  _atom_site_fract_x
  _atom_site_fract_y
  _atom_site_fract_z
  _atom_site_occupancy
  N   N1        1.0  0.647791485362595  0.40948187845794837  0.5617927616847784  1.0000
  C   C1        1.0  0.5889594536083471  0.4193803437879049  0.5761767185783082  1.0000
  C   C2        1.0  0.5156350456612289  0.4317250429212367  0.5941690179824421  1.0000
  C   C3        1.0  0.4734318068818207  0.3997518660230257  0.4994912087971546  1.0000
  C   C4        1.0  0.3975298322795281  0.41018911122214297  0.5048184264809128  1.0000
  C   C5        1.0  0.3578010164317799  0.3854123015200408  0.6119031537968205  1.0000
  C   C6        1.0  0.2816793753217823  0.3893324509455709  0.5989421703785913  1.0000
  C   C7        1.0  0.2411403375169332  0.4469711330801829  0.6927136140232877  1.0000
  C   C8        1.0  0.1694761341442264  0.4506117742081217  0.6821683511006733  1.0000
  C   C9        1.0  0.1373561795742624  0.396217633260014  0.5781382456388104  1.0000
  C   C10       1.0  0.0635627211012614  0.3999195604398518  0.5674376796893656  1.0000
  N   N2        1.0  0.0042377856209404  0.4028957156001003  0.5588351340945095  1.0000
  C   C11       1.0  0.1771702488585398  0.3378717362228656  0.48475015887500494  1.0000
  C   C12       1.0  0.24885083592171034  0.3341769353308317  0.49504362962387516  1.0000
  C   C13       1.0  0.3859446643659378  0.3449157751401515  0.7430141167841415  1.0000
  C   C14       1.0  0.4446228654412699  0.3880267007519027  0.7902552315929585  1.0000
  C   C15       1.0  0.4888380376631555  0.48590769286769064  0.7158691043076433  1.0000
  H   H1        1.0  0.4955127965373867  0.37065749556499683  0.40918031860436077  1.0000
  H   H2        1.0  0.3728225583283958  0.43270897879390446  0.4116492594731067  1.0000
  H   H3        1.0  0.2650301206624979  0.4902422487958782  0.7735634174529404  1.0000
  H   H4        1.0  0.1391499184765549  0.495908764960423  0.7550897548694677  1.0000
  H   H5        1.0  0.1528086662324525  0.2947961967416062  0.40423484243982055  1.0000
  H   H6        1.0  0.2785111162426976  0.28663629750653685  0.42281890098360053  1.0000
  H   H7        1.0  0.3549762546728884  0.2806796951567836  0.8072746166922478  1.0000
  H   H8        1.0  0.4597801601392056  0.3539326256263806  0.8882023507263586  1.0000
  H   H9        1.0  0.4587423445333694  0.5766316137072927  0.6906036105910245  1.0000
  H   H10       1.0  0.5321366938387493  0.5114779779411167  0.778956269156811  1.0000
  C   C16       1.0  0.8259454364535533  0.024805104941701295  0.5603785670787713  1.0000
  C   C17       1.0  0.7541835859983961  0.02614011744724376  0.544947870274048  1.0000
  C   C18       1.0  0.7179016881706192  0.9095271315385227  0.5386432521638307  1.0000
  C   C19       1.0  0.7543517629535857  0.7908930064814406  0.544953350668784  1.0000
  C   C20       1.0  0.8260903974082238  0.7875624097591513  0.5602605607625075  1.0000
  C   C21       1.0  0.8614509560439442  0.9050465346626987  0.5682267352198989  1.0000
  C   C22       1.0  0.642211001086623  0.9108977396411831  0.5209754825936972  1.0000
  O   O1        1.0  0.6156394325514846  0.826704116597947  0.4545293453739554  1.0000
  C   C23       1.0  0.5966641750605569  0.007681872235671738  0.5786971461140871  1.0000
  C   C24       1.0  0.5353917585435635  0.048817730337617826  0.5154193313255471  1.0000
  C   C25       1.0  0.4917058153060703  0.1388770781859927  0.5698472594297976  1.0000
  F   F1        1.0  0.4330158491897473  0.1786572010353713  0.5076094665435873  1.0000
  C   C26       1.0  0.5084558715753676  0.18785397982425356  0.6883233360211143  1.0000
  C   C27       1.0  0.568740986330214  0.1464839101620956  0.7528240080382311  1.0000
  C   C28       1.0  0.6125691787967262  0.05649350648814622  0.6987996458585359  1.0000
  H   H11       1.0  0.9614884054680688  0.22975844067798  0.5875008631371048  1.0000
  H   H12       1.0  0.7265090495826251  0.11816367232809255  0.5363636206308673  1.0000
  H   H13       1.0  0.7265075514540346  0.7009394331193095  0.5391315664802379  1.0000
  H   H14       1.0  0.9167740097687921  0.9032133359667662  0.5801219135830749  1.0000
  H   H15       1.0  0.8537137448678886  0.4589100191534808  0.565044197800276  1.0000
  H   H16       1.0  0.5216806790574879  0.012077279557265452  0.42336696801515306  1.0000
  H   H17       1.0  0.4746192966676729  0.25746354160683427  0.7304865953803523  1.0000
  H   H18       1.0  0.5813887778021727  0.18373115208495205  0.8450987821378535  1.0000
  H   H19       1.0  0.6584103963713007  0.024079931259256115  0.7515759211805286  1.0000
  C   C29       1.0  0.8259862075809348  0.4062123355343168  0.1789187632742888  1.0000
  C   C30       1.0  0.8635773504219981  0.5223872836119723  0.1685692744624161  1.0000
  C   C31       1.0  0.8818957581155834  0.5819470529421065  0.046102779777699165  1.0000
  C   C32       1.0  0.8635800931718377  0.5224360963550514  0.9333252148012829  1.0000
  C   C33       1.0  0.8260496198508804  0.40615512922094044  0.9417203554473219  1.0000
  C   C34       1.0  0.8073328772251865  0.3489646457112039  0.06493850943923007  1.0000
  C   C35       1.0  0.9221493501396493  0.7039762466539379  0.03506984425155446  1.0000
  O   O2        1.0  0.9651287278198539  0.7215256537854811  0.9433635043692119  1.0000
  C   C36       1.0  0.9136466326431553  0.8060883308747566  0.1280144684680593  1.0000
  C   C37       1.0  0.8493062583118248  0.8298520962926768  0.18524913734935589  1.0000
  C   C38       1.0  0.8416313318707632  0.9274999186714534  0.27199816226571083  1.0000
  N   N3        1.0  0.7761531627270476  0.9505623014293232  0.330210268005503  1.0000
  C   C39       1.0  0.8983995532562089  0.002705220133244257  0.3009131308133357  1.0000
  C   C40       1.0  0.9621983108386494  0.9809021931827564  0.24322332309831762  1.0000
  C   C41       1.0  0.9698336604888143  0.8835667853169262  0.15685138347211525  1.0000
  H   H20       1.0  0.7558687839381983  0.1856683136976689  0.40590721248135986  1.0000
  H   H21       1.0  0.8792930063059996  0.5659444994384903  0.2559783114016396  1.0000
  H   H22       1.0  0.8780939071994346  0.567691741753827  0.8387915038704641  1.0000
  H   H23       1.0  0.7783601634341963  0.2594122708732016  0.07216428078803183  1.0000
  H   H24       1.0  0.7553848414756238  0.1862002331990642  0.7502966436316263  1.0000
  H   H25       1.0  0.8049177798206351  0.7736627224061865  0.16158317931108424  1.0000
  H   H26       1.0  0.7334935552723092  0.8950761894474788  0.3093448455939025  1.0000
  H   H27       1.0  0.7698651943375717  0.023199829164874952  0.3947390594959159  1.0000
  H   H28       1.0  0.8931289730495177  0.07842003438599354  0.3676783485326136  1.0000
  H   H29       1.0  0.005852494695762989  0.0395650513237773  0.26548835317580255  1.0000
  H   H30       1.0  0.019796900961190467  0.8679983084051446  0.11343859861043426  1.0000
  Zn  Zn1       1.0  0.750654189185143  0.4075777820595179  0.560946767554868  1.0000
  Zn  Zn2       1.0  0.9013750721856011  0.4047892031053548  0.5596918119384702  1.0000
  C   C42       1.0  0.8260351306573076  0.40099211142295776  0.7975353364943139  1.0000
  C   C43       1.0  0.8259957769028502  0.4113764819639758  0.32310335651852173  1.0000
  C   C44       1.0  0.8260590367471988  0.6433854745475938  0.5551072866582198  1.0000
  C   C45       1.0  0.8259718190916429  0.1689815594229087  0.5655314762686792  1.0000
  O   O3        1.0  0.8831967769879869  0.4120456995404851  0.37101677491427076  1.0000
  O   O4        1.0  0.8832277931083706  0.39820544721128437  0.7486690620977132  1.0000
  O   O5        1.0  0.8832463266370308  0.593941167581389  0.5529067028476207  1.0000
  O   O6        1.0  0.8831781920221669  0.21630998941981416  0.5667790372083485  1.0000
  O   O7        1.0  0.7688510179149365  0.5960569966980782  0.5538595427064126  1.0000
  O   O8        1.0  0.7688324846739519  0.4003228366974234  0.7496218324638648  1.0000
  O   O9        1.0  0.7688014684608593  0.4141630438851256  0.37196798375582274  1.0000
  O   O10       1.0  0.7687828834985583  0.21842732446804014  0.5677303434273384  1.0000
