data_image0
_chemical_formula_structural       NC10NC5H10C7OC6OCH12C6SCOC6H10Zn2C4O8
_chemical_formula_sum              "N2 C46 H32 O11 S1 Zn2"
_cell_length_a       19.4436361288709
_cell_length_b       10.299359160628079
_cell_length_c       10.302041481415108
_cell_angle_alpha    85.54689826212588
_cell_angle_beta     89.70072369043199
_cell_angle_gamma    89.44098980803524

_space_group_name_H-M_alt    "P 1"
_space_group_IT_number       1

loop_
  _space_group_symop_operation_xyz
  'x, y, z'

loop_
  _atom_site_type_symbol
  _atom_site_label
  _atom_site_symmetry_multiplicity
  _atom_site_fract_x
  _atom_site_fract_y
  _atom_site_fract_z
  _atom_site_occupancy
  N   N1        1.0  0.6479909971935801  0.40983525477968086  0.562573996090008  1.0000
  C   C1        1.0  0.5891575010075724  0.41972975383248445  0.5769561426003853  1.0000
  C   C2        1.0  0.5158312604469304  0.43206949237715864  0.5949461682434274  1.0000
  C   C3        1.0  0.47363839501405414  0.4001218247962175  0.5002885762167819  1.0000
  C   C4        1.0  0.3977360278773084  0.41055747912981677  0.5056168174124818  1.0000
  C   C5        1.0  0.3579941308866698  0.3857529145478742  0.612663432603376  1.0000
  C   C6        1.0  0.28187409343650616  0.3896764066924183  0.5997072925646583  1.0000
  C   C7        1.0  0.2413253562725073  0.4472893560758975  0.6934652100380387  1.0000
  C   C8        1.0  0.1696624676456609  0.45093270877015024  0.6829240006315307  1.0000
  C   C9        1.0  0.1375534848730806  0.39656694379452495  0.5789112903493641  1.0000
  C   C10       1.0  0.06376136067827  0.4002716223365772  0.5682148395319591  1.0000
  N   N2        1.0  0.0044374978702855  0.4032499894087158  0.5596156022432301  1.0000
  C   C11       1.0  0.1773771930007139  0.3382466912845581  0.48553643858059736  1.0000
  C   C12       1.0  0.2490564935886687  0.33454924611143766  0.49582591730349446  1.0000
  C   C13       1.0  0.3861215378789589  0.34522258897022673  0.7437251904416537  1.0000
  C   C14       1.0  0.4447951639149939  0.38832029728182516  0.7909630116487079  1.0000
  C   C15       1.0  0.4890212079263606  0.4862191167297083  0.7166235404395289  1.0000
  H   H1        1.0  0.4957293106243819  0.3710517617823146  0.4099973219512645  1.0000
  H   H2        1.0  0.3730401564905322  0.4331014775250843  0.41248105075851904  1.0000
  H   H3        1.0  0.2652066344559719  0.49053840068282684  0.7743017438194075  1.0000
  H   H4        1.0  0.1393287197609083  0.49620967989824516  0.7558350044115434  1.0000
  H   H5        1.0  0.15302408051687794  0.29519313130265634  0.4050343410375852  1.0000
  H   H6        1.0  0.2787241749439194  0.2870284848389779  0.42361081972296555  1.0000
  H   H7        1.0  0.3551441859434585  0.2809707424589898  0.8079504690510255  1.0000
  H   H8        1.0  0.4599402407441441  0.3542010414508461  0.8888724109156776  1.0000
  H   H9        1.0  0.4589304792769934  0.5769480577399115  0.6913882732579884  1.0000
  H   H10       1.0  0.5323130463576714  0.5117723272426202  0.7796983009867742  1.0000
  C   C16       1.0  0.8261366019313585  0.02516578009773851  0.561063986390185  1.0000
  C   C17       1.0  0.7692513215662207  0.03152637910859557  0.4771577511730607  1.0000
  C   C18       1.0  0.741053028267468  0.9177411526350898  0.43374075287282743  1.0000
  C   C19       1.0  0.7694151429689582  0.7962617526313759  0.4774114415777433  1.0000
  C   C20       1.0  0.8262984755905023  0.7879093115421439  0.5611368729677368  1.0000
  C   C21       1.0  0.8544266083831562  0.9029521720579093  0.6022694333135139  1.0000
  C   C22       1.0  0.6805100535299303  0.9266022352626577  0.3463291187021902  1.0000
  O   O1        1.0  0.6368019676844172  0.016278475602580667  0.35825585856025  1.0000
  C   C23       1.0  0.6695496433528644  0.8338012049170583  0.24539485742342637  1.0000
  C   C24       1.0  0.7254947081304073  0.7794406062287896  0.18088948658206316  1.0000
  C   C25       1.0  0.7144431536612297  0.6932908591916584  0.08492057905947537  1.0000
  C   C26       1.0  0.6476277761568437  0.6606227682434621  0.05072007592911021  1.0000
  C   C27       1.0  0.5914512501962066  0.7160228655764205  0.11391589794938506  1.0000
  C   C28       1.0  0.6024399106615062  0.802232648109013  0.20993173872218196  1.0000
  O   O2        1.0  0.6393007962832921  0.5735825733894016  0.953912242144479  1.0000
  C   C29       1.0  0.5744871206343738  0.531950824651126  0.9095919754052231  1.0000
  H   H11       1.0  0.9332992923310761  0.22040440569715036  0.7198146727555039  1.0000
  H   H12       1.0  0.7471328653420503  0.12527429659279643  0.44436380952295984  1.0000
  H   H13       1.0  0.7465836507366443  0.7080567618317215  0.4471561842772098  1.0000
  H   H14       1.0  0.8983060349443854  0.8972412692864059  0.6668596638470512  1.0000
  H   H15       1.0  0.8479434237616383  0.45720288252199726  0.5936681377569928  1.0000
  H   H16       1.0  0.7777841103308923  0.8045546957219369  0.20358153028153292  1.0000
  H   H17       1.0  0.7580946420525458  0.6520531346209562  0.036387648417273155  1.0000
  H   H18       1.0  0.5391331616847429  0.6931868568473661  0.08957983917272583  1.0000
  H   H19       1.0  0.5584040637442653  0.8434320378813256  0.25741732973270515  1.0000
  H   H20       1.0  0.5830753600875198  0.4634227907091728  0.8330627362079492  1.0000
  H   H21       1.0  0.5442665863358963  0.6168718739397508  0.8673421343587244  1.0000
  H   H22       1.0  0.5456125427056729  0.4808871160959416  0.9913493737991455  1.0000
  C   C30       1.0  0.8262304575728997  0.4066666014613358  0.17981328452193757  1.0000
  C   C31       1.0  0.8577878105144804  0.529184834845825  0.16865037311491204  1.0000
  C   C32       1.0  0.8737955955140627  0.5896165982930901  0.04613811120660327  1.0000
  C   C33       1.0  0.8578530010513701  0.5287797586331875  0.9335443808483532  1.0000
  C   C34       1.0  0.8262046328278618  0.4064085137793281  0.9423875646147937  1.0000
  C   C35       1.0  0.8106079253089661  0.34593059944665594  0.06608983754730047  1.0000
  S   S1        1.0  0.9147232257550632  0.7453969730370049  0.03329112272215573  1.0000
  C   C36       1.0  0.9994336228137444  0.674029659455412  0.03514968707147714  1.0000
  O   O3        1.0  0.02634547136265253  0.6503591807626223  0.9278638113052708  1.0000
  C   C37       1.0  0.03733706501686096  0.6419859971126611  0.1583565655003072  1.0000
  C   C38       1.0  0.09833556199202209  0.5671339985995385  0.15803540699082763  1.0000
  C   C39       1.0  0.13417672444765394  0.5355743827551975  0.27368701035990295  1.0000
  C   C40       1.0  0.10974936798078994  0.5783741708917538  0.3908314372981907  1.0000
  C   C41       1.0  0.04949005840012033  0.653053698633768  0.39252671223203506  1.0000
  C   C42       1.0  0.013443683458562283  0.6849912490112735  0.27717625441069194  1.0000
  H   H23       1.0  0.7666473182091912  0.17585617608736714  0.4081626496952169  1.0000
  H   H24       1.0  0.8701536970991345  0.5778852822711602  0.25486683500511753  1.0000
  H   H25       1.0  0.8705103408169004  0.5771432836166017  0.8394726914138078  1.0000
  H   H26       1.0  0.786281052132783  0.2514775252639512  0.07377507858087484  1.0000
  H   H27       1.0  0.8143596927804057  0.35970962931743533  0.618422043706933  1.0000
  H   H28       1.0  0.11819556746264603  0.5323083951031318  0.06854857395540948  1.0000
  H   H29       1.0  0.180917358807406  0.47772507065235237  0.27244652468297526  1.0000
  H   H30       1.0  0.13755664379408294  0.5538087085348866  0.4802603789156492  1.0000
  H   H31       1.0  0.03069774940247827  0.6864725068860944  0.48335858700662526  1.0000
  H   H32       1.0  0.9672251971102144  0.7437729931706221  0.2816397566404387  1.0000
  Zn  Zn1       1.0  0.7508537578963737  0.4079314154604494  0.5617277777272682  1.0000
  Zn  Zn2       1.0  0.9015747260695619  0.4051432172122116  0.56047249848196  1.0000
  C   C43       1.0  0.8262068639776232  0.40128355726851495  0.798244190543107  1.0000
  C   C44       1.0  0.8262232662000261  0.411792683567354  0.32395619955412447  1.0000
  C   C45       1.0  0.8262645066876089  0.643736399889085  0.5559490303389909  1.0000
  C   C46       1.0  0.8261655717260358  0.16933828154002017  0.5662514292613405  1.0000
  O   O4        1.0  0.8834186734400127  0.41244927098683215  0.37185550612794716  1.0000
  O   O5        1.0  0.8834051839400285  0.39850981227692417  0.7493917822078513  1.0000
  O   O6        1.0  0.883450960057577  0.5942935627346149  0.5537367326153535  1.0000
  O   O7        1.0  0.8833728458968787  0.2166655308039238  0.5675104587958897  1.0000
  O   O8        1.0  0.7690555866353881  0.5964091028216285  0.5546898178348745  1.0000
  O   O9        1.0  0.7690098108481754  0.4006269127235931  0.7503447983458078  1.0000
  O   O10       1.0  0.7690233004372081  0.41456632670404603  0.3728069611953788  1.0000
  O   O11       1.0  0.7689774728859908  0.21878257719924643  0.5684620112094128  1.0000
