data_image0
_chemical_formula_structural       NC10NC3NH7C7OC3FC3H9C6NCOC6H11Zn2C4O8
_chemical_formula_sum              "N4 C43 H27 O10 F1 Zn2"
_cell_length_a       19.210446455230148
_cell_length_b       10.29937835083307
_cell_length_c       10.299662537453274
_cell_angle_alpha    85.53091033731847
_cell_angle_beta     89.97714991374127
_cell_angle_gamma    89.96745330776054

_space_group_name_H-M_alt    "P 1"
_space_group_IT_number       1

loop_
  _space_group_symop_operation_xyz
  'x, y, z'

loop_
  _atom_site_type_symbol
  _atom_site_label
  _atom_site_symmetry_multiplicity
  _atom_site_fract_x
  _atom_site_fract_y
  _atom_site_fract_z
  _atom_site_occupancy
  N   N1        1.0  0.6559182533123569  0.42078495899029145  0.5671482810361901  1.0000
  C   C1        1.0  0.5956899204391434  0.42299244016397597  0.5673791991591366  1.0000
  C   C2        1.0  0.5208857492775415  0.4257293126721666  0.5676652776802433  1.0000
  C   C3        1.0  0.485285886292905  0.541956855467417  0.5827649878625936  1.0000
  C   C4        1.0  0.4126204285392179  0.5421084172218495  0.582712373743181  1.0000
  C   C5        1.0  0.3757190623131468  0.4264382636715691  0.5677516871059736  1.0000
  C   C6        1.0  0.2983968037708271  0.4250818123240385  0.5676012363889285  1.0000
  C   C7        1.0  0.2606603473266708  0.5286799693517985  0.5042276384573816  1.0000
  C   C8        1.0  0.1878818534098039  0.5272777453483173  0.5041187108969722  1.0000
  C   C9        1.0  0.1518384378112573  0.4225349007681465  0.5673323565347534  1.0000
  C   C10       1.0  0.0769087928972328  0.4212328394349296  0.5671956635463837  1.0000
  N   N2        1.0  0.0166708401840011  0.42018593789939307  0.5670857972647785  1.0000
  C   C11       1.0  0.1888512528310886  0.31906244932466854  0.630680932374307  1.0000
  C   C12       1.0  0.2616315610783733  0.3201903784889286  0.6308401354672013  1.0000
  C   C13       1.0  0.4139289516872936  0.31203090997356964  0.5529399530313079  1.0000
  N   N3        1.0  0.48469914256384306  0.3144758821281044  0.5531052595864927  1.0000
  H   H1        1.0  0.5133951278169824  0.6313879994736005  0.5948041232798189  1.0000
  H   H2        1.0  0.3853597700869288  0.6321208902768689  0.5961461899029512  1.0000
  H   H3        1.0  0.2874013916607531  0.6099555459586987  0.4532277284001256  1.0000
  H   H4        1.0  0.1597489819148097  0.6077250701389807  0.45444929979783866  1.0000
  H   H5        1.0  0.1614707005696396  0.23765174233919395  0.6802509593424129  1.0000
  H   H6        1.0  0.289119426167023  0.23986167446388196  0.6819472796738708  1.0000
  H   H7        1.0  0.387655329466331  0.22115551231157005  0.5394599804647657  1.0000
  C   C14       1.0  0.8362244945943362  0.03910058780781256  0.567181069422485  1.0000
  C   C15       1.0  0.7635990422241026  0.03923495159540202  0.5511685667804889  1.0000
  C   C16       1.0  0.7268802038621827  0.9220144915150519  0.5445696965937865  1.0000
  C   C17       1.0  0.763769249506375  0.8039906634426942  0.5511754126766208  1.0000
  C   C18       1.0  0.8363712313565488  0.8018603619300332  0.5670642481654646  1.0000
  C   C19       1.0  0.8721572525916392  0.9199359980415469  0.5753170828772685  1.0000
  C   C20       1.0  0.6502789263512064  0.9221191277536469  0.5262883597454819  1.0000
  O   O1        1.0  0.623400334034735  0.8374988325137198  0.4596307825421555  1.0000
  C   C21       1.0  0.6041698079308537  0.018121319644521128  0.5836363213759777  1.0000
  C   C22       1.0  0.5421705371713104  0.05824679257087384  0.5198650331343391  1.0000
  C   C23       1.0  0.49794547114207094  0.1475564227175552  0.5739345889122791  1.0000
  F   F1        1.0  0.43855962697554046  0.18636922456889682  0.5112242278408268  1.0000
  C   C24       1.0  0.5148729937756409  0.1967797177143802  0.6925389230285286  1.0000
  C   C25       1.0  0.5758727801186239  0.15640309174294242  0.7575249697623523  1.0000
  C   C26       1.0  0.6202417289671579  0.06716467583255636  0.7038601086977601  1.0000
  H   H8        1.0  0.9733990496773657  0.2463222913840335  0.5954024065799692  1.0000
  H   H9        1.0  0.735592015484039  0.1307962594042853  0.5423601200489472  1.0000
  H   H10       1.0  0.735589918356137  0.7135711793545996  0.5451278719849533  1.0000
  H   H11       1.0  0.9281460793702568  0.9190284104997447  0.587660790352859  1.0000
  H   H12       1.0  0.8643272484348212  0.47367047870480605  0.5720719161089822  1.0000
  H   H13       1.0  0.5283131548590841  0.021303199415884544  0.4277073585591453  1.0000
  H   H14       1.0  0.4806188445264958  0.2658085901059426  0.7344246077260803  1.0000
  H   H15       1.0  0.5886539838552798  0.19383555323306823  0.8498964049529232  1.0000
  H   H16       1.0  0.6666256050466387  0.035505423001670255  0.7570052214221294  1.0000
  C   C27       1.0  0.836345814357079  0.42062091479877584  0.18574664379136863  1.0000
  C   C28       1.0  0.9074102292657438  0.4528787914642758  0.18191539238715215  1.0000
  C   C29       1.0  0.9434136141070902  0.4672446682619458  0.06330228274807514  1.0000
  C   C30       1.0  0.9072883652807823  0.4525689080666708  0.9467721644075064  1.0000
  C   C31       1.0  0.8362499456335409  0.42033999370271413  0.9484986597645504  1.0000
  C   C32       1.0  0.8012390892141967  0.40410330314844534  0.06855424712791836  1.0000
  N   N4        1.0  0.015906622584895613  0.5022112910488827  0.06280077765329994  1.0000
  C   C33       1.0  0.06516468091735872  0.462277863246622  0.9685853452609905  1.0000
  O   O2        1.0  0.052449647570837366  0.36373680126028174  0.9070511232955205  1.0000
  C   C34       1.0  0.13201097921552085  0.5324984099677184  0.9462125611193257  1.0000
  C   C35       1.0  0.14043346768289733  0.6605598279011529  0.9825453027797835  1.0000
  C   C36       1.0  0.203595529815233  0.7260131296182264  0.9603337320285026  1.0000
  C   C37       1.0  0.25884147836839744  0.6648919276588003  0.9013586748229847  1.0000
  C   C38       1.0  0.25098411230727247  0.5382760128310169  0.864019645867248  1.0000
  C   C39       1.0  0.18794064822989975  0.4723654636691639  0.8859021865968044  1.0000
  H   H17       1.0  0.7021343639405628  0.36097822714836614  0.40014392003635013  1.0000
  H   H18       1.0  0.9353021620936632  0.4660521837993894  0.27132891260272873  1.0000
  H   H19       1.0  0.9342526880630811  0.4684887017853452  0.8546518487347323  1.0000
  H   H20       1.0  0.7464586322292442  0.37921915988774946  0.07064360017984384  1.0000
  H   H21       1.0  0.8087751896209335  0.40965814229185216  0.6215814875393137  1.0000
  H   H22       1.0  0.034913165932303425  0.5493854580005089  0.14171284812388585  1.0000
  H   H23       1.0  0.09814740797433386  0.7111673005986057  0.0263187403618117  1.0000
  H   H24       1.0  0.2096026182238917  0.8244866739683208  0.9884334654627493  1.0000
  H   H25       1.0  0.30766014113843276  0.715791058746972  0.8842248972970217  1.0000
  H   H26       1.0  0.29378535851086784  0.4910851330211423  0.8180486150348463  1.0000
  H   H27       1.0  0.18312639577699108  0.37411256880330224  0.8564271750804369  1.0000
  Zn  Zn1       1.0  0.7600236547498946  0.42060862748285777  0.5671377493068475  1.0000
  Zn  Zn2       1.0  0.912565419433269  0.4203516824996716  0.5671069665902089  1.0000
  C   C40       1.0  0.8362655006719683  0.41521921336530254  0.8043229953356592  1.0000
  C   C41       1.0  0.836325239561771  0.4257427324525691  0.32992184744308606  1.0000
  C   C42       1.0  0.8363405733839536  0.6576844186441986  0.5619110577326529  1.0000
  C   C43       1.0  0.8362501144890337  0.18327596686801217  0.5723338545355068  1.0000
  O   O3        1.0  0.8942071381016672  0.42735848598514026  0.3782966818326363  1.0000
  O   O4        1.0  0.8941592718090788  0.41340746490999924  0.7559244238735163  1.0000
  O   O5        1.0  0.8942191134348878  0.6092011853808885  0.5601750691050575  1.0000
  O   O6        1.0  0.8941472444377162  0.23156477492840155  0.5740459392336961  1.0000
  O   O7        1.0  0.7784417776904308  0.609395535143227  0.5601987766670331  1.0000
  O   O8        1.0  0.7783819363703568  0.41360337506709777  0.755948061949751  1.0000
  O   O9        1.0  0.7784298028968298  0.4275543514593456  0.3783187584860497  1.0000
  O   O10       1.0  0.7783699092160044  0.23176063107755573  0.574068113258182  1.0000
