data_image0
_chemical_formula_structural       NC12NC2H8C7OC3NC3H11C7OC3NC3H11Zn2C4O8
_chemical_formula_sum              "N4 C44 H30 O10 Zn2"
_cell_length_a       19.240039667572717
_cell_length_b       10.298746005989749
_cell_length_c       10.298749378158432
_cell_angle_alpha    85.5599185525692
_cell_angle_beta     90.00886307587598
_cell_angle_gamma    90.00762981599719

_space_group_name_H-M_alt    "P 1"
_space_group_IT_number       1

loop_
  _space_group_symop_operation_xyz
  'x, y, z'

loop_
  _atom_site_type_symbol
  _atom_site_label
  _atom_site_symmetry_multiplicity
  _atom_site_fract_x
  _atom_site_fract_y
  _atom_site_fract_z
  _atom_site_occupancy
  N   N1        1.0  0.6544598297181726  0.42151496725230797  0.5674702524352666  1.0000
  C   C1        1.0  0.5943114609000942  0.42151505124757804  0.5674701704997176  1.0000
  C   C2        1.0  0.5194934237559231  0.42151516855474647  0.5674700331950653  1.0000
  C   C3        1.0  0.48302367719923556  0.35703573494075935  0.6708843263492068  1.0000
  C   C4        1.0  0.4103529283599251  0.35692483693439336  0.6709708648565822  1.0000
  C   C5        1.0  0.3731611888063374  0.4215152611467883  0.5674698055034637  1.0000
  C   C6        1.0  0.41034512766940456  0.48610587234548897  0.4639689407258365  1.0000
  C   C7        1.0  0.48301581538717053  0.4859947388091852  0.4640556017206565  1.0000
  C   C8        1.0  0.29595609835320064  0.42151518248677045  0.5674697100720856  1.0000
  C   C9        1.0  0.2587636815574927  0.30824115277227393  0.6093325193484584  1.0000
  C   C10       1.0  0.1860929932324143  0.30834806981264373  0.6092411970534681  1.0000
  C   C11       1.0  0.1496238114258381  0.42151505329768835  0.5674697709744358  1.0000
  C   C12       1.0  0.0748057742833673  0.4215149395242941  0.567470019644557  1.0000
  N   N2        1.0  0.014657457445616398  0.4215148986798425  0.5674702280772157  1.0000
  C   C13       1.0  0.186102140476901  0.534682112621294  0.5256982920078739  1.0000
  C   C14       1.0  0.2587728367532152  0.5347892098116938  0.5256068071228857  1.0000
  H   H1        1.0  0.5107416708295264  0.3071142983897799  0.7516273112210319  1.0000
  H   H2        1.0  0.3832628985370561  0.3078014609398618  0.752829530406371  1.0000
  H   H3        1.0  0.3832486267018633  0.5352292753990278  0.382110224326097  1.0000
  H   H4        1.0  0.5107275932356516  0.5359160750659766  0.3833128926571989  1.0000
  H   H5        1.0  0.2858531808150407  0.2190754793346381  0.6404937354130695  1.0000
  H   H6        1.0  0.1583745249771854  0.22008156751071528  0.6414355570496415  1.0000
  H   H7        1.0  0.15839078528379558  0.6229485903830356  0.4935039465608737  1.0000
  H   H8        1.0  0.2858698163148147  0.6239549624365106  0.4944455462909927  1.0000
  C   C15       1.0  0.8345287667572281  0.04011286383577284  0.5674530523055648  1.0000
  C   C16       1.0  0.8670314110087127  0.04862991351369583  0.4449394511773068  1.0000
  C   C17       1.0  0.8827354070747004  0.9358132359997188  0.3823015957884741  1.0000
  C   C18       1.0  0.8670319279852431  0.8133933174138654  0.44489031033569715  1.0000
  C   C19       1.0  0.8345951841524172  0.8029070520832351  0.567498610373329  1.0000
  C   C20       1.0  0.818382113496812  0.9168326366244388  0.6278475095609615  1.0000
  C   C21       1.0  0.9176486927493696  0.9446156107843443  0.2534762508667794  1.0000
  O   O1        1.0  0.9600827944978555  0.8566398677658419  0.2282620685879948  1.0000
  C   C22       1.0  0.9044246413445384  0.053162144313914084  0.1532629241486212  1.0000
  C   C23       1.0  0.8386119903034912  0.11255531502787886  0.14115456483995725  1.0000
  C   C24       1.0  0.8264249142867283  0.2142348389545965  0.04524046377716395  1.0000
  N   N3        1.0  0.7594997553917344  0.27447012450913255  0.034035549622876804  1.0000
  C   C25       1.0  0.8800933669330192  0.2561288785395479  0.9600998125704296  1.0000
  C   C26       1.0  0.9452714448011582  0.19657110786550502  0.9703519594245984  1.0000
  C   C27       1.0  0.9574044338551705  0.09531608494210975  0.06596182945834084  1.0000
  H   H9        1.0  0.774078676807461  0.23131493258681068  0.7998063077880744  1.0000
  H   H10       1.0  0.8808489907208384  0.14315079614522763  0.3987141417133646  1.0000
  H   H11       1.0  0.8795627999249052  0.7262059537044722  0.39718880685800384  1.0000
  H   H12       1.0  0.7933318692751365  0.9095154522288247  0.722285205017928  1.0000
  H   H13       1.0  0.773567470028839  0.5757751874407147  0.7993633031433784  1.0000
  H   H14       1.0  0.7965276848746555  0.07914557038903203  0.2051220423636908  1.0000
  H   H15       1.0  0.7191225510026911  0.24401051464074364  0.09699148852335915  1.0000
  H   H16       1.0  0.7498518583659118  0.35009178204936964  0.9627917584117718  1.0000
  H   H17       1.0  0.871328160374855  0.3344870156048445  0.8856070318185969  1.0000
  H   H18       1.0  0.9865039788160361  0.22894545186970316  0.9040519954074013  1.0000
  H   H19       1.0  0.008379013064701901  0.0506735697131282  0.07248986943180258  1.0000
  C   C28       1.0  0.8345299277405284  0.4215379544204918  0.18607478355903462  1.0000
  C   C29       1.0  0.8725044231218131  0.5384127211104575  0.1760620775297752  1.0000
  C   C30       1.0  0.8910093316296808  0.5983136487641176  0.05376032664915931  1.0000
  C   C31       1.0  0.8725071896076719  0.5384615867233027  0.9408180510282826  1.0000
  C   C32       1.0  0.8345940132638454  0.42148191727135953  0.9488768899499429  1.0000
  C   C33       1.0  0.8156863296708061  0.363943021282801  0.07192749787971642  1.0000
  C   C34       1.0  0.9316736769322219  0.7210921203151941  0.04308752165459184  1.0000
  O   O2        1.0  0.9751034576634648  0.739436486213449  0.9517416971479107  1.0000
  C   C35       1.0  0.9230707711466051  0.823051671440564  0.13598330165185812  1.0000
  C   C36       1.0  0.8580508882899882  0.8456276231870639  0.19268892881960564  1.0000
  C   C37       1.0  0.8502849525385894  0.943138008140584  0.2793950307722115  1.0000
  N   N4        1.0  0.7841153761895976  0.9649915216306484  0.33706850044938474  1.0000
  C   C38       1.0  0.9076426158598908  0.01939564415368311  0.3087972524860767  1.0000
  C   C39       1.0  0.9721149770370896  0.9987705108383096  0.2516324078447485  1.0000
  C   C40       1.0  0.9798408867590854  0.9015718231111887  0.16530312915738987  1.0000
  H   H20       1.0  0.7636978540697987  0.1996884132374066  0.41243422482332615  1.0000
  H   H21       1.0  0.8883808725836357  0.5822622839546612  0.2636108456404993  1.0000
  H   H22       1.0  0.8871689726796308  0.583987447718809  0.8464144561428024  1.0000
  H   H23       1.0  0.7864181549553065  0.2738512729641287  0.07889369713142291  1.0000
  H   H24       1.0  0.7632087635412036  0.20021141432178746  0.7568197519212125  1.0000
  H   H25       1.0  0.8132012359782719  0.788615520157127  0.16864253226979686  1.0000
  H   H26       1.0  0.7410127129256645  0.9087146580747771  0.3158371409025713  1.0000
  H   H27       1.0  0.7777536181060258  0.037516118365074735  0.40156055799304724  1.0000
  H   H28       1.0  0.9023086282584893  0.0950164646940661  0.375534836890016  1.0000
  H   H29       1.0  0.016222348527543673  0.05824264078761754  0.2742723074979341  1.0000
  H   H30       1.0  0.03033149377102906  0.8869258671920346  0.12230178357448551  1.0000
  Zn  Zn1       1.0  0.7584050938822137  0.42151147941019906  0.5674777342558344  1.0000
  Zn  Zn2       1.0  0.9107122120208453  0.421507791342278  0.5674733454167507  1.0000
  C   C41       1.0  0.8345799136098458  0.4163184001742384  0.8046906515806591  1.0000
  C   C42       1.0  0.8345390556356306  0.42670250929066955  0.3302605556190994  1.0000
  C   C43       1.0  0.8345786254147843  0.6587230767014307  0.5623144025691342  1.0000
  C   C44       1.0  0.834540291728848  0.18429627232139945  0.5726368737833605  1.0000
  O   O3        1.0  0.8923418761255655  0.42842871524727055  0.3786489519956686  1.0000
  O   O4        1.0  0.8923746715235649  0.41458841527918366  0.7562985502406974  1.0000
  O   O5        1.0  0.8923728522348768  0.6103332571201361  0.5605780144148524  1.0000
  O   O6        1.0  0.8923436434347763  0.23268388270575757  0.5743693904406924  1.0000
  O   O7        1.0  0.7767736104933375  0.6103353880493922  0.5605816892265589  1.0000
  O   O8        1.0  0.7767754299089248  0.41459210665319035  0.7563021558943341  1.0000
  O   O9        1.0  0.7767426344219798  0.428432361476041  0.37865099611432584  1.0000
  O   O10       1.0  0.7767444017357229  0.23268751963776158  0.5743715319348373  1.0000
