data_image0
_chemical_formula_structural       NC11NC3H8C7OC6OCH12C7OC3NC3H11Zn2C4O8
_chemical_formula_sum              "N3 C45 H31 O11 Zn2"
_cell_length_a       17.807433833752565
_cell_length_b       10.299359160628079
_cell_length_c       10.298749378158432
_cell_angle_alpha    85.56206142688012
_cell_angle_beta     88.5335258425568
_cell_angle_gamma    90.7076958246699

_space_group_name_H-M_alt    "P 1"
_space_group_IT_number       1

loop_
  _space_group_symop_operation_xyz
  'x, y, z'

loop_
  _atom_site_type_symbol
  _atom_site_label
  _atom_site_symmetry_multiplicity
  _atom_site_fract_x
  _atom_site_fract_y
  _atom_site_fract_z
  _atom_site_occupancy
  N   N1        1.0  0.7076114972497012  0.4386240675229127  0.534691228371214  1.0000
  C   C1        1.0  0.6567901056643649  0.4038914858282656  0.6012549794880111  1.0000
  C   C2        1.0  0.5935631687880256  0.3606870173760788  0.6840517912537019  1.0000
  C   C3        1.0  0.6052868656942649  0.29712602005947164  0.8067728419644027  1.0000
  C   C4        1.0  0.5439675010259265  0.25560154103917654  0.8872857255495492  1.0000
  C   C5        1.0  0.4707700782596161  0.27732473498175647  0.8457183696791231  1.0000
  C   C6        1.0  0.4580695814434133  0.3410403218609046  0.7225371036448511  1.0000
  C   C7        1.0  0.3803039917164339  0.3640938764213364  0.6781890265790744  1.0000
  C   C8        1.0  0.3615045529384707  0.34723070475499274  0.5485974740063002  1.0000
  C   C9        1.0  0.2882771746005737  0.3689151728863851  0.506986039498394  1.0000
  C   C10       1.0  0.2329061595487444  0.40778140919895733  0.5941458552798462  1.0000
  C   C11       1.0  0.1575420871316303  0.4301244604559262  0.5511730927523375  1.0000
  N   N2        1.0  0.09695474625369062  0.44808661376576864  0.5166261192259738  1.0000
  C   C12       1.0  0.2510140347485536  0.4248552026178747  0.723206255983261  1.0000
  C   C13       1.0  0.32418866680482167  0.40313578477846446  0.7650731350242053  1.0000
  C   C14       1.0  0.5202462584507052  0.38256023461964106  0.6420406366330418  1.0000
  H   H1        1.0  0.6617516897025351  0.27970862110146477  0.8401390805407305  1.0000
  H   H2        1.0  0.5531628515758034  0.2061409689826439  0.9820238488226365  1.0000
  H   H3        1.0  0.4241286418176784  0.24276311466822253  0.9091586251291157  1.0000
  H   H4        1.0  0.4031692271304363  0.3155930852593518  0.4798727516162655  1.0000
  H   H5        1.0  0.2748232499984798  0.3550414276685123  0.40694279373047304  1.0000
  H   H6        1.0  0.20863224580134962  0.45526980125789174  0.7914160494820777  1.0000
  H   H7        1.0  0.3371145007666257  0.4185549929636263  0.8649337680646849  1.0000
  H   H8        1.0  0.51174972312123  0.43338317759008405  0.5475369832241574  1.0000
  C   C15       1.0  0.9021983033996397  0.06197498870410478  0.525631094786275  1.0000
  C   C16       1.0  0.840052243341702  0.06575184742943962  0.4441110193512836  1.0000
  C   C17       1.0  0.8092459242356619  0.9506853589040757  0.4018763165633259  1.0000
  C   C18       1.0  0.8402312165724217  0.8304946649901247  0.44435784149315105  1.0000
  C   C19       1.0  0.902375126005193  0.8247258279091769  0.525697142642469  1.0000
  C   C20       1.0  0.933104517232569  0.9410461777478398  0.5656497111460141  1.0000
  C   C21       1.0  0.7431041460200605  0.9567970758435863  0.31700482499841875  1.0000
  O   O1        1.0  0.6953636834902562  0.044508614467186014  0.3307873780757673  1.0000
  C   C22       1.0  0.7311192717138435  0.8634754443773822  0.21650546913546953  1.0000
  C   C23       1.0  0.7922193634928287  0.8116163753785549  0.14961027741865163  1.0000
  C   C24       1.0  0.7801355679696532  0.7249432577531086  0.0540815935302994  1.0000
  C   C25       1.0  0.7071492995579041  0.689257691300967  0.022702651676757668  1.0000
  C   C26       1.0  0.6457962171447782  0.7421454857919517  0.08829771983595314  1.0000
  C   C27       1.0  0.6578113200592846  0.8288758197934928  0.18387601613512516  1.0000
  O   O2        1.0  0.6980414274891823  0.6018165712849697  0.9262193301050332  1.0000
  C   C28       1.0  0.627240307695679  0.5572547521749941  0.8846328273722892  1.0000
  H   H9        1.0  0.019271541552115634  0.2620811481712111  0.6798868418734634  1.0000
  H   H10       1.0  0.8158882394067709  0.15849509498995262  0.4122448282786988  1.0000
  H   H11       1.0  0.8152886938278308  0.7412535827871075  0.4150612969311567  1.0000
  H   H12       1.0  0.9810419185904924  0.9373282513604069  0.6283992980554125  1.0000
  H   H13       1.0  0.9260218873437691  0.4950026790737699  0.5573206467777656  1.0000
  H   H14       1.0  0.8493375552235094  0.8390908326480552  0.1700929864192131  1.0000
  H   H15       1.0  0.827809528472587  0.6856578505135106  0.0036845171515251796  1.0000
  H   H16       1.0  0.5886464813576968  0.7169473759684544  0.06617172952147188  1.0000
  H   H17       1.0  0.6097173939251775  0.8681053055106923  0.23324173469034548  1.0000
  H   H18       1.0  0.6366113856745117  0.4890928303226957  0.8077171903434408  1.0000
  H   H19       1.0  0.5942252603990356  0.6408038039465586  0.8436513250928166  1.0000
  H   H20       1.0  0.5957112952886301  0.5049129672148659  0.9676378765061422  1.0000
  C   C29       1.0  0.9022520679928846  0.44337759305656044  0.1442646520385844  1.0000
  C   C30       1.0  0.9433153800499844  0.5612430709714427  0.13235104157856603  1.0000
  C   C31       1.0  0.9633258696412524  0.6216265965264027  0.009123074980637691  1.0000
  C   C32       1.0  0.9433183771147308  0.5612920063766889  0.8971068778512281  1.0000
  C   C33       1.0  0.9023213313165777  0.4433232427771414  0.9070635425835674  1.0000
  C   C34       1.0  0.8818758010498091  0.38529102832782325  0.03106064032187339  1.0000
  C   C35       1.0  0.007297495029191747  0.7454660946130185  0.9964146446715598  1.0000
  O   O3        1.0  0.05424394541644584  0.7649503016205987  0.9028912452618765  1.0000
  C   C36       1.0  0.9980125169312459  0.84719362371416  0.08974506551080474  1.0000
  C   C37       1.0  0.9277346229856505  0.8680601349327639  0.1497123572456629  1.0000
  C   C38       1.0  0.9193537263021739  0.9653607481698903  0.23681098461329597  1.0000
  N   N3        1.0  0.8478330113363362  0.9854746607045535  0.29780375726147557  1.0000
  C   C39       1.0  0.9813630141956322  0.0431206995632234  0.2633389066930274  1.0000
  C   C40       1.0  0.05104935201185867  0.02419050791950239  0.2029399182816407  1.0000
  C   C41       1.0  0.05938702684851305  0.9272005220026684  0.11622013132807285  1.0000
  H   H21       1.0  0.8256580373265827  0.2196803511332155  0.37416964270149866  1.0000
  H   H22       1.0  0.9604825176631127  0.6055071282266378  0.21910491972623514  1.0000
  H   H23       1.0  0.9591727937198941  0.6072003528772023  0.8019693647497408  1.0000
  H   H24       1.0  0.8502269734520923  0.2944357074918944  0.03949192785343292  1.0000
  H   H25       1.0  0.8251294437728607  0.22019047266814784  0.7185797155947573  1.0000
  H   H26       1.0  0.8792480880661657  0.8098731726714625  0.12791354204521088  1.0000
  H   H27       1.0  0.801234925248331  0.9280687888692551  0.2787323847206875  1.0000
  H   H28       1.0  0.8409664723977186  0.057827849226313344  0.3626171375948617  1.0000
  H   H29       1.0  0.975607834592677  0.11859692920236098  0.33034636428416286  1.0000
  H   H30       1.0  0.09873388271986583  0.08481785175482148  0.22336954106022366  1.0000
  H   H31       1.0  0.11396109242062935  0.9138818464749177  0.07068605926760241  1.0000
  Zn  Zn1       1.0  0.8199675483083442  0.44135127868950685  0.5294855129170795  1.0000
  Zn  Zn2       1.0  0.9845986789342558  0.4453487819325648  0.5218424206221284  1.0000
  C   C42       1.0  0.9023053799352502  0.4381596600931956  0.7628778504764167  1.0000
  C   C43       1.0  0.9022626454656166  0.4485420828414808  0.2884501272189248  1.0000
  C   C44       1.0  0.9023373586427593  0.680549992862505  0.5205092187791178  1.0000
  C   C45       1.0  0.902230610225593  0.206150188353468  0.5308188306334192  1.0000
  O   O4        1.0  0.9647428501388576  0.4517866985265411  0.33393957565608456  1.0000
  O   O5        1.0  0.9647763938409407  0.43794807714822337  0.7115870978757555  1.0000
  O   O6        1.0  0.9648013749591366  0.6336813157570911  0.5158727521996467  1.0000
  O   O7        1.0  0.964717812836517  0.256053467851034  0.5296538265586042  1.0000
  O   O8        1.0  0.8398483582255571  0.6306465914083002  0.5216741095819846  1.0000
  O   O9        1.0  0.8398233774593503  0.43491491315539843  0.7173883861422785  1.0000
  O   O10       1.0  0.8397898336549093  0.44875348938880766  0.33973930239068295  1.0000
  O   O11       1.0  0.8397647963561878  0.2530202494172027  0.5354536506681733  1.0000
