data_image0
_chemical_formula_structural       NC11NC3H8C6NCOC6H11C7OC6OCH12Zn2C4O8
_chemical_formula_sum              "N3 C45 H31 O11 Zn2"
_cell_length_a       17.807433833752565
_cell_length_b       10.29965916528486
_cell_length_c       10.299362532796529
_cell_angle_alpha    85.59689086151258
_cell_angle_beta     88.53944106115836
_cell_angle_gamma    90.70223866869796

_space_group_name_H-M_alt    "P 1"
_space_group_IT_number       1

loop_
  _space_group_symop_operation_xyz
  'x, y, z'

loop_
  _atom_site_type_symbol
  _atom_site_label
  _atom_site_symmetry_multiplicity
  _atom_site_fract_x
  _atom_site_fract_y
  _atom_site_fract_z
  _atom_site_occupancy
  N   N1        1.0  0.7074351044187854  0.4379828193541  0.5351473532303639  1.0000
  C   C1        1.0  0.6566199345161228  0.403277912522398  0.6016972103149634  1.0000
  C   C2        1.0  0.5934007367108433  0.36010786814250784  0.6844767393278579  1.0000
  C   C3        1.0  0.6051358765590397  0.29659787138872984  0.8071722798441137  1.0000
  C   C4        1.0  0.5438240089214361  0.25510684366640146  0.8876684662555641  1.0000
  C   C5        1.0  0.4706226989089637  0.2768127537708791  0.8461097943398246  1.0000
  C   C6        1.0  0.4579107211392708  0.3404771528104007  0.722954115490172  1.0000
  C   C7        1.0  0.3801409913087519  0.36351227313687406  0.6786152759195712  1.0000
  C   C8        1.0  0.3613343819535847  0.34659923579776986  0.5490319389174849  1.0000
  C   C9        1.0  0.2881031158604834  0.3682664046974007  0.5074291838039766  1.0000
  C   C10       1.0  0.2327353133591986  0.4071648715974825  0.5945896102365422  1.0000
  C   C11       1.0  0.1573672289715685  0.42949006008917423  0.5516257997201477  1.0000
  N   N2        1.0  0.0967766627633002  0.4474378530373855  0.5170860229516647  1.0000
  C   C12       1.0  0.2508503133817229  0.4242883130158761  0.7236418914060097  1.0000
  C   C13       1.0  0.3240288513165858  0.40258629594079376  0.76550005965647  1.0000
  C   C14       1.0  0.5200799024162878  0.38196362090656555  0.642474343117087  1.0000
  H   H1        1.0  0.6616038197086659  0.279194345274127  0.8405315522148522  1.0000
  H   H2        1.0  0.5530282161651469  0.2056856616559517  0.9823868086164049  1.0000
  H   H3        1.0  0.4239872775415716  0.24227757899350677  0.9095364824997918  1.0000
  H   H4        1.0  0.4029965811075991  0.3149362499057169  0.4803065138935687  1.0000
  H   H5        1.0  0.274643705702631  0.3543542043805967  0.40739208962938966  1.0000
  H   H6        1.0  0.20847103860741964  0.45472813483631436  0.7918521624648376  1.0000
  H   H7        1.0  0.33696006892988417  0.4180438144008478  0.8653549025184368  1.0000
  H   H8        1.0  0.5115744454526788  0.43274720077412576  0.547990752676554  1.0000
  C   C15       1.0  0.902043374306508  0.06134809343291492  0.526004087959371  1.0000
  C   C16       1.0  0.9025330521383587  0.07059859880412045  0.38916809763055227  1.0000
  C   C17       1.0  0.9038875534588722  0.9584496333461177  0.3202710354097862  1.0000
  C   C18       1.0  0.9026746448342202  0.8354118362342049  0.3894579076221183  1.0000
  C   C19       1.0  0.9021755593301661  0.8240627272272245  0.5262401118426838  1.0000
  C   C20       1.0  0.9021270984417218  0.9376449656654794  0.5937288850287157  1.0000
  N   N3        1.0  0.9032340412302478  0.9714632224864251  0.18023800351539054  1.0000
  C   C21       1.0  0.938437100008056  0.8811645881880151  0.09888042359940163  1.0000
  O   O1        1.0  0.9902699269206229  0.8096192086923716  0.14345302901869394  1.0000
  C   C22       1.0  0.9165794354492517  0.8743943931754057  0.9615309187606949  1.0000
  C   C23       1.0  0.8471047092893181  0.9225501950505798  0.9184089774313007  1.0000
  C   C24       1.0  0.8269537202972153  0.9150071301038516  0.7888237525710751  1.0000
  C   C25       1.0  0.875577483181104  0.8590745558825185  0.7011132126664106  1.0000
  C   C26       1.0  0.944390666052767  0.8101147422364876  0.7428896510930705  1.0000
  C   C27       1.0  0.9648284383686168  0.8173084068169186  0.872357099725197  1.0000
  H   H9        1.0  0.9004026314730952  0.25114511176545573  0.784153893083217  1.0000
  H   H10       1.0  0.9024383860894756  0.16518897239015295  0.33535058923709316  1.0000
  H   H11       1.0  0.9008008812040901  0.7485594171595659  0.33674057074050956  1.0000
  H   H12       1.0  0.9017596575447897  0.92964872587189  0.699213526110217  1.0000
  H   H13       1.0  0.900984632096117  0.4922358552998161  0.5787557760998112  1.0000
  H   H14       1.0  0.8817915143090082  0.057061246781309194  0.13529322662893528  1.0000
  H   H15       1.0  0.8077469306321817  0.9643111348864519  0.9847157970003435  1.0000
  H   H16       1.0  0.7734082713958449  0.9521293733521121  0.7565226740579152  1.0000
  H   H17       1.0  0.8598293511797723  0.8533036452839687  0.6008883426254208  1.0000
  H   H18       1.0  0.9819706618166081  0.7665143108933039  0.6749016191173975  1.0000
  H   H19       1.0  0.01856167569851741  0.7790039192032816  0.9024308043367704  1.0000
  C   C28       1.0  0.9020508218756259  0.44258347258104624  0.14475791424986229  1.0000
  C   C29       1.0  0.8307274748215528  0.38217221416347247  0.1513355963717904  1.0000
  C   C30       1.0  0.7944303538016506  0.3530179121061723  0.03749711453567972  1.0000
  C   C31       1.0  0.8309390656917642  0.3823409064356549  0.9160715328403137  1.0000
  C   C32       1.0  0.9021681349697084  0.4428273699804135  0.9074863237701991  1.0000
  C   C33       1.0  0.9372513636684414  0.47285376970622517  0.022390249999857614  1.0000
  C   C34       1.0  0.7194964970965517  0.2879020316646588  0.046755975791841875  1.0000
  O   O2        1.0  0.7041339265874592  0.2083242831609453  0.14334005175072284  1.0000
  C   C35       1.0  0.6619936757472332  0.31305617173169464  0.9465171262507743  1.0000
  C   C36       1.0  0.6562378668171792  0.4362859535179606  0.8789699103872999  1.0000
  C   C37       1.0  0.6012534666349785  0.4591296946497072  0.7858327021168043  1.0000
  C   C38       1.0  0.5507012118119602  0.3602401222698923  0.7590979785553196  1.0000
  C   C39       1.0  0.5556669898036021  0.23718470465043273  0.8276001210792261  1.0000
  C   C40       1.0  0.6106446355871207  0.2142136034618809  0.9208100073045697  1.0000
  O   O3        1.0  0.4966252045400711  0.3880857833903779  0.6646312499059244  1.0000
  C   C41       1.0  0.4418341746235723  0.2969961307261908  0.6277718616715964  1.0000
  H   H20       1.0  0.03676609012203391  0.5560911925566798  0.3396478463653352  1.0000
  H   H21       1.0  0.8029078413566447  0.35875623827721914  0.24515299658643697  1.0000
  H   H22       1.0  0.804078941580565  0.35660915459154907  0.8282555255549076  1.0000
  H   H23       1.0  0.9921995913867043  0.5195104951807321  0.01650015985959774  1.0000
  H   H24       1.0  0.9296190618086098  0.46555149353198  0.5767506944925853  1.0000
  H   H25       1.0  0.6936971208572076  0.5154444591054994  0.8990812448472543  1.0000
  H   H26       1.0  0.5976905431373823  0.5545002368778553  0.7344646590776374  1.0000
  H   H27       1.0  0.5173448975929478  0.15869101709168043  0.809625806778413  1.0000
  H   H28       1.0  0.6134776202076103  0.11864347099146721  0.9720986619738685  1.0000
  H   H29       1.0  0.40655502247478403  0.34483327908129735  0.5513405094928521  1.0000
  H   H30       1.0  0.405143950050972  0.26389289514694547  0.7130133491972184  1.0000
  H   H31       1.0  0.46982439501069906  0.21235798460376665  0.5877904896444375  1.0000
  Zn  Zn1       1.0  0.8197906682640564  0.4407078656497636  0.5299427268090791  1.0000
  Zn  Zn2       1.0  0.9844210839448746  0.44470219071853956  0.5223012319690328  1.0000
  C   C42       1.0  0.9021433773643708  0.4376076489198213  0.7633127860716782  1.0000
  C   C43       1.0  0.9020701729071913  0.4478040896984212  0.2889312172335361  1.0000
  C   C44       1.0  0.9021459204322079  0.679891705634893  0.5210205882974395  1.0000
  C   C45       1.0  0.9020675734027147  0.20551847136688517  0.5312234863701797  1.0000
  O   O4        1.0  0.9645530510804126  0.45106633639741056  0.33441718553301736  1.0000
  O   O5        1.0  0.9646111751770727  0.43737602270051745  0.7120267258561457  1.0000
  O   O6        1.0  0.964612386732638  0.6330234425958134  0.5163741014065597  1.0000
  O   O7        1.0  0.9645517833342733  0.2554189243980447  0.5300697152195397  1.0000
  O   O8        1.0  0.8396599126943757  0.6299911306086032  0.5221742461594088  1.0000
  O   O9        1.0  0.839658701395168  0.4343452709681157  0.7178268018474272  1.0000
  O   O10       1.0  0.8396005771005012  0.4480355389117274  0.34021570012660396  1.0000
  O   O11       1.0  0.8395993093646541  0.2523881176547762  0.5358683271770266  1.0000
