data_image0
_chemical_formula_structural       NC10NC3NH7C6SCOC6H10C6SCOC6H10Zn2C4O8
_chemical_formula_sum              "N3 C43 H27 S2 O10 Zn2"
_cell_length_a       19.210446455230148
_cell_length_b       10.302038109246572
_cell_length_c       10.302041481415108
_cell_angle_alpha    85.54819663174399
_cell_angle_beta     89.98692140310256
_cell_angle_gamma    89.9653702289085

_space_group_name_H-M_alt    "P 1"
_space_group_IT_number       1

loop_
  _space_group_symop_operation_xyz
  'x, y, z'

loop_
  _atom_site_type_symbol
  _atom_site_label
  _atom_site_symmetry_multiplicity
  _atom_site_fract_x
  _atom_site_fract_y
  _atom_site_fract_z
  _atom_site_occupancy
  N   N1        1.0  0.6557595186916326  0.4203459366052533  0.5678705028325954  1.0000
  C   C1        1.0  0.5955311638439738  0.42255280780774074  0.5681019699397711  1.0000
  C   C2        1.0  0.5207269654181809  0.42528892405692886  0.5683887291515859  1.0000
  C   C3        1.0  0.4851262143773185  0.5414844372177205  0.5835166581542524  1.0000
  C   C4        1.0  0.4124607488549539  0.5416359550824181  0.5834640976975825  1.0000
  C   C5        1.0  0.3755602725163346  0.4259976795185889  0.5684753120312729  1.0000
  C   C6        1.0  0.2982380266945666  0.42464160273448726  0.5683245259706016  1.0000
  C   C7        1.0  0.2604937540343731  0.5282089547425299  0.5049940019595585  1.0000
  C   C8        1.0  0.1877152775278586  0.5268071193100463  0.5048847168699782  1.0000
  C   C9        1.0  0.151679685863865  0.4220953948691206  0.5680550132909887  1.0000
  C   C10       1.0  0.0767500538666207  0.42079369330715877  0.567917996603472  1.0000
  N   N2        1.0  0.0165121115425326  0.4197470810410906  0.5678078700475382  1.0000
  C   C11       1.0  0.1887003123584185  0.3186537125896942  0.6313605553757489  1.0000
  C   C12       1.0  0.2614806131457889  0.3197813312945754  0.631520029363074  1.0000
  C   C13       1.0  0.4137710407483504  0.3116218553650312  0.5536357890450638  1.0000
  N   N3        1.0  0.4845411990162297  0.31406614926916765  0.5538017247455294  1.0000
  H   H1        1.0  0.5132348110497086  0.6308909484108483  0.5955774083840992  1.0000
  H   H2        1.0  0.385199561717313  0.6316236738530687  0.5969193621138709  1.0000
  H   H3        1.0  0.2872285491601195  0.6094603263454039  0.4540281835018096  1.0000
  H   H4        1.0  0.1595762946358341  0.6072305095655166  0.45524886083891447  1.0000
  H   H5        1.0  0.1613258812113294  0.23726720638206178  0.6808967873649721  1.0000
  H   H6        1.0  0.2889747187654013  0.23947657087401764  0.682593315541363  1.0000
  H   H7        1.0  0.3874979598357925  0.22077145172581503  0.5401341433299018  1.0000
  C   C14       1.0  0.8360732129010685  0.03876820563763661  0.5677990484507225  1.0000
  C   C15       1.0  0.7765683425904534  0.04366384397889944  0.4883072529230641  1.0000
  C   C16       1.0  0.747288635972178  0.9291408224829423  0.44827156616391073  1.0000
  C   C17       1.0  0.7767922375443177  0.8085308925296122  0.48825321974729485  1.0000
  C   C18       1.0  0.836205088242199  0.8013148528285888  0.5678905798507354  1.0000
  C   C19       1.0  0.8655750063511302  0.9170873078600835  0.607165527456285  1.0000
  S   S1        1.0  0.6717576558357214  0.9368363664582712  0.3456981043852807  1.0000
  C   C20       1.0  0.7229394115986512  0.945296147668814  0.19929936611181764  1.0000
  O   O1        1.0  0.7397251734156783  0.8400164580753838  0.15295657295262122  1.0000
  C   C21       1.0  0.7458988141691621  0.07144669615140264  0.13381219443182335  1.0000
  C   C22       1.0  0.7951172560631898  0.0737391001767509  0.03231938394693712  1.0000
  C   C23       1.0  0.8174911367613922  0.19205932183334196  0.9706059446918149  1.0000
  C   C24       1.0  0.791023173410194  0.30932695334407656  0.009103362258420011  1.0000
  C   C25       1.0  0.74201412054835  0.30850724935511353  0.10924338914480791  1.0000
  C   C26       1.0  0.7194082096252169  0.19049094062528282  0.17127697103123607  1.0000
  H   H8        1.0  0.9481523014736319  0.23684460407137387  0.7178005041886988  1.0000
  H   H9        1.0  0.752886939504696  0.13623596373939728  0.4570424268257125  1.0000
  H   H10       1.0  0.7533351061012181  0.7208292742546492  0.4564999308257942  1.0000
  H   H11       1.0  0.9114493689856225  0.912392801805002  0.6684450757788649  1.0000
  H   H12       1.0  0.8589152481384912  0.4712567003179645  0.5978466413069157  1.0000
  H   H13       1.0  0.8166512525926165  0.984149619839681  0.0010249358466609682  1.0000
  H   H14       1.0  0.8554651031042485  0.19277650065774465  0.8929187927845299  1.0000
  H   H15       1.0  0.8084240618379674  0.40081897594736393  0.961236556510332  1.0000
  H   H16       1.0  0.7213924748372464  0.3994787090842973  0.13877741107836128  1.0000
  H   H17       1.0  0.6810265183928629  0.1931625368547525  0.24783210415078027  1.0000
  C   C27       1.0  0.8361522121025511  0.420170740546411  0.18655778364862585  1.0000
  C   C28       1.0  0.8680856368997398  0.5431867490612077  0.1756540383254812  1.0000
  C   C29       1.0  0.8842842600940563  0.6038714633588351  0.05327320198494645  1.0000
  C   C30       1.0  0.8681516319047792  0.5427828734264533  0.9405485664734399  1.0000
  C   C31       1.0  0.8361260862167655  0.4199122868262335  0.9491318480660422  1.0000
  C   C32       1.0  0.8203435081786032  0.3591883356853136  0.07270603408337917  1.0000
  S   S2        1.0  0.9256997592868527  0.7602982327676242  0.04076226250490733  1.0000
  C   C33       1.0  0.01143643379942838  0.690371881936767  0.04330741373564306  1.0000
  O   O2        1.0  0.038674364700504116  0.6671594472852891  0.9362396387131318  1.0000
  C   C34       1.0  0.0497990857573376  0.6589730034872179  0.16682150112760596  1.0000
  C   C35       1.0  0.11153757080857707  0.5851647587704567  0.1669942085284184  1.0000
  C   C36       1.0  0.14781301076693687  0.5542151745846311  0.2829362773617379  1.0000
  C   C37       1.0  0.12308878237523024  0.596593625805139  0.39988322318779335  1.0000
  C   C38       1.0  0.06209842119651743  0.6702418558006602  0.4010906336432529  1.0000
  C   C39       1.0  0.025615273982051878  0.7015658300878809  0.2854480517507203  1.0000
  H   H18       1.0  0.7758589934387039  0.1884203358297516  0.41441783150435896  1.0000
  H   H19       1.0  0.8805988599150996  0.5920820709308963  0.26197207129281264  1.0000
  H   H20       1.0  0.8809598429241053  0.5913462545257149  0.8465808082976727  1.0000
  H   H21       1.0  0.7957267297044349  0.26435153922950816  0.08019148950463029  1.0000
  H   H22       1.0  0.824140018784528  0.3730267506427696  0.6250690338997575  1.0000
  H   H23       1.0  0.1316389412063772  0.5506817193568916  0.0776679315567721  1.0000
  H   H24       1.0  0.19512068816955153  0.4971657771304736  0.2820742095617639  1.0000
  H   H25       1.0  0.15123299465125517  0.5725014759218914  0.4895375198863223  1.0000
  H   H26       1.0  0.04307770381496501  0.7033363947628211  0.49177059461441686  1.0000
  H   H27       1.0  0.9788360129618341  0.7595561823514594  0.28953739937343137  1.0000
  Zn  Zn1       1.0  0.7598649226080114  0.4201696540540856  0.567859925405001  1.0000
  Zn  Zn2       1.0  0.9124066894921762  0.4199127799553046  0.5678290796987713  1.0000
  C   C40       1.0  0.8361285591254836  0.41478870929333644  0.8049883755896454  1.0000
  C   C41       1.0  0.8361447190049509  0.42529536009808355  0.3307007568129543  1.0000
  C   C42       1.0  0.8361767359971839  0.6571790548748442  0.5626991965780697  1.0000
  C   C43       1.0  0.8360964898093072  0.18290345464889057  0.5729900048716281  1.0000
  O   O3        1.0  0.8940310088279604  0.4269120824564909  0.37906474890474784  1.0000
  O   O4        1.0  0.894017940634784  0.41297604607454774  0.7566005984372557  1.0000
  O   O5        1.0  0.8940560636528817  0.6087093164324895  0.5609503724690723  1.0000
  O   O6        1.0  0.8939928337626345  0.2311788215072108  0.5747148775308142  1.0000
  O   O7        1.0  0.7782787262825349  0.6089036125912541  0.5609741275766544  1.0000
  O   O8        1.0  0.7782406035333624  0.41317190219007194  0.7566242845014368  1.0000
  O   O9        1.0  0.7782536718185378  0.42710789385576353  0.37908687389811013  1.0000
  O   O10       1.0  0.7782154967454219  0.2313746235868963  0.5747370998699903  1.0000
