data_image0
_chemical_formula_structural       NC8NC6H8C7OC3NC3H11C7OC6OCH12Zn2C4O8
_chemical_formula_sum              "N3 C45 H31 O11 Zn2"
_cell_length_a       17.457602349358154
_cell_length_b       10.298746005989749
_cell_length_c       10.299362532796529
_cell_angle_alpha    85.58216748152913
_cell_angle_beta     92.89066602148195
_cell_angle_gamma    91.69721484149154

_space_group_name_H-M_alt    "P 1"
_space_group_IT_number       1

loop_
  _space_group_symop_operation_xyz
  'x, y, z'

loop_
  _atom_site_type_symbol
  _atom_site_label
  _atom_site_symmetry_multiplicity
  _atom_site_fract_x
  _atom_site_fract_y
  _atom_site_fract_z
  _atom_site_occupancy
  N   N1        1.0  0.7223489277002385  0.4525155571618673  0.6265923280001569  1.0000
  C   C1        1.0  0.6612649127285497  0.40658302340103925  0.6159734091543652  1.0000
  C   C2        1.0  0.5852738171185862  0.349448669330519  0.6027730165378136  1.0000
  C   C3        1.0  0.5267608122048243  0.3896379719855081  0.6776740490422029  1.0000
  C   C4        1.0  0.4522080994710323  0.3346222581739884  0.6650882428964784  1.0000
  C   C5        1.0  0.3901051083283721  0.3770563192180003  0.7444112684098592  1.0000
  C   C6        1.0  0.3155514619801613  0.39550840571857626  0.6886485308406847  1.0000
  C   C7        1.0  0.2570384534977798  0.4355138018660094  0.7636575055175789  1.0000
  C   C8        1.0  0.18104636211793393  0.4545710823290081  0.7056793290172714  1.0000
  N   N2        1.0  0.11996163656628989  0.46988675562923143  0.6590650257289177  1.0000
  C   C9        1.0  0.2725870318988391  0.4573104368284522  0.8949377561374448  1.0000
  C   C10       1.0  0.3463560725038694  0.43924749448157097  0.951088121422289  1.0000
  C   C11       1.0  0.4048575652628023  0.39942231481950885  0.8765368841332646  1.0000
  C   C12       1.0  0.437456747317948  0.23873930490993356  0.5761684265348395  1.0000
  C   C13       1.0  0.4959581236970426  0.19882883430040366  0.5016674195982691  1.0000
  C   C14       1.0  0.5697261679473519  0.2539571097029403  0.514803187832725  1.0000
  H   H1        1.0  0.5391225453600207  0.4648600862024397  0.7443104114720842  1.0000
  H   H2        1.0  0.3031889983280185  0.3805041279109955  0.5866221679809394  1.0000
  H   H3        1.0  0.22773826924971563  0.488214710857956  0.9537761817678878  1.0000
  H   H4        1.0  0.3582049162447996  0.45580944571033766  0.05274132584740232  1.0000
  H   H5        1.0  0.4613489797169951  0.38444401662175776  0.9226427169350016  1.0000
  H   H6        1.0  0.3809660613827904  0.1933964779522599  0.5655134303464402  1.0000
  H   H7        1.0  0.4841101194586309  0.12472289240047574  0.4338328011736885  1.0000
  H   H8        1.0  0.6145749711775096  0.22218322756778308  0.4564758327393428  1.0000
  C   C15       1.0  0.9211222833037385  0.07979761203660307  0.6428088128559122  1.0000
  C   C16       1.0  0.95699322467349  0.08983410182849116  0.5232357423872092  1.0000
  C   C17       1.0  0.9743244278041435  0.9777502067573576  0.46201892593525784  1.0000
  C   C18       1.0  0.9569937921929564  0.8545975113831648  0.5231866522968593  1.0000
  C   C19       1.0  0.9211956026440149  0.8425950212607239  0.6428603547824763  1.0000
  C   C20       1.0  0.903302298416667  0.9557623743299936  0.7017425136812774  1.0000
  C   C21       1.0  0.012856007215585441  0.9881858033371749  0.3363519695991213  1.0000
  O   O1        1.0  0.05969627443530423  0.9022466337503579  0.3149654586161652  1.0000
  C   C22       1.0  0.9982518864562175  0.09605526887165228  0.2349549120861929  1.0000
  C   C23       1.0  0.9256022564663733  0.1522697499838368  0.21691439212872532  1.0000
  C   C24       1.0  0.9121431017507794  0.25332390257597504  0.11990968371091437  1.0000
  N   N3        1.0  0.8382654616901628  0.3103272001497679  0.10267223723257768  1.0000
  C   C25       1.0  0.9713808227344045  0.2977728046053081  0.039614563911897216  1.0000
  C   C26       1.0  0.043329844850873656  0.24136239186029051  0.055741819541774706  1.0000
  C   C27       1.0  0.056729274845996436  0.14073001247733852  0.15243744650849367  1.0000
  H   H9        1.0  0.8544079499628493  0.2681755117090563  0.8696927389351323  1.0000
  H   H10       1.0  0.9722431169872643  0.18500322945309033  0.4782600222995581  1.0000
  H   H11       1.0  0.9708232268419302  0.7679957596487188  0.4766188626398953  1.0000
  H   H12       1.0  0.8756560612664526  0.9472741418911238  0.793913899634082  1.0000
  H   H13       1.0  0.8538436138016198  0.6126109388611051  0.8692036850307521  1.0000
  H   H14       1.0  0.8791506100972959  0.11685550419518731  0.27708246499913214  1.0000
  H   H15       1.0  0.7936981742035212  0.2779450204869933  0.16198275639534954  1.0000
  H   H16       1.0  0.8276108248546978  0.3854556210837956  0.030564671599575544  1.0000
  H   H17       1.0  0.9617003559085328  0.3756789999218184  0.9643378595980501  1.0000
  H   H18       1.0  0.0888410933284296  0.27569924370605015  0.9931646674862256  1.0000
  H   H19       1.0  0.1129991896287732  0.09854840364710515  0.163560426957452  1.0000
  C   C28       1.0  0.92109906125457  0.4610731461303854  0.2614628137614907  1.0000
  C   C29       1.0  0.8482652697880151  0.3992055760178588  0.2587986894563006  1.0000
  C   C30       1.0  0.8111993408877928  0.3693103100587787  0.14025654530082865  1.0000
  C   C31       1.0  0.8484813424579546  0.3993785875416176  0.023562045843217527  1.0000
  C   C32       1.0  0.9212188470498696  0.46131945404647223  0.02420638605178782  1.0000
  C   C33       1.0  0.957045022860816  0.4920622312809053  0.14365618067921826  1.0000
  C   C34       1.0  0.7346787116352105  0.30266422416732297  0.13980619940969685  1.0000
  O   O2        1.0  0.718996184225641  0.22276581107921856  0.23441725105141487  1.0000
  C   C35       1.0  0.6759521564484133  0.3266519963149823  0.03209682714535966  1.0000
  C   C36       1.0  0.6700640953830289  0.44977769567253034  0.9637699268273936  1.0000
  C   C37       1.0  0.6139096543399988  0.4715060248598888  0.8634896980019766  1.0000
  C   C38       1.0  0.5622913673447247  0.37157837048547093  0.8302194310255913  1.0000
  C   C39       1.0  0.5673725984454508  0.24861099260523134  0.8993986658042532  1.0000
  C   C40       1.0  0.6235201518851691  0.22675515268301494  0.999750729534651  1.0000
  O   O3        1.0  0.5070642143760861  0.39832761175297615  0.7287262688971627  1.0000
  C   C41       1.0  0.4511164649257931  0.3061145230940301  0.6847790816198365  1.0000
  H   H20       1.0  0.05866729945838278  0.5773314795023614  0.4738087927070964  1.0000
  H   H21       1.0  0.8198564763664219  0.37522158199920175  0.3490112890340016  1.0000
  H   H22       1.0  0.8210526313006149  0.37309808097595054  0.9322663945896155  1.0000
  H   H23       1.0  0.013156902904518653  0.5398409261065265  0.14488604117562298  1.0000
  H   H24       1.0  0.9492511562827465  0.4846040274879202  0.6970278821652371  1.0000
  H   H25       1.0  0.7083128043860321  0.5297060378294454  0.9887225483460607  1.0000
  H   H26       1.0  0.6102633213373472  0.5668141417601209  0.8116339727774986  1.0000
  H   H27       1.0  0.5282426657300475  0.16932999711218555  0.8764708921908411  1.0000
  H   H28       1.0  0.6264210539341132  0.13123258525698178  0.05143237301266623  1.0000
  H   H29       1.0  0.4150839068101193  0.3532394812284547  0.603755844374902  1.0000
  H   H30       1.0  0.413649399952702  0.27226191762166296  0.7652669259727758  1.0000
  H   H31       1.0  0.4797082071280197  0.22203652479804092  0.6484532200827218  1.0000
  Zn  Zn1       1.0  0.8370913674466847  0.45752502920256344  0.6359707454051959  1.0000
  Zn  Zn2       1.0  0.005219183215865009  0.464866638231513  0.6496972402114076  1.0000
  C   C42       1.0  0.9211939855291355  0.4560986819621853  0.880031014817942  1.0000
  C   C43       1.0  0.9211184012614912  0.46629470445218346  0.40563724826972947  1.0000
  C   C44       1.0  0.9211769908033266  0.6984082135678453  0.6376750913948461  1.0000
  C   C45       1.0  0.9211353384778896  0.2239836099188648  0.6479932361426122  1.0000
  O   O4        1.0  0.9849285212786988  0.4708275432318769  0.4592326384001679  1.0000
  O   O5        1.0  0.9849889873149908  0.4571369746296352  0.8368533427208824  1.0000
  O   O6        1.0  0.9849744039675763  0.6528049487015826  0.6411491497170179  1.0000
  O   O7        1.0  0.9849430472410808  0.27515957591435813  0.6549367293453383  1.0000
  O   O8        1.0  0.8573674460476958  0.6472320890157994  0.6307312515802552  1.0000
  O   O9        1.0  0.8573820295307474  0.4515656753675914  0.8264353754433222  1.0000
  O   O10       1.0  0.8573215632959414  0.46525619820772635  0.44881310971130817  1.0000
  O   O11       1.0  0.8573360892695829  0.2695882216318597  0.6445172980241625  1.0000
