data_image0
_chemical_formula_structural       NC12NC2H8C7OC6H10C7OC4NC3H9Zn2C4O8
_chemical_formula_sum              "N3 C45 H27 O10 Zn2"
_cell_length_a       17.80743265337812
_cell_length_b       10.299379429549807
_cell_length_c       10.299375074045738
_cell_angle_alpha    85.51714373298503
_cell_angle_beta     91.52722468557046
_cell_angle_gamma    89.43379168207073

_space_group_name_H-M_alt    "P 1"
_space_group_IT_number       1

loop_
  _space_group_symop_operation_xyz
  'x, y, z'

loop_
  _atom_site_type_symbol
  _atom_site_label
  _atom_site_symmetry_multiplicity
  _atom_site_fract_x
  _atom_site_fract_y
  _atom_site_fract_z
  _atom_site_occupancy
  N   N1        1.0  0.7074750789898021  0.40725156135107676  0.6007763174921723  1.0000
  C   C1        1.0  0.6566587264126489  0.4368358217948738  0.5320648072031702  1.0000
  C   C2        1.0  0.593438168552921  0.47363649307444367  0.44659633743477745  1.0000
  C   C3        1.0  0.6051712365903782  0.5277040755662443  0.31995321275064903  1.0000
  C   C4        1.0  0.5438579222297294  0.5630002397716707  0.23688134402241667  1.0000
  C   C5        1.0  0.47065727043510036  0.5444925292784073  0.2797925826526808  1.0000
  C   C6        1.0  0.4579474037578748  0.4903059754488299  0.40690390664338194  1.0000
  C   C7        1.0  0.5201180351270902  0.45501307102494093  0.4899592620234239  1.0000
  C   C8        1.0  0.3801783990591888  0.47068308533666725  0.45267592774229404  1.0000
  C   C9        1.0  0.3613845569196548  0.49782751939501724  0.5797139795972326  1.0000
  C   C10       1.0  0.28815395583010806  0.4793613708540563  0.6226657671134457  1.0000
  C   C11       1.0  0.23277418578296463  0.4334962134959712  0.5394175880191294  1.0000
  C   C12       1.0  0.1574069131030048  0.4144767250122552  0.5837705448206947  1.0000
  N   N2        1.0  0.09681696306698762  0.3991863354457159  0.6194272709126856  1.0000
  C   C13       1.0  0.25087650806419204  0.4061826704407836  0.4129225828867993  1.0000
  C   C14       1.0  0.32405426816330674  0.42466369304016593  0.36971489564419624  1.0000
  H   H1        1.0  0.6616384918701241  0.5425405506388421  0.2855098193675465  1.0000
  H   H2        1.0  0.553060481494599  0.6051333860108437  0.13908410476546007  1.0000
  H   H3        1.0  0.42402089237325036  0.5741523385509095  0.2141890790515908  1.0000
  H   H4        1.0  0.5116139035473899  0.4114945735512494  0.5876325589215607  1.0000
  H   H5        1.0  0.4030562693414786  0.5349866232668632  0.6452753622207938  1.0000
  H   H6        1.0  0.27470448525515406  0.5011747073760306  0.7206694629752981  1.0000
  H   H7        1.0  0.2084878589922362  0.3702907852147652  0.34777370295433707  1.0000
  H   H8        1.0  0.3369753690371448  0.4013146108586225  0.27201510570143506  1.0000
  C   C15       1.0  0.9021578043031072  0.021826753241732666  0.6102564114879758  1.0000
  C   C16       1.0  0.9476906028784066  0.01095351112017684  0.7241878126145285  1.0000
  C   C17       1.0  0.9699517771244286  0.8882443760550275  0.7824689869047252  1.0000
  C   C18       1.0  0.947599178400144  0.7757334349084819  0.7239071393002459  1.0000
  C   C19       1.0  0.902141432947458  0.7846010299962197  0.6099587074977368  1.0000
  C   C20       1.0  0.879521241302686  0.9081193161181652  0.5539836242159322  1.0000
  C   C21       1.0  0.018683522590287938  0.8766666504785452  0.9020057163264221  1.0000
  O   O1        1.0  0.06634336737333202  0.7848883649699914  0.9166455034599765  1.0000
  C   C22       1.0  0.013344039826711285  0.969104707430162  0.004938930389785101  1.0000
  C   C23       1.0  0.07759950133835858  0.9972118904697908  0.07958259022844649  1.0000
  C   C24       1.0  0.07293975620635229  0.08303150164070017  0.17785568193062895  1.0000
  C   C25       1.0  0.00411998775829292  0.1407400571708528  0.20331836888567745  1.0000
  C   C26       1.0  0.9397491986792502  0.11232556327733878  0.13091337536761738  1.0000
  C   C27       1.0  0.9441072621011694  0.026591886777020957  0.03253816147228972  1.0000
  H   H9        1.0  0.817182750315183  0.24973635211753709  0.39414569243970754  1.0000
  H   H10       1.0  0.96658535280005  0.09813457307848772  0.7669316531470105  1.0000
  H   H11       1.0  0.9651829890822682  0.6810516777820944  0.7681884464188553  1.0000
  H   H12       1.0  0.8444192387010184  0.915697666430306  0.4661505120379936  1.0000
  H   H13       1.0  0.8852015293468619  0.4605894471841069  0.565577853845632  1.0000
  H   H14       1.0  0.13149520321074903  0.9536580962869029  0.06111620088698888  1.0000
  H   H15       1.0  0.12273567738584457  0.10475009938703184  0.23433936196838967  1.0000
  H   H16       1.0  0.0006155175019084691  0.20705477380824622  0.2794946112648543  1.0000
  H   H17       1.0  0.8863367760280877  0.1563073499614409  0.15140282280347817  1.0000
  H   H18       1.0  0.8932736198016973  0.004208722554413402  0.9791646454859708  1.0000
  C   C28       1.0  0.9021751504508834  0.40335572175276635  0.2287219706084218  1.0000
  C   C29       1.0  0.9600005695205146  0.49527421966501173  0.223012271929369  1.0000
  C   C30       1.0  0.9885824458664928  0.542727745886936  0.102846646522049  1.0000
  C   C31       1.0  0.9598789396285289  0.4950389897335372  0.9877812217444726  1.0000
  C   C32       1.0  0.9021240573319972  0.40307207923488564  0.9914931899477213  1.0000
  C   C33       1.0  0.8734716482038333  0.3580167115988655  0.11245077770644007  1.0000
  C   C34       1.0  0.05018155734688312  0.6387762447516638  0.09678203882797565  1.0000
  O   O2        1.0  0.09819050453306222  0.6330964498140084  0.009448732273830363  1.0000
  C   C35       1.0  0.05730635732587763  0.7412801247539444  0.18970988504292174  1.0000
  C   C36       1.0  0.12874607089587897  0.7863639819994828  0.2248705432510978  1.0000
  C   C37       1.0  0.1360238694341449  0.8842307388927588  0.31139775645726764  1.0000
  C   C38       1.0  0.20938721320321974  0.9290654077787115  0.34768175411426294  1.0000
  N   N3        1.0  0.2683630766780176  0.9651018131032338  0.3768462413310747  1.0000
  C   C39       1.0  0.07186885582934188  0.9384138570186771  0.36249735149968654  1.0000
  C   C40       1.0  0.0006793685156947227  0.8953365836435481  0.3268469437076318  1.0000
  C   C41       1.0  0.99325215246614  0.7977429221782399  0.24058802653368327  1.0000
  H   H19       1.0  0.7938418922141678  0.22841465960703622  0.44697014603514007  1.0000
  H   H20       1.0  0.983454091368548  0.5289916820002487  0.31230571849114375  1.0000
  H   H21       1.0  0.9822398783980074  0.530813750762096  0.8950931268747189  1.0000
  H   H22       1.0  0.82889272496273  0.2871535915108854  0.11604873160379525  1.0000
  H   H23       1.0  0.8803704752029939  0.36693382698014765  0.6655452418321173  1.0000
  H   H24       1.0  0.17869083385423723  0.7446068879787693  0.18589826995961922  1.0000
  H   H25       1.0  0.07687878141129767  0.014192486642973456  0.42938700092974424  1.0000
  H   H26       1.0  0.9511088690825495  0.9380646796872121  0.365687945945121  1.0000
  H   H27       1.0  0.9374517998238671  0.7675034561281437  0.21262388929394427  1.0000
  Zn  Zn1       1.0  0.8198307393987249  0.40492064109768156  0.6061660683796637  1.0000
  Zn  Zn2       1.0  0.9844612996823433  0.4015066576555444  0.6140481176741657  1.0000
  C   C42       1.0  0.90213216883901  0.3979517132003296  0.8473150084702958  1.0000
  C   C43       1.0  0.9021616679589406  0.40847718694420965  0.3728993904877336  1.0000
  C   C44       1.0  0.9021410029793997  0.6404224523680584  0.6048394035227069  1.0000
  C   C45       1.0  0.9021527776705126  0.1660048885181422  0.6153750625963799  1.0000
  O   O3        1.0  0.9646335828813858  0.40889474243721  0.4242778485172036  1.0000
  O   O4        1.0  0.9646110399260346  0.3949420436258537  0.8019184699971513  1.0000
  O   O5        1.0  0.9646173313034182  0.5907402489277553  0.6061176625964453  1.0000
  O   O6        1.0  0.9646272353330642  0.21309654762727193  0.6200785558457478  1.0000
  O   O7        1.0  0.8396647475676742  0.5933307522923956  0.6001356275114933  1.0000
  O   O8        1.0  0.8396584561579988  0.39753410741527384  0.7959363650545532  1.0000
  O   O9        1.0  0.8396809992688301  0.4114867615475739  0.41829418212569136  1.0000
  O   O10       1.0  0.8396746517111167  0.21568855741211412  0.6140949868298089  1.0000
