data_image0
_chemical_formula_structural       NC10NC5H10C7OC3NC3H11C7OC4NC3H9Zn2C4O8
_chemical_formula_sum              "N4 C46 H30 O10 Zn2"
_cell_length_a       19.4436361288709
_cell_length_b       10.298746005989749
_cell_length_c       10.299375074045738
_cell_angle_alpha    85.54279281073397
_cell_angle_beta     89.69773134605877
_cell_angle_gamma    89.42734808848358

_space_group_name_H-M_alt    "P 1"
_space_group_IT_number       1

loop_
  _space_group_symop_operation_xyz
  'x, y, z'

loop_
  _atom_site_type_symbol
  _atom_site_label
  _atom_site_symmetry_multiplicity
  _atom_site_fract_x
  _atom_site_fract_y
  _atom_site_fract_z
  _atom_site_occupancy
  N   N1        1.0  0.6478528341959084  0.40997510935157777  0.5621462338635734  1.0000
  C   C1        1.0  0.5890176954138124  0.4198697624762078  0.5765317843279341  1.0000
  C   C2        1.0  0.5156894048462578  0.43220969135613285  0.5945260691806538  1.0000
  C   C3        1.0  0.4735031691474016  0.4002631568495967  0.49984486283443363  1.0000
  C   C4        1.0  0.3975993401939916  0.4106993064350406  0.5051741180111582  1.0000
  C   C5        1.0  0.3578576257004042  0.3858895166851648  0.6122496622845122  1.0000
  C   C6        1.0  0.2817374500397486  0.389813700876827  0.5992899872527917  1.0000
  C   C7        1.0  0.241178873084276  0.44742720873667907  0.6930703467438897  1.0000
  C   C8        1.0  0.1695158151437088  0.45107115368652884  0.6825262447738354  1.0000
  C   C9        1.0  0.1374165449045544  0.39670538716392567  0.578488289351416  1.0000
  C   C10       1.0  0.0636242479358328  0.40041066718019436  0.567788903091454  1.0000
  N   N2        1.0  0.0043002462226328  0.40338951780103494  0.5591873058996615  1.0000
  C   C11       1.0  0.1772501714362399  0.33838451744571096  0.48509112166404367  1.0000
  C   C12       1.0  0.2489296550782997  0.33468648502817033  0.4953834290242991  1.0000
  C   C13       1.0  0.38598653680731293  0.3453521360600631  0.7433472101131586  1.0000
  C   C14       1.0  0.4446534318413661  0.38845103644349765  0.7905958246493083  1.0000
  C   C15       1.0  0.4888691812498964  0.4863587059414909  0.7162333188360919  1.0000
  H   H1        1.0  0.49560023172865575  0.3711942655103575  0.4095310322806276  1.0000
  H   H2        1.0  0.37290318867411  0.4332479132971605  0.4120131465044088  1.0000
  H   H3        1.0  0.2650524772154897  0.49067631908052833  0.7739264641340919  1.0000
  H   H4        1.0  0.1391743555658605  0.49634858980388685  0.7554546833202123  1.0000
  H   H5        1.0  0.152904699169067  0.2953308930703431  0.4045695209290878  1.0000
  H   H6        1.0  0.2786053117916356  0.2871650900102487  0.4231511607563776  1.0000
  H   H7        1.0  0.3550155168238393  0.2810939592327988  0.807591647427327  1.0000
  H   H8        1.0  0.45980011644848867  0.35432626154386915  0.8885321009517531  1.0000
  H   H9        1.0  0.4587677112917725  0.5770943725041839  0.6909881337336923  1.0000
  H   H10       1.0  0.5321560644300081  0.5119114374763569  0.7793236590327699  1.0000
  C   C16       1.0  0.8260469634011302  0.02528078884965468  0.5606498691948254  1.0000
  C   C17       1.0  0.858228905042554  0.033239996590569865  0.4378737243851063  1.0000
  C   C18       1.0  0.8737784479145554  0.9201548153502342  0.37510914326439027  1.0000
  C   C19       1.0  0.8582294237371818  0.798003405642171  0.43782458108065336  1.0000
  C   C20       1.0  0.8261126827003139  0.7880737492411629  0.5606948800272258  1.0000
  C   C21       1.0  0.8100596962780355  0.9022778251992135  0.621174769798357  1.0000
  C   C22       1.0  0.9083468443065069  0.928357149834204  0.24600168171443149  1.0000
  O   O1        1.0  0.9503427814361133  0.8396130719885007  0.22043984241010528  1.0000
  C   C23       1.0  0.8952749572134027  0.03717524108479431  0.1459006209254612  1.0000
  C   C24       1.0  0.8301492724533611  0.09777527076153025  0.1343333151118944  1.0000
  C   C25       1.0  0.8181029429273782  0.19970611564486518  0.038522805744745536  1.0000
  N   N3        1.0  0.7518762027840561  0.2611683317977471  0.02786805091727551  1.0000
  C   C26       1.0  0.8712249222470123  0.24064422998717205  0.9529443889806153  1.0000
  C   C27       1.0  0.9357229089879089  0.1798917539464997  0.9626607623829284  1.0000
  C   C28       1.0  0.9477157586445556  0.0783864893545072  0.058167496058725954  1.0000
  H   H11       1.0  0.7661926829873174  0.21751902459394423  0.7934912537113299  1.0000
  H   H12       1.0  0.8719093006710499  0.12752198769400347  0.39153658925930257  1.0000
  H   H13       1.0  0.8706367216169296  0.710601114125163  0.39002187510894726  1.0000
  H   H14       1.0  0.7852566199298776  0.895390573034592  0.7158148108212354  1.0000
  H   H15       1.0  0.7656868627146535  0.561988757552755  0.7930524644243568  1.0000
  H   H16       1.0  0.7884938899923055  0.0651159491128992  0.1986441695239909  1.0000
  H   H17       1.0  0.7119102938297013  0.2314282343872882  0.09115338054922151  1.0000
  H   H18       1.0  0.74233905050317  0.33698755480483555  0.956706097932722  1.0000
  H   H19       1.0  0.8625617396578431  0.3191847596974777  0.8785263135883472  1.0000
  H   H20       1.0  0.9765357253952692  0.21153194115460572  0.8960245029710485  1.0000
  H   H21       1.0  0.9981586663534832  0.03281005975348883  0.06427657152920796  1.0000
  C   C29       1.0  0.8261032199969833  0.40681919388137033  0.17928543506362304  1.0000
  C   C30       1.0  0.8790529747271321  0.4989597333453357  0.17040795671049747  1.0000
  C   C31       1.0  0.9052251275440126  0.5465230596062991  0.0486774703677495  1.0000
  C   C32       1.0  0.8789415958666082  0.4987240353432105  0.9351835508571757  1.0000
  C   C33       1.0  0.8260564134732327  0.40653535020133313  0.9420593626649638  1.0000
  C   C34       1.0  0.7998199406391173  0.3613699733441862  0.0645868001667016  1.0000
  C   C35       1.0  0.9616301906124546  0.6428080445815585  0.03923751603914516  1.0000
  O   O2        1.0  0.005582491491544328  0.6373105834832933  0.9492374507403922  1.0000
  C   C36       1.0  0.9681638981249744  0.7453415222216273  0.13181591152044247  1.0000
  C   C37       1.0  0.03357278468464342  0.7906980162055981  0.16303228960497607  1.0000
  C   C38       1.0  0.0402460739121171  0.8885948383659013  0.24919948358890576  1.0000
  C   C39       1.0  0.10741604602886934  0.9337094492410782  0.2814323393214526  1.0000
  N   N4        1.0  0.16141313582918748  0.9699708962494618  0.30734016230438455  1.0000
  C   C40       1.0  0.9815169431189196  0.9425354456417376  0.3038835840049705  1.0000
  C   C41       1.0  0.9163373547517983  0.8991865358759505  0.27216446943749917  1.0000
  C   C42       1.0  0.9095273004812955  0.8015622479420321  0.18627398565530617  1.0000
  H   H22       1.0  0.7269040047060843  0.2314620799217093  0.4034670737071828  1.0000
  H   H23       1.0  0.900528589430576  0.5327671664038951  0.2584149804232647  1.0000
  H   H24       1.0  0.8994171523022991  0.5345846649126593  0.8412705869671546  1.0000
  H   H25       1.0  0.7589997771835885  0.2903356763763616  0.07062686657175998  1.0000
  H   H26       1.0  0.8061368625671432  0.37031352893104597  0.6173024159703533  1.0000
  H   H27       1.0  0.07929353562371322  0.7491297276293267  0.12126966437949016  1.0000
  H   H28       1.0  0.9861116235645613  0.01833497825921171  0.3705291697414892  1.0000
  H   H29       1.0  0.8709593503691898  0.9417272728316661  0.3137754893116411  1.0000
  H   H30       1.0  0.8584380513344604  0.77110995212778  0.16139288822231435  1.0000
  Zn  Zn1       1.0  0.7507158581259518  0.40807117542516513  0.5612998634590589  1.0000
  Zn  Zn2       1.0  0.9014372122384677  0.40528283916383634  0.5600443573628429  1.0000
  C   C43       1.0  0.8260632978067057  0.4014148892377445  0.7978784365271363  1.0000
  C   C44       1.0  0.8260914185636059  0.4119407336146985  0.32346589815388627  1.0000
  C   C45       1.0  0.8260970454642419  0.6438916172160971  0.5555109964321467  1.0000
  C   C46       1.0  0.8260576193366981  0.1694624461263028  0.565833407827089  1.0000
  O   O3        1.0  0.8832854258012656  0.4125957438304655  0.3713777203169284  1.0000
  O   O4        1.0  0.8832633108242075  0.39864261665036027  0.749013340365954  1.0000
  O   O5        1.0  0.8832897913456642  0.5944456547915558  0.5532999242020893  1.0000
  O   O6        1.0  0.8832588938555936  0.21679271596799587  0.5670910395304884  1.0000
  O   O7        1.0  0.7688941250750252  0.5965612995739449  0.5542531817130245  1.0000
  O   O8        1.0  0.7688676446891395  0.4007598218957318  0.749966528720287  1.0000
  O   O9        1.0  0.7688897598038136  0.4147129043962743  0.3723293471936966  1.0000
  O   O10       1.0  0.7688632278485565  0.21890986720801786  0.5680427637791732  1.0000
