data_image0
_chemical_formula_structural       NC10NC3NCH9C7OC6OCH12C6NCOC6H11Zn2C4O8
_chemical_formula_sum              "N4 C45 H32 O11 Zn2"
_cell_length_a       19.437513618241372
_cell_length_b       10.299359160628079
_cell_length_c       10.299662537453274
_cell_angle_alpha    85.5452158657264
_cell_angle_beta     90.33361086240306
_cell_angle_gamma    89.54510135387923

_space_group_name_H-M_alt    "P 1"
_space_group_IT_number       1

loop_
  _space_group_symop_operation_xyz
  'x, y, z'

loop_
  _atom_site_type_symbol
  _atom_site_label
  _atom_site_symmetry_multiplicity
  _atom_site_fract_x
  _atom_site_fract_y
  _atom_site_fract_z
  _atom_site_occupancy
  N   N1        1.0  0.6483211185546618  0.4110396084020451  0.5758709463103233  1.0000
  C   C1        1.0  0.5893916605308496  0.4280511528863318  0.5728981069288654  1.0000
  C   C2        1.0  0.5159560312979644  0.44930550964648996  0.5692080601233291  1.0000
  C   C3        1.0  0.4741730098026587  0.3481193216869569  0.5575293854218024  1.0000
  C   C4        1.0  0.3982857983031264  0.358187353674116  0.5503098195829961  1.0000
  C   C5        1.0  0.3587233228019773  0.4390082757272731  0.6160688070686078  1.0000
  C   C6        1.0  0.2825399560892528  0.4304035895010294  0.607622924970898  1.0000
  C   C7        1.0  0.2493778510684849  0.3090553698576981  0.6122433785643226  1.0000
  C   C8        1.0  0.1776423920181589  0.30268666461642835  0.6050739870548612  1.0000
  C   C9        1.0  0.138098281663605  0.417193329285132  0.593646290391947  1.0000
  C   C10       1.0  0.064248290643961  0.4104865135362612  0.5863087404498535  1.0000
  N   N2        1.0  0.004877995982661701  0.40509482354584225  0.5804098088219036  1.0000
  C   C11       1.0  0.1705436649401119  0.5382306455963028  0.5897710670423053  1.0000
  C   C12       1.0  0.2422635782298404  0.5448533178558166  0.597002529218696  1.0000
  C   C13       1.0  0.3874199318398041  0.531254475347225  0.7060078163252048  1.0000
  N   N3        1.0  0.4444203053315174  0.5944768408306043  0.6856152510617484  1.0000
  C   C14       1.0  0.48826752899472514  0.5852660540399479  0.572503973466225  1.0000
  H   H1        1.0  0.4965372486617905  0.2530673865605093  0.5453899458011684  1.0000
  H   H2        1.0  0.37356087345052  0.28870037684315153  0.49197749331563245  1.0000
  H   H3        1.0  0.2788077970846136  0.2191375639594184  0.6232473665479481  1.0000
  H   H4        1.0  0.1530280356267632  0.20845758529786385  0.6089433576389454  1.0000
  H   H5        1.0  0.1404281206040887  0.6274925015019321  0.581079142703903  1.0000
  H   H6        1.0  0.2663965038370901  0.6394952084359069  0.5931177768567577  1.0000
  H   H7        1.0  0.3574148309114142  0.5516025328257388  0.790379795055224  1.0000
  H   H8        1.0  0.5310350020129292  0.6555767203279659  0.5782808069657717  1.0000
  H   H9        1.0  0.4586133409927961  0.613415710249755  0.48186216103040147  1.0000
  C   C15       1.0  0.8265218978073298  0.026690204431060627  0.5781079187765508  1.0000
  C   C16       1.0  0.7696266267922108  0.03295096322914981  0.49298561086410175  1.0000
  C   C17       1.0  0.7414235459752666  0.9191162966205172  0.4489653762808652  1.0000
  C   C18       1.0  0.7697904758771845  0.7976866239396463  0.49324280618064065  1.0000
  C   C19       1.0  0.8266838148892857  0.7894340246300604  0.5781842273227487  1.0000
  C   C20       1.0  0.8548169200077461  0.9045262632485994  0.6199180177977781  1.0000
  C   C21       1.0  0.6808697673869863  0.9278710664130532  0.3602599152474977  1.0000
  O   O1        1.0  0.6371470999186423  0.017468453501774617  0.3712700144146688  1.0000
  C   C22       1.0  0.6699150941479848  0.8350531743637488  0.2590716683016596  1.0000
  C   C23       1.0  0.7258832735882736  0.7807948851453383  0.19572814008639416  1.0000
  C   C24       1.0  0.7148369790943199  0.694627973546217  0.09950448231848785  1.0000
  C   C25       1.0  0.6480040502834046  0.6618408108428581  0.06389056341513277  1.0000
  C   C26       1.0  0.5918044565164575  0.7171382195910242  0.12591936997145736  1.0000
  C   C27       1.0  0.6027878333332909  0.8033650523851129  0.22218864889524625  1.0000
  O   O2        1.0  0.6396832479696529  0.574788369475054  0.9668850966729119  1.0000
  C   C28       1.0  0.5748535541352829  0.5330414284673024  0.9211911711951974  1.0000
  H   H10       1.0  0.9337033470757379  0.222116893693864  0.7391496488879894  1.0000
  H   H11       1.0  0.747504301226536  0.12666006501395377  0.4597187897131363  1.0000
  H   H12       1.0  0.7469546645468403  0.7094414653814957  0.4625002598398975  1.0000
  H   H13       1.0  0.8987040649817526  0.8988923776258515  0.6854462559411858  1.0000
  H   H14       1.0  0.8483325098543544  0.45876556803900714  0.6111783502868275  1.0000
  H   H15       1.0  0.7781867795157799  0.8060022737609077  0.2195253708287621  1.0000
  H   H16       1.0  0.7585063403494874  0.6534700262106036  0.05187850402805716  1.0000
  H   H17       1.0  0.5394724040130725  0.6942089062693987  0.1004771390855621  1.0000
  H   H18       1.0  0.5587340894707246  0.844484003789299  0.26875895935580085  1.0000
  H   H19       1.0  0.5834513641770098  0.4645309670569383  0.844824821961895  1.0000
  H   H20       1.0  0.5446275020519432  0.6179093720781312  0.8782958265183645  1.0000
  H   H21       1.0  0.5459626656019433  0.4819235576460641  0.002360165621347221  1.0000
  C   C29       1.0  0.8266502425841831  0.4082018765510709  0.1967706872504995  1.0000
  C   C30       1.0  0.8968888676509859  0.43940609564664523  0.19385397536869564  1.0000
  C   C31       1.0  0.9324738386354616  0.4532381931400562  0.0757037035330197  1.0000
  C   C32       1.0  0.8967684141332701  0.4390980236767925  0.958709115282153  1.0000
  C   C33       1.0  0.8265554826346341  0.4079223811478676  0.95952140995663  1.0000
  C   C34       1.0  0.7919514552652791  0.39220479560323973  0.0791263505679507  1.0000
  N   N4        1.0  0.004124502140934405  0.4871299398625608  0.07613563927135258  1.0000
  C   C35       1.0  0.05280878965189295  0.44646729247863215  0.9825385001125841  1.0000
  O   O3        1.0  0.040239457536479284  0.3481164210429928  0.9208173891516247  1.0000
  C   C36       1.0  0.11887919564030747  0.5156960060661355  0.9610359690681443  1.0000
  C   C37       1.0  0.12720655936194936  0.6436303125447183  0.9975082474625387  1.0000
  C   C38       1.0  0.18963547268257996  0.7081464621699627  0.976118740891367  1.0000
  C   C39       1.0  0.24423754073701032  0.6462076890633344  0.9178330428956887  1.0000
  C   C40       1.0  0.23646875881974228  0.5197104853662915  0.8803620479339695  1.0000
  C   C41       1.0  0.1741570541082489  0.45473533905281527  0.9014239226135268  1.0000
  H   H22       1.0  0.6939983978096679  0.3505490916820806  0.40944109518190097  1.0000
  H   H23       1.0  0.924456699177034  0.45216593077640455  0.28362656990621904  1.0000
  H   H24       1.0  0.9234194847585618  0.4546179567458841  0.8669367304461542  1.0000
  H   H25       1.0  0.7378075632440672  0.3681328713158709  0.0805107205015545  1.0000
  H   H26       1.0  0.7994000311086531  0.3976478601698463  0.6322511092777172  1.0000
  H   H27       1.0  0.02291103607257039  0.5340216078768472  0.15530197163012516  1.0000
  H   H28       1.0  0.08541341979906591  0.6948634974591734  0.04075499816345274  1.0000
  H   H29       1.0  0.19557487402923424  0.806529219786726  0.0043197841116588975  1.0000
  H   H30       1.0  0.2924895514523378  0.6963824792767956  0.901334725551719  1.0000
  H   H31       1.0  0.2787711686311105  0.4718861975710038  0.8349251319094142  1.0000
  H   H32       1.0  0.16939662051177096  0.3565555507510134  0.8718628716850683  1.0000
  Zn  Zn1       1.0  0.7512157351627883  0.40932057986638015  0.5771882727187903  1.0000
  Zn  Zn2       1.0  0.9019833819935339  0.40680317839891167  0.5791031513995168  1.0000
  C   C42       1.0  0.8265707435343533  0.4028014623419347  0.815344660165255  1.0000
  C   C43       1.0  0.826630020331985  0.4133239070406993  0.3409469124959257  1.0000
  C   C44       1.0  0.8266503044056694  0.6452611973104279  0.572994465839368  1.0000
  C   C45       1.0  0.8265504076743894  0.17086261257050306  0.5832971752521801  1.0000
  O   O4        1.0  0.8838387685967845  0.4140819006655918  0.39006045666769906  1.0000
  O   O5        1.0  0.883791150526693  0.400131839645846  0.7676840906545528  1.0000
  O   O6        1.0  0.8838546254758667  0.5959211543384062  0.571984584407369  1.0000
  O   O7        1.0  0.8837752422148981  0.21829259615814722  0.5857598648860782  1.0000
  O   O8        1.0  0.7694238234918266  0.5978311629676267  0.5705315585719435  1.0000
  O   O9        1.0  0.7693603488793349  0.40204340863725063  0.766230995728475  1.0000
  O   O10       1.0  0.7694079671796029  0.4159934249714412  0.388605800310581  1.0000
  O   O11       1.0  0.769344440780832  0.22020411113936267  0.5843053058974801  1.0000
