data_image0
_chemical_formula_structural       NC12NC2H8C6SCOC6H10C7OC3NC3H11Zn2C4O8
_chemical_formula_sum              "N3 C44 H29 S1 O10 Zn2"
_cell_length_a       17.80743265337812
_cell_length_b       10.302038109246572
_cell_length_c       10.298749378158432
_cell_angle_alpha    85.56336078908824
_cell_angle_beta     91.54305523849354
_cell_angle_gamma    89.45358301258409

_space_group_name_H-M_alt    "P 1"
_space_group_IT_number       1

loop_
  _space_group_symop_operation_xyz
  'x, y, z'

loop_
  _atom_site_type_symbol
  _atom_site_label
  _atom_site_symmetry_multiplicity
  _atom_site_fract_x
  _atom_site_fract_y
  _atom_site_fract_z
  _atom_site_occupancy
  N   N1        1.0  0.7075470445235578  0.40641192200630716  0.6014439717285558  1.0000
  C   C1        1.0  0.6567260013904208  0.43596688004144823  0.5327447258775122  1.0000
  C   C2        1.0  0.593499609397274  0.4727311023376011  0.4472915123440966  1.0000
  C   C3        1.0  0.6052239365681189  0.5267448158823274  0.3206707537749729  1.0000
  C   C4        1.0  0.543904853320319  0.5620056958136008  0.23761346808841322  1.0000
  C   C5        1.0  0.47070712419001554  0.5435162947033871  0.28051703082492807  1.0000
  C   C6        1.0  0.4580060475333487  0.4893837845494229  0.4076059480299119  1.0000
  C   C7        1.0  0.5201824458612068  0.45412615851965943  0.49064672131653486  1.0000
  C   C8        1.0  0.3802401850437008  0.4697803886355272  0.4533698431299129  1.0000
  C   C9        1.0  0.3614720466245702  0.4969542946733503  0.5804277169448504  1.0000
  C   C10       1.0  0.2882443832497901  0.47850645499222155  0.6233718519767875  1.0000
  C   C11       1.0  0.2328419265234628  0.43263045984301396  0.5400961040283838  1.0000
  C   C12       1.0  0.15747769760191424  0.4136298626798698  0.5844411841825523  1.0000
  N   N2        1.0  0.0968901945321863  0.39835466044430357  0.6200915779767149  1.0000
  C   C13       1.0  0.2509185956201987  0.40528765686263735  0.4135812136049235  1.0000
  C   C14       1.0  0.32409338070227  0.423750290240531  0.37038117503411083  1.0000
  H   H1        1.0  0.6616888419631791  0.5415666003810671  0.28623351168667255  1.0000
  H   H2        1.0  0.5531007418769993  0.6040971280826197  0.1398336982318289  1.0000
  H   H3        1.0  0.4240665619397682  0.5731477002576273  0.2149259710009641  1.0000
  H   H4        1.0  0.5116846771270261  0.41064975644026536  0.5883018238674251  1.0000
  H   H5        1.0  0.4031618418381054  0.5341216203111028  0.6460113503799474  1.0000
  H   H6        1.0  0.27481492346510267  0.5003422642835615  0.7213912926904154  1.0000
  H   H7        1.0  0.2085121925889797  0.36938728966064804  0.348410759474455  1.0000
  H   H8        1.0  0.33699419916784534  0.4003792889637421  0.2726648564861558  1.0000
  C   C15       1.0  0.9021510581431404  0.021106266143896546  0.610724356834057  1.0000
  C   C16       1.0  0.8379201081161436  0.02721124477146941  0.5281221150923876  1.0000
  C   C17       1.0  0.806314789550096  0.9132830437854018  0.4865556345601849  1.0000
  C   C18       1.0  0.8381617404176191  0.7920736501885988  0.5280796776021217  1.0000
  C   C19       1.0  0.9022933966511906  0.7836502109319434  0.6108227558058639  1.0000
  C   C20       1.0  0.9339959789309971  0.8988257803889639  0.6516329437619104  1.0000
  S   S1        1.0  0.7247846675389533  0.9225131931316647  0.3800334972029098  1.0000
  C   C21       1.0  0.7800039911110164  0.9298763290644861  0.23624458715258445  1.0000
  O   O1        1.0  0.7981141425299499  0.8242374187342598  0.19075823302454165  1.0000
  C   C22       1.0  0.804774612452806  0.05553498686898761  0.1719282035605718  1.0000
  C   C23       1.0  0.8578807663237258  0.05678314105796356  0.07295710106561315  1.0000
  C   C24       1.0  0.8820199441920163  0.17462456947524396  0.012385233949825603  1.0000
  C   C25       1.0  0.8534592484743975  0.29244953459090994  0.04952165641798989  1.0000
  C   C26       1.0  0.8005789052867517  0.2926693957949964  0.14715042226391972  1.0000
  C   C27       1.0  0.776189349130611  0.17513676158559677  0.208030495614556  1.0000
  H   H9        1.0  0.023131885474907854  0.21690491097150777  0.766584509438335  1.0000
  H   H10       1.0  0.8123578946615094  0.12026474825386191  0.4956195248455795  1.0000
  H   H11       1.0  0.8128415102585282  0.7048486505119551  0.4951001071599572  1.0000
  H   H12       1.0  0.9835138394430268  0.8931989511786785  0.7153104416070317  1.0000
  H   H13       1.0  0.926807226026222  0.4531304106782628  0.6419658090160598  1.0000
  H   H14       1.0  0.8811173865420355  0.9667402282083664  0.04276994928001954  1.0000
  H   H15       1.0  0.9229935125295252  0.1745362310270815  0.936643867860731  1.0000
  H   H16       1.0  0.8722330820178099  0.38356921835618607  0.0025427277247327407  1.0000
  H   H17       1.0  0.7783267169618576  0.3840749628080804  0.1756239291047943  1.0000
  H   H18       1.0  0.7347755979018008  0.178622007036771  0.28261835100323474  1.0000
  C   C28       1.0  0.9021875708713951  0.4024069477322971  0.22937082960010424  1.0000
  C   C29       1.0  0.9432455875372355  0.5183941571666912  0.22133164628147695  1.0000
  C   C30       1.0  0.9632533633528675  0.5778616182834995  0.09999178050238444  1.0000
  C   C31       1.0  0.9432485823911227  0.5184429449614223  0.9860877661644518  1.0000
  C   C32       1.0  0.9022568367142197  0.4023494953399802  0.9921762501067479  1.0000
  C   C33       1.0  0.8818139134853225  0.3452523052275207  0.11424427389676262  1.0000
  C   C34       1.0  0.007219425677217117  0.6996904386322769  0.09143213520647175  1.0000
  O   O2        1.0  0.05416503589179733  0.7170573498716772  0.002335880705277127  1.0000
  C   C35       1.0  0.9979298380180012  0.8018091774381364  0.18388913581069422  1.0000
  C   C36       1.0  0.9276509386165371  0.8258321846039589  0.23723010972976866  1.0000
  C   C37       1.0  0.9192656334061499  0.9234844860903011  0.32354047477710934  1.0000
  N   N3        1.0  0.8477439459371535  0.9468110078635426  0.37778972421092916  1.0000
  C   C38       1.0  0.9812714583551041  0.998434231711  0.3559170679006858  1.0000
  C   C39       1.0  0.05095871352346859  0.9763736542216899  0.3020886572522623  1.0000
  C   C40       1.0  0.05930078279859874  0.8790338436517087  0.21615306347065344  1.0000
  H   H19       1.0  0.8256035915187154  0.1822141811133029  0.4520489010065265  1.0000
  H   H20       1.0  0.9604107380111457  0.5618742833399095  0.3097051841052847  1.0000
  H   H21       1.0  0.9591009363305245  0.5636259932863881  0.8924461655341283  1.0000
  H   H22       1.0  0.8501691677861639  0.25584463016136816  0.11968941440038439  1.0000
  H   H23       1.0  0.8250749744274023  0.18274795202009098  0.7964091414687888  1.0000
  H   H24       1.0  0.8791669931541379  0.7698419066515072  0.21085813353607485  1.0000
  H   H25       1.0  0.8011484156307132  0.891516651555569  0.35432327515354256  1.0000
  H   H26       1.0  0.8408741282412566  0.01945425923175037  0.44195712308760937  1.0000
  H   H27       1.0  0.9755128597051459  0.07414970720068981  0.4223834022167585  1.0000
  H   H28       1.0  0.09864054368604203  0.03483976081599183  0.32701586745871847  1.0000
  H   H29       1.0  0.11387549865093494  0.8632632489571015  0.17576469589431332  1.0000
  Zn  Zn1       1.0  0.819903070712963  0.40408330335818166  0.6068327552300166  1.0000
  Zn  Zn2       1.0  0.9845341648345673  0.40067268739001394  0.614713387098814  1.0000
  C   C41       1.0  0.9022411188822719  0.39718797746239787  0.8479889476679001  1.0000
  C   C42       1.0  0.9021979147490062  0.4075696142568508  0.3735574084062687  1.0000
  C   C43       1.0  0.9022621336215743  0.6395136344464734  0.6056283175849293  1.0000
  C   C44       1.0  0.9021768435477806  0.16524239850501599  0.6159181048436615  1.0000
  O   O3        1.0  0.9646780274286801  0.40800227694342217  0.42493839940751044  1.0000
  O   O4        1.0  0.9647121971199201  0.3941657567141508  0.8025887999041441  1.0000
  O   O5        1.0  0.964728324695322  0.5898468067012546  0.6068808362285414  1.0000
  O   O6        1.0  0.9646618436687258  0.21232123741544418  0.6206462630118883  1.0000
  O   O7        1.0  0.8397753356982918  0.5924347544980413  0.6008998766208382  1.0000
  O   O8        1.0  0.8397592084042997  0.3967552644439867  0.7966077712459145  1.0000
  O   O9        1.0  0.839725038612744  0.4105917395447334  0.41895580920677533  1.0000
  O   O10       1.0  0.8397088548568289  0.21491069072291946  0.614663770186274  1.0000
