data_image0
_chemical_formula_structural       NC11NC3H8C7OC6H10C7OC3FC3H9Zn2C4O8
_chemical_formula_sum              "N2 C44 H27 O10 F1 Zn2"
_cell_length_a       17.807433833752565
_cell_length_b       10.299379429549807
_cell_length_c       10.29938172300155
_cell_angle_alpha    85.55361563187328
_cell_angle_beta     88.50784037207825
_cell_angle_gamma    90.68187924927143

_space_group_name_H-M_alt    "P 1"
_space_group_IT_number       1

loop_
  _space_group_symop_operation_xyz
  'x, y, z'

loop_
  _atom_site_type_symbol
  _atom_site_label
  _atom_site_symmetry_multiplicity
  _atom_site_fract_x
  _atom_site_fract_y
  _atom_site_fract_z
  _atom_site_occupancy
  N   N1        1.0  0.7076233190136954  0.438179331193304  0.5341192148941458  1.0000
  C   C1        1.0  0.656793637057344  0.4034678529789266  0.6006944132259862  1.0000
  C   C2        1.0  0.5935563884148201  0.36028963451688445  0.6835054646113983  1.0000
  C   C3        1.0  0.6052646806181867  0.29676755882984884  0.8062473950035238  1.0000
  C   C4        1.0  0.5439351650073897  0.25526862006182416  0.8867738936213845  1.0000
  C   C5        1.0  0.47074291086024206  0.276978636410081  0.8451993733120886  1.0000
  C   C6        1.0  0.4580578977282688  0.3406551532357365  0.7219971890681114  1.0000
  C   C7        1.0  0.3802978534925665  0.36369464504975335  0.6776415266128961  1.0000
  C   C8        1.0  0.36153594795726823  0.3467879022855813  0.5480677987860274  1.0000
  C   C9        1.0  0.2883137593586629  0.36845917703214637  0.5064492215651331  1.0000
  C   C10       1.0  0.23291053068087303  0.40735552776865447  0.5935839807737606  1.0000
  C   C11       1.0  0.1575518306576603  0.4296849525208497  0.5506038659905621  1.0000
  N   N2        1.0  0.0969688088019697  0.4476361511115936  0.5160509818017571  1.0000
  C   C12       1.0  0.250980955638645  0.4244727219310762  0.7226264969744205  1.0000
  C   C13       1.0  0.3241503412389189  0.40276658135583054  0.7645005159682141  1.0000
  C   C14       1.0  0.5202447226205369  0.3821495310645986  0.6414871079477702  1.0000
  H   H1        1.0  0.6617253507285383  0.279360738150064  0.8396193750608314  1.0000
  H   H2        1.0  0.5531187229067629  0.2058380831471478  0.9815283220684297  1.0000
  H   H3        1.0  0.4240939424852093  0.2424370863844656  0.9086512314576864  1.0000
  H   H4        1.0  0.40322627348130397  0.3151265086611297  0.47936330423300255  1.0000
  H   H5        1.0  0.2748890266509759  0.35455177024104345  0.4064201425093117  1.0000
  H   H6        1.0  0.2085739572235129  0.4549108875655805  0.7908166823168892  1.0000
  H   H7        1.0  0.3370466388359902  0.41821943587712385  0.8643462623752949  1.0000
  H   H8        1.0  0.5117595747784658  0.432942556904647  0.5469664847722853  1.0000
  C   C15       1.0  0.9023078259256762  0.06151616127103643  0.5252385936667723  1.0000
  C   C16       1.0  0.9478299945752576  0.052763168703538366  0.6348706447281081  1.0000
  C   C17       1.0  0.9700857167245314  0.9310922733119521  0.6910497309722734  1.0000
  C   C18       1.0  0.947738596573885  0.8175388022606447  0.6345986063742803  1.0000
  C   C19       1.0  0.9022914837791794  0.8242895123801722  0.5249424472505648  1.0000
  C   C20       1.0  0.8796765111842588  0.9467548793427493  0.4711032050485302  1.0000
  C   C21       1.0  0.018806322671934605  0.9217822313129267  0.8059851653935923  1.0000
  O   O1        1.0  0.06646538546841918  0.8321566988505981  0.8161295434174616  1.0000
  C   C22       1.0  0.01345658701144492  0.014045625882282087  0.9094172328246968  1.0000
  C   C23       1.0  0.07770556496711256  0.04509009617443649  0.977997628307772  1.0000
  C   C24       1.0  0.07303603723758911  0.1307626510743085  0.07670568125954902  1.0000
  C   C25       1.0  0.004212789803539563  0.185392321394791  0.10865750934069829  1.0000
  C   C26       1.0  0.9398482613041904  0.15403677751559863  0.04232655421489351  1.0000
  C   C27       1.0  0.9442161132083464  0.06843652457676086  0.9435448349601614  1.0000
  H   H9        1.0  0.817352954773355  0.28546665077447186  0.31715164597085765  1.0000
  H   H10       1.0  0.9667207817582605  0.14082118664760923  0.6758305908643558  1.0000
  H   H11       1.0  0.9653182741792784  0.7236760212507308  0.6772195818204914  1.0000
  H   H12       1.0  0.8445827035173102  0.9526986925662163  0.38658453443718366  1.0000
  H   H13       1.0  0.8853557320918173  0.4994878490340875  0.48216120375951044  1.0000
  H   H14       1.0  0.13160384557656868  0.003948446506643055  0.9544492477981557  1.0000
  H   H15       1.0  0.12282706862287518  0.15475668537563747  0.12849058825864335  1.0000
  H   H16       1.0  0.0007007380828170096  0.2515978833499093  0.18516077080918625  1.0000
  H   H17       1.0  0.8864330666200007  0.1956294413860058  0.06785232286438947  1.0000
  H   H18       1.0  0.8933870386681484  0.04373323193354617  0.8949678159710401  1.0000
  C   C28       1.0  0.9023628995063421  0.44280322233472913  0.14371996211771143  1.0000
  C   C29       1.0  0.9261400936624549  0.3129187105218514  0.1515285608182353  1.0000
  C   C30       1.0  0.9389488172905619  0.24788463600243227  0.03822017764107022  1.0000
  C   C31       1.0  0.9260682330618842  0.31321011622229644  0.9162657315167602  1.0000
  C   C32       1.0  0.9022363791373913  0.44300240670136093  0.9064611103567044  1.0000
  C   C33       1.0  0.8907109778549803  0.5071564676895899  0.02076298263851295  1.0000
  C   C34       1.0  0.9632955216050355  0.11029952987682057  0.04638940222704413  1.0000
  O   O2        1.0  0.9401579969705557  0.036489187237598086  0.9633103940520655  1.0000
  C   C35       1.0  0.013895715927963348  0.056452256973716475  0.14870786150525617  1.0000
  C   C36       1.0  0.007846470180134402  0.9243368190209745  0.19431310257379808  1.0000
  C   C37       1.0  0.05588735252735777  0.8722934681908562  0.28966085951519926  1.0000
  F   F1        1.0  0.049237391090510174  0.7450573979581573  0.33368772386631584  1.0000
  C   C38       1.0  0.11075445356681612  0.9512542224232725  0.3395523615556608  1.0000
  C   C39       1.0  0.11788561697929478  0.08219042116975173  0.2938323229514137  1.0000
  C   C40       1.0  0.06999370189699317  0.13464918449763075  0.19854846849272434  1.0000
  H   H19       1.0  0.8563888487858783  0.6872709879776551  0.3364032678169915  1.0000
  H   H20       1.0  0.9339245252378311  0.2617143342464454  0.24599290417252528  1.0000
  H   H21       1.0  0.9353809856618344  0.2628838963361897  0.8288274267030751  1.0000
  H   H22       1.0  0.8723801803493496  0.607287438085208  0.013939096019157216  1.0000
  H   H23       1.0  0.8924757950967985  0.4925094235867924  0.5752925435124849  1.0000
  H   H24       1.0  0.9655261106831986  0.8617890639900683  0.15692805432778778  1.0000
  H   H25       1.0  0.1479675207471094  0.9109472712784017  0.41325814627387847  1.0000
  H   H26       1.0  0.16079551192231278  0.14300465644908367  0.3318296170368833  1.0000
  H   H27       1.0  0.07737783724154523  0.23579330757861805  0.16290577198875034  1.0000
  Zn  Zn1       1.0  0.8199800156731114  0.44090489225197915  0.5289125990192587  1.0000
  Zn  Zn2       1.0  0.9846120958539657  0.44489997259255953  0.5212681878591201  1.0000
  C   C41       1.0  0.9022587490876884  0.4377907572486128  0.7622887690654427  1.0000
  C   C42       1.0  0.9023351601603264  0.44801578997269464  0.2878920611669935  1.0000
  C   C43       1.0  0.9022915600161847  0.6801076591125603  0.5198234178995691  1.0000
  C   C44       1.0  0.9023022930763664  0.20569732636794247  0.5303574847861043  1.0000
  O   O3        1.0  0.9648028671451697  0.45127562137873767  0.3333765226400187  1.0000
  O   O4        1.0  0.9647429817160803  0.4375621195026187  0.7110020029342434  1.0000
  O   O5        1.0  0.964768634511776  0.6332360621880286  0.5152095549685494  1.0000
  O   O6        1.0  0.9647771581876469  0.25560168659542026  0.5291688758355375  1.0000
  O   O7        1.0  0.8398148971585823  0.6302031768872056  0.521011913644672  1.0000
  O   O8        1.0  0.8397892443375022  0.4345307945806878  0.7168042917589601  1.0000
  O   O9        1.0  0.8398491300764743  0.4482442507915321  0.33917725007255295  1.0000
  O   O10       1.0  0.8398234210999309  0.2525703067442091  0.5349697006400784  1.0000
