data_image0
_chemical_formula_structural       NC9NC5H8C7OC4NC3H9C7OC3FC3H9Zn2C4O8
_chemical_formula_sum              "N3 C45 H26 O10 F1 Zn2"
_cell_length_a       17.807436237873137
_cell_length_b       10.299371701877257
_cell_length_c       10.29938172300155
_cell_angle_alpha    85.59571719418345
_cell_angle_beta     89.37614531969923
_cell_angle_gamma    88.40037932452064

_space_group_name_H-M_alt    "P 1"
_space_group_IT_number       1

loop_
  _space_group_symop_operation_xyz
  'x, y, z'

loop_
  _atom_site_type_symbol
  _atom_site_label
  _atom_site_symmetry_multiplicity
  _atom_site_fract_x
  _atom_site_fract_y
  _atom_site_fract_z
  _atom_site_occupancy
  N   N1        1.0  0.7077940235263297  0.38736722010642044  0.5576097980054862  1.0000
  C   C1        1.0  0.6472047113941938  0.3521746401077155  0.5465736742690057  1.0000
  C   C2        1.0  0.5718382664335531  0.30839894619442476  0.5328459346492624  1.0000
  C   C3        1.0  0.5537569873534137  0.23695605943623588  0.4278182679667655  1.0000
  C   C4        1.0  0.4805800605486367  0.19434171592871463  0.41440685064231486  1.0000
  C   C5        1.0  0.4244356609180578  0.22279272179549547  0.5059905174519899  1.0000
  C   C6        1.0  0.3466674495655352  0.17761958803605604  0.49181976824225737  1.0000
  C   C7        1.0  0.2844951833829168  0.2593824721699407  0.517787039275895  1.0000
  C   C8        1.0  0.211175928571131  0.21656509471764362  0.5043892326921091  1.0000
  C   C9        1.0  0.1479537887330637  0.30101942132951987  0.5307213398722639  1.0000
  N   N2        1.0  0.0971361761165334  0.3689148573295329  0.5518916255317714  1.0000
  C   C10       1.0  0.1994453727914839  0.09172684704982181  0.46499871587207964  1.0000
  C   C11       1.0  0.2607602691244088  0.009950108415672787  0.4390230503329855  1.0000
  C   C12       1.0  0.333960085098679  0.052372891785156916  0.45221818162349003  1.0000
  C   C13       1.0  0.4432083588062637  0.2947300321850237  0.6112375852973322  1.0000
  C   C14       1.0  0.5164381632862005  0.33715394025871603  0.6244932857514192  1.0000
  H   H1        1.0  0.5961615328975841  0.21445176499083285  0.3560976694921911  1.0000
  H   H2        1.0  0.4676757921973661  0.14063746211425188  0.33146772998744023  1.0000
  H   H3        1.0  0.2929978593555284  0.3568548025693832  0.5466978709204418  1.0000
  H   H4        1.0  0.1429786132621264  0.057688062376218374  0.45439203176002674  1.0000
  H   H5        1.0  0.2515595325635367  0.9132975551279027  0.4089120907966812  1.0000
  H   H6        1.0  0.3805973320468254  0.986622952486823  0.43314698671461316  1.0000
  H   H7        1.0  0.4015204227303978  0.31669562404428664  0.6842524962210708  1.0000
  H   H8        1.0  0.5298710799842767  0.39207849865034605  0.7063912019144878  1.0000
  C   C15       1.0  0.9024294136188953  0.9967722773592496  0.5546242658003449  1.0000
  C   C16       1.0  0.9061023433733942  0.005903940424194065  0.4179087580930192  1.0000
  C   C17       1.0  0.9071018339839602  0.8933811981452047  0.34890337694479756  1.0000
  C   C18       1.0  0.9061115837453779  0.7706352683821069  0.4182260105252711  1.0000
  C   C19       1.0  0.9025079604699616  0.7594994809392911  0.5548883178028996  1.0000
  C   C20       1.0  0.9004900702906435  0.8731777604828257  0.6222837911338746  1.0000
  C   C21       1.0  0.9117691765973844  0.9028424690485418  0.20458835577154733  1.0000
  O   O1        1.0  0.9479362761624703  0.8153674239553974  0.14911265237702742  1.0000
  C   C22       1.0  0.8753945507474228  0.011458601275340374  0.12321238751968489  1.0000
  C   C23       1.0  0.9075897885295842  0.05454618123684796  0.0027721984351822826  1.0000
  C   C24       1.0  0.8731960042421983  0.15605917711350958  0.9244884659300219  1.0000
  C   C25       1.0  0.9068490545037339  0.20026115484674545  0.8018407705805726  1.0000
  N   N3        1.0  0.933904606483558  0.2357899911590713  0.7032497594596667  1.0000
  C   C26       1.0  0.8060462685966333  0.2144304093611542  0.9656455329919833  1.0000
  C   C27       1.0  0.7732171336174345  0.1711617977624138  0.08435552444114736  1.0000
  C   C28       1.0  0.8073952171280259  0.06995649623170874  0.16263102753296987  1.0000
  H   H9        1.0  0.8966534462362011  0.18680001735941376  0.812690819265603  1.0000
  H   H10       1.0  0.9090315381179147  0.10067524361209035  0.36498040176502533  1.0000
  H   H11       1.0  0.9074388930310112  0.683721201940202  0.36519554727072645  1.0000
  H   H12       1.0  0.8976589208201724  0.8653340044327654  0.7276816967464024  1.0000
  H   H13       1.0  0.9017559228552681  0.4277312495741791  0.6074233537167861  1.0000
  H   H14       1.0  0.9596944172497633  0.009977483277839427  0.9704308349789579  1.0000
  H   H15       1.0  0.7789738290223193  0.2929142048814193  0.9058051143141719  1.0000
  H   H16       1.0  0.7209844184983466  0.215752454904099  0.11554579096071316  1.0000
  H   H17       1.0  0.7802387683386816  0.036556843969217434  0.25318400222478243  1.0000
  C   C29       1.0  0.9025319199178682  0.3780317517488041  0.17338766309707365  1.0000
  C   C30       1.0  0.9262926801578875  0.2464509261564949  0.18185457906349334  1.0000
  C   C31       1.0  0.9390931647302947  0.18050274510874376  0.06890445727570738  1.0000
  C   C32       1.0  0.9262208566428508  0.24674746480982535  0.9465896858173948  1.0000
  C   C33       1.0  0.9024054257959669  0.37823999283724974  0.9361249467520945  1.0000
  C   C34       1.0  0.8908881392038548  0.4432162254463745  0.05010859519247668  1.0000
  C   C35       1.0  0.9634224705422214  0.0411809797269409  0.07774439330441418  1.0000
  O   O2        1.0  0.9402760320965168  0.9690337275305688  0.9938776115194825  1.0000
  C   C36       1.0  0.014015379035335451  0.9837099870089089  0.18162741899059132  1.0000
  C   C37       1.0  0.007949767877085456  0.8520363541978426  0.22694376661101345  1.0000
  C   C38       1.0  0.055983618500907495  0.7965526250319547  0.323776279596496  1.0000
  F   F1        1.0  0.04931790563231875  0.669801117162367  0.36749879315685674  1.0000
  C   C39       1.0  0.11085990595966067  0.8715755707091005  0.3754652461261019  1.0000
  C   C40       1.0  0.1180072755291619  0.001992484789819171  0.33006753353932927  1.0000
  C   C41       1.0  0.07012244212064722  0.05788092261839295  0.23330395102994483  1.0000
  H   H18       1.0  0.8565888151683106  0.6257798138627346  0.3647931869090777  1.0000
  H   H19       1.0  0.9340706514280464  0.1946917308004017  0.27652806768198634  1.0000
  H   H20       1.0  0.9355272404518461  0.19575682025186714  0.8594096232955093  1.0000
  H   H21       1.0  0.8725700109885006  0.5446549526567148  0.04277718361055105  1.0000
  H   H22       1.0  0.8926511138304446  0.42844358606224087  0.6046833380755472  1.0000
  H   H23       1.0  0.9656221182269312  0.7925260307180153  0.18817108127438353  1.0000
  H   H24       1.0  0.1480675270851226  0.8286036591560546  0.45032114617290664  1.0000
  H   H25       1.0  0.16092423813020384  0.059727137668805774  0.36946988011974735  1.0000
  H   H26       1.0  0.07751907445565731  0.15848947486731602  0.19796970031165628  1.0000
  Zn  Zn1       1.0  0.8201497557153261  0.38203880356963693  0.5559671665359738  1.0000
  Zn  Zn2       1.0  0.9847804228699364  0.37423269061630693  0.5535449299403534  1.0000
  C   C42       1.0  0.9024271471404978  0.3730270630012371  0.7919494835761525  1.0000
  C   C43       1.0  0.9025048293541384  0.38324598459524584  0.3175627144830728  1.0000
  C   C44       1.0  0.9024901027033309  0.6153265898385758  0.5496632989634929  1.0000
  C   C45       1.0  0.9024418174422074  0.1409449001391907  0.559848968620674  1.0000
  O   O3        1.0  0.9649722171352677  0.3820278838504425  0.3650299506576469  1.0000
  O   O4        1.0  0.9649106263964782  0.3683195248118376  0.7426434516873055  1.0000
  O   O5        1.0  0.964960621372907  0.5639794973317604  0.5469956562569109  1.0000
  O   O6        1.0  0.9649221659986464  0.18636792325784235  0.5606776495432075  1.0000
  O   O7        1.0  0.8400079564062503  0.5699035735933569  0.5488344477528793  1.0000
  O   O8        1.0  0.8399579615985534  0.3742451613574058  0.7444821744780923  1.0000
  O   O9        1.0  0.8400195526415412  0.3879534747113542  0.3668671120325069  1.0000
  O   O10       1.0  0.8399695014847469  0.19229350485668695  0.5625149082826617  1.0000
