data_image0
_chemical_formula_structural       NC10NC3NCH9C7OC3FC3H9C6NCOC6H11Zn2C4O8
_chemical_formula_sum              "N4 C44 H29 O10 F1 Zn2"
_cell_length_a       19.437513618241372
_cell_length_b       10.29937835083307
_cell_length_c       10.299662537453274
_cell_angle_alpha    85.53091033731847
_cell_angle_beta     90.33361086240306
_cell_angle_gamma    89.54280298698887

_space_group_name_H-M_alt    "P 1"
_space_group_IT_number       1

loop_
  _space_group_symop_operation_xyz
  'x, y, z'

loop_
  _atom_site_type_symbol
  _atom_site_label
  _atom_site_symmetry_multiplicity
  _atom_site_fract_x
  _atom_site_fract_y
  _atom_site_fract_z
  _atom_site_occupancy
  N   N1        1.0  0.6482899177281269  0.41106496951911975  0.5755171942409236  1.0000
  C   C1        1.0  0.5893600835460233  0.42807681975794987  0.5725400900117403  1.0000
  C   C2        1.0  0.5159239843380261  0.44933155853022666  0.5688447146720907  1.0000
  C   C3        1.0  0.4741432002658794  0.3481435519153251  0.557191407666249  1.0000
  C   C4        1.0  0.3982557661426037  0.35821176485880635  0.5499693177401466  1.0000
  C   C5        1.0  0.3586915035338821  0.4390341395351596  0.6157080431663113  1.0000
  C   C6        1.0  0.2825083270874836  0.4304292986538283  0.607264318290512  1.0000
  C   C7        1.0  0.24934890531155804  0.30907889797575705  0.6119151942644006  1.0000
  C   C8        1.0  0.1776135870856753  0.30271007826748164  0.6047473994093813  1.0000
  C   C9        1.0  0.1380669447663488  0.4172188010052227  0.5932909955653605  1.0000
  C   C10       1.0  0.0642171020474282  0.4105118647123649  0.585955127043077  1.0000
  N   N2        1.0  0.0048469266068674  0.4051200778151829  0.5800575471287717  1.0000
  C   C11       1.0  0.1705096516726901  0.538258292763157  0.5893854277796977  1.0000
  C   C12       1.0  0.2422294185222711  0.5448810840543161  0.5966152296313163  1.0000
  C   C13       1.0  0.3873860728290568  0.5312819971288885  0.705623926010428  1.0000
  N   N3        1.0  0.44438504835146675  0.5945054989303433  0.6852155107010274  1.0000
  C   C14       1.0  0.4882324756830613  0.5852945465909378  0.5721065422787328  1.0000
  H   H1        1.0  0.4965095409079249  0.2530899083866185  0.5450757978648144  1.0000
  H   H2        1.0  0.373532377782026  0.2887235391136769  0.49165441207650207  1.0000
  H   H3        1.0  0.27878083958503075  0.21915947595274954  0.6229417249248739  1.0000
  H   H4        1.0  0.1530013142822533  0.208479305336138  0.6086403935201243  1.0000
  H   H5        1.0  0.1403921335836512  0.627521753003891  0.5806711252131747  1.0000
  H   H6        1.0  0.2663602514134883  0.6395246756667889  0.5927067502496364  1.0000
  H   H7        1.0  0.3573805219655923  0.5516304203302806  0.789990803418416  1.0000
  H   H8        1.0  0.5309983939958629  0.6556064765975846  0.5778657486730214  1.0000
  H   H9        1.0  0.45857766523755583  0.6134447087445345  0.48145767263552974  1.0000
  C   C15       1.0  0.8264991956926744  0.02670865749950635  0.5778505243120102  1.0000
  C   C16       1.0  0.7547183780308651  0.02791925087639746  0.5609113877422769  1.0000
  C   C17       1.0  0.718426580111673  0.9112429237279627  0.5538440189741163  1.0000
  C   C18       1.0  0.7548866058008105  0.7926724404383543  0.5609204053266723  1.0000
  C   C19       1.0  0.8266442259049336  0.7894662571437698  0.5777355752810187  1.0000
  C   C20       1.0  0.8620140553694379  0.9070115836505976  0.5864450066863078  1.0000
  C   C21       1.0  0.6427161761936844  0.9124827069259921  0.534585320328631  1.0000
  O   O1        1.0  0.6161501821639451  0.8282607229588439  0.4675847970264182  1.0000
  C   C22       1.0  0.5971433072633058  0.009168185405259655  0.5913449720469417  1.0000
  C   C23       1.0  0.5358650886180203  0.050212419558273824  0.5267826301745755  1.0000
  C   C24       1.0  0.4921543605313556  0.14017741670228379  0.5802879148147579  1.0000
  F   F1        1.0  0.43345917430271175  0.17987025166311765  0.5168198450305055  1.0000
  C   C25       1.0  0.5088850159141567  0.18914986437028292  0.6991082285397106  1.0000
  C   C26       1.0  0.5691753741562434  0.14786928843556346  0.7648725764030329  1.0000
  C   C27       1.0  0.613028311703633  0.05797337334219721  0.7117738222885424  1.0000
  H   H10       1.0  0.9620784093829213  0.23189758454544163  0.6078220825368155  1.0000
  H   H11       1.0  0.7270370732807153  0.11989559211918444  0.5517455971272156  1.0000
  H   H12       1.0  0.727035000542431  0.7026705431466352  0.5545133223057999  1.0000
  H   H13       1.0  0.9173517315550089  0.9052743030730502  0.5995030800594456  1.0000
  H   H14       1.0  0.8542751142361483  0.46086209639190795  0.5830999362717211  1.0000
  H   H15       1.0  0.5221688677951457  0.013474177618154393  0.4344481481554201  1.0000
  H   H16       1.0  0.4750292427496917  0.25868634570299687  0.7405568618203815  1.0000
  H   H17       1.0  0.5818079323707155  0.18511234649756125  0.8574070879894564  1.0000
  H   H18       1.0  0.6588727428589257  0.025626762315609453  0.7655107505799401  1.0000
  C   C28       1.0  0.8266191045054117  0.40822718666458147  0.1964176466094032  1.0000
  C   C29       1.0  0.8968570395863195  0.43943196660469064  0.19349311173169426  1.0000
  C   C30       1.0  0.9324417047162522  0.45326431270731304  0.07533937214565634  1.0000
  C   C31       1.0  0.8967365928806733  0.43912388909775135  0.9583483288797638  1.0000
  C   C32       1.0  0.8265243507360489  0.40794768623790767  0.9591684393859103  1.0000
  C   C33       1.0  0.7919206709130401  0.39222981819552083  0.07877732044537966  1.0000
  N   N4        1.0  0.004091618809373809  0.4871566685782436  0.07576281111645233  1.0000
  C   C34       1.0  0.05277680545044916  0.4464932903500818  0.9821758662113198  1.0000
  O   O2        1.0  0.040209648063838754  0.34814065121922644  0.9204794121232722  1.0000
  C   C35       1.0  0.11884568065753687  0.5157232482098928  0.9606559793105687  1.0000
  C   C36       1.0  0.12717021550316376  0.6436598540972982  0.9970961841718071  1.0000
  C   C37       1.0  0.1895977022464106  0.7081771632942615  0.9756905031989365  1.0000
  C   C38       1.0  0.24420113988742376  0.6462372769400198  0.9174203334485544  1.0000
  C   C39       1.0  0.23643515506903645  0.5197377996637145  0.8799810517338025  1.0000
  C   C40       1.0  0.17412488708423535  0.45476148552880824  0.9010592158869724  1.0000
  H   H19       1.0  0.6939685345459542  0.35057336558156993  0.409102508275365  1.0000
  H   H20       1.0  0.9244245889676282  0.4521920310715082  0.2832625073384032  1.0000
  H   H21       1.0  0.9233873203300992  0.45464410111212405  0.8665720531477139  1.0000
  H   H22       1.0  0.7377773111688312  0.36815746125488946  0.08016772528614058  1.0000
  H   H23       1.0  0.7993691263996838  0.39767298059226386  0.6319007145617337  1.0000
  H   H24       1.0  0.02287711587514818  0.5340491793931681  0.15491738758651707  1.0000
  H   H25       1.0  0.08537594307504692  0.6948939598440202  0.0403300905520676  1.0000
  H   H26       1.0  0.19553492815919582  0.8065616891793421  0.0038668815523512645  1.0000
  H   H27       1.0  0.29245204114068035  0.6964129689628431  0.9009094371268129  1.0000
  H   H28       1.0  0.2787386223683015  0.4719126523054811  0.8345561254086675  1.0000
  H   H29       1.0  0.16936662443358075  0.35657993260672916  0.8715227789403461  1.0000
  Zn  Zn1       1.0  0.7511845723473134  0.40934591008674315  0.5768349516152531  1.0000
  Zn  Zn2       1.0  0.9019522748426956  0.4068284633731223  0.578750461416448  1.0000
  C   C41       1.0  0.8265397248692298  0.40282667539187833  0.8149929734249928  1.0000
  C   C42       1.0  0.8265987689951704  0.41334930921428636  0.3405925877456699  1.0000
  C   C43       1.0  0.826613924484854  0.6452907681754807  0.5725819936806944  1.0000
  C   C44       1.0  0.8265245176277507  0.1708836569009522  0.5830036363113074  1.0000
  O   O3        1.0  0.8838075004992587  0.41410731646286836  0.3897059418860567  1.0000
  O   O4        1.0  0.883760190892113  0.40015700471371085  0.7673330731970993  1.0000
  O   O5        1.0  0.8838193365592389  0.5959498383973063  0.5715844819527078  1.0000
  O   O6        1.0  0.8837483033991947  0.21831449296457173  0.5854544350990907  1.0000
  O   O7        1.0  0.7693884923411981  0.5978598813557912  0.5701309772721095  1.0000
  O   O8        1.0  0.7693293469762512  0.4020686080624254  0.7658794990346611  1.0000
  O   O9        1.0  0.7693766568145618  0.41601887512522406  0.3882508063037813  1.0000
  O   O10       1.0  0.7693174596978194  0.22022604230212606  0.5839993968876724  1.0000
