data_image0
_chemical_formula_structural       NC10NC3NH7C7OC3FC3H9C7OC4NC3H9Zn2C4O8
_chemical_formula_sum              "N4 C44 H25 O10 F1 Zn2"
_cell_length_a       19.210446455230148
_cell_length_b       10.29937835083307
_cell_length_c       10.299375074045738
_cell_angle_alpha    85.53063417163439
_cell_angle_beta     89.9839463016943
_cell_angle_gamma    89.96745330776054

_space_group_name_H-M_alt    "P 1"
_space_group_IT_number       1

loop_
  _space_group_symop_operation_xyz
  'x, y, z'

loop_
  _atom_site_type_symbol
  _atom_site_label
  _atom_site_symmetry_multiplicity
  _atom_site_fract_x
  _atom_site_fract_y
  _atom_site_fract_z
  _atom_site_occupancy
  N   N1        1.0  0.6558271252514328  0.4207919792106445  0.5671077997168639  1.0000
  C   C1        1.0  0.5955988070644012  0.4229994592529518  0.5673387243637726  1.0000
  C   C2        1.0  0.5207946540971319  0.42573633035950786  0.5676248109672482  1.0000
  C   C3        1.0  0.4851957514402749  0.5419637991741142  0.582724947750747  1.0000
  C   C4        1.0  0.4125302903403777  0.5421153611863287  0.5826723321448661  1.0000
  C   C5        1.0  0.3756279726282979  0.4264452809355497  0.5677112228342409  1.0000
  C   C6        1.0  0.2983057045174498  0.425088830325149  0.5675607678666204  1.0000
  C   C7        1.0  0.2605652175703344  0.528687297850231  0.5041853794868227  1.0000
  C   C8        1.0  0.1877867167257742  0.5272850743804378  0.5040764488489622  1.0000
  C   C9        1.0  0.1517473214573669  0.4225419200866265  0.5672918804159788  1.0000
  C   C10       1.0  0.0768176678497931  0.42123985942313324  0.5671551835657214  1.0000
  N   N2        1.0  0.0165797081491662  0.4201929584258839  0.5670453141801437  1.0000
  C   C11       1.0  0.1887641653887751  0.3190691582684211  0.6306422459968524  1.0000
  C   C12       1.0  0.2615444837612311  0.32019708665266955  0.6308014535875963  1.0000
  C   C13       1.0  0.4138369199896826  0.31203799980726243  0.5528990702944063  1.0000
  N   N3        1.0  0.4846071213795781  0.31448297115188195  0.5530643815198768  1.0000
  H   H1        1.0  0.5133057586423713  0.6313948841948618  0.5947644233009244  1.0000
  H   H2        1.0  0.3852704862665293  0.6321277684227089  0.5961065278404909  1.0000
  H   H3        1.0  0.2873030183567075  0.6099631243298864  0.45318402856613504  1.0000
  H   H4        1.0  0.1596506863015894  0.6077326425251104  0.4544056344760179  1.0000
  H   H5        1.0  0.1613867657357766  0.23765820841586716  0.6802136734309419  1.0000
  H   H6        1.0  0.2890355992175841  0.23986813222947667  0.6819100416873061  1.0000
  H   H7        1.0  0.387562440454774  0.2211626681900436  0.539418716887986  1.0000
  C   C14       1.0  0.8361333686187238  0.039107607867519656  0.567140589029506  1.0000
  C   C15       1.0  0.7635068978679437  0.03924205010795645  0.5511276339978974  1.0000
  C   C16       1.0  0.7267876398239056  0.9220216223586021  0.5445285773781066  1.0000
  C   C17       1.0  0.763677105585609  0.8039977619217075  0.5511344800874416  1.0000
  C   C18       1.0  0.8362800979512109  0.8018673825621031  0.5670237644720189  1.0000
  C   C19       1.0  0.8720666440590529  0.9199429782390642  0.5752768323451698  1.0000
  C   C20       1.0  0.6501851996365994  0.9221263481661393  0.5262467240404649  1.0000
  O   O1        1.0  0.6233023679590859  0.8375063795133071  0.45958726360900526  1.0000
  C   C21       1.0  0.6040797284942394  0.018128259082142106  0.5835963058812841  1.0000
  C   C22       1.0  0.5420764019389962  0.0582540444542905  0.5198232159557392  1.0000
  C   C23       1.0  0.49785477468413114  0.1475634096885663  0.5738942993215821  1.0000
  F   F1        1.0  0.4384649421958999  0.18637651878771822  0.5111821665398282  1.0000
  C   C24       1.0  0.5147898404450476  0.1967861235864894  0.6925019842799736  1.0000
  C   C25       1.0  0.5757937598412612  0.1564091792175777  0.757489867017394  1.0000
  C   C26       1.0  0.6201592956536354  0.06717102623680615  0.7038234897984441  1.0000
  H   H8        1.0  0.9733097185530261  0.24632917317402114  0.5953627235039387  1.0000
  H   H9        1.0  0.7354993109187113  0.13080340107359922  0.5423189384077056  1.0000
  H   H10       1.0  0.7354973898173052  0.7135783074633837  0.5450867685389975  1.0000
  H   H11       1.0  0.9280562558861944  0.9190353302195832  0.5876208885585656  1.0000
  H   H12       1.0  0.8642364335125918  0.4736774748019349  0.5720315738935429  1.0000
  H   H13       1.0  0.5282131584828204  0.021310902823471256  0.4276629377166741  1.0000
  H   H14       1.0  0.4805383550872014  0.2658147907602113  0.7343888523433648  1.0000
  H   H15       1.0  0.5885808383168467  0.19384118813621898  0.8498639119110594  1.0000
  H   H16       1.0  0.6665465517137562  0.0355115130227992  0.7569701039930989  1.0000
  C   C27       1.0  0.8362304295003015  0.42062980368669645  0.18569538700849342  1.0000
  C   C28       1.0  0.8898295030280762  0.5136554568267118  0.17722834047031033  1.0000
  C   C29       1.0  0.9163228153737129  0.5616561887379385  0.05570029351315098  1.0000
  C   C30       1.0  0.8897167539325455  0.5134178988868452  0.9420030801971828  1.0000
  C   C31       1.0  0.8361830277069164  0.4203451866835015  0.9484689948833425  1.0000
  C   C32       1.0  0.8096248705451619  0.3747412161516366  0.07079296011139546  1.0000
  C   C33       1.0  0.9734193729399875  0.6588841306867423  0.046697952026602874  1.0000
  O   O2        1.0  0.017902035939250993  0.6541250667559384  0.9570560289287835  1.0000
  C   C34       1.0  0.9800427901078286  0.7615227277340544  0.13930758487704487  1.0000
  C   C35       1.0  0.046246580705139095  0.807975681738488  0.1710455451141739  1.0000
  C   C36       1.0  0.05301077810723975  0.9059801759536792  0.2572460972086681  1.0000
  C   C37       1.0  0.12099690259591434  0.9522208339986844  0.29001488977490086  1.0000
  N   N4        1.0  0.1756500863597794  0.989387496316771  0.31635354678602345  1.0000
  C   C38       1.0  0.9935778768274734  0.958932040908522  0.31144172800059255  1.0000
  C   C39       1.0  0.9276063654552307  0.9144904317734979  0.2792024662051287  1.0000
  C   C40       1.0  0.92070377956059  0.8167561626525306  0.19327745551469389  1.0000
  H   H17       1.0  0.7358144541234974  0.24361458818868442  0.4091086806793889  1.0000
  H   H18       1.0  0.9115680968105502  0.5478220387315484  0.26540258767781877  1.0000
  H   H19       1.0  0.910443424749345  0.5496207896694345  0.8482487804271712  1.0000
  H   H20       1.0  0.7683041324306205  0.30302456508100106  0.07651661557586142  1.0000
  H   H21       1.0  0.8160190409369144  0.38379045818666624  0.6235579767284571  1.0000
  H   H22       1.0  0.09251526308927827  0.7671771120339723  0.12966310412165827  1.0000
  H   H23       1.0  0.9982360321461938  0.0348053302091369  0.3781084940388224  1.0000
  H   H24       1.0  0.8816846722465272  0.956267162339191  0.3204358785435688  1.0000
  H   H25       1.0  0.8689941738545125  0.7854472256208476  0.16798790426161103  1.0000
  Zn  Zn1       1.0  0.7599325260191623  0.42061564775481086  0.5670972676899755  1.0000
  Zn  Zn2       1.0  0.912474288744784  0.4203587029224436  0.5670664841036559  1.0000
  C   C41       1.0  0.8361894567062986  0.4152250715542085  0.8042892147413407  1.0000
  C   C42       1.0  0.8362190241162925  0.42575091495776696  0.3298746639375647  1.0000
  C   C43       1.0  0.8362491122404097  0.6576914645241934  0.561870428449859  1.0000
  C   C44       1.0  0.836159316225849  0.1832829616817806  0.5722935197204237  1.0000
  O   O3        1.0  0.8941039992514827  0.42736643147907394  0.3782508650261891  1.0000
  O   O4        1.0  0.8940801497384593  0.41341356022646814  0.7558892759094971  1.0000
  O   O5        1.0  0.8941275418840523  0.6092082397663152  0.5601343907766376  1.0000
  O   O6        1.0  0.8940565550615549  0.2315717613538546  0.574005652788899  1.0000
  O   O7        1.0  0.7783502076473747  0.609402589412499  0.5601580990084056  1.0000
  O   O8        1.0  0.7783028158030972  0.41360947026775263  0.7559129146535613  1.0000
  O   O9        1.0  0.7783266654507004  0.4275622968451154  0.3782729423033182  1.0000
  O   O10       1.0  0.7782792212500909  0.2317676173943677  0.5740278274398516  1.0000
