data_image0
_chemical_formula_structural       NC10NC3NH7C7OC3FC3H9C7OC6H10Zn2C4O8
_chemical_formula_sum              "N3 C43 H26 O10 F1 Zn2"
_cell_length_a       19.210446455230148
_cell_length_b       10.29937835083307
_cell_length_c       10.299382801718286
_cell_angle_alpha    85.56292937340861
_cell_angle_beta     89.97114799571779
_cell_angle_gamma    89.96745330776054

_space_group_name_H-M_alt    "P 1"
_space_group_IT_number       1

loop_
  _space_group_symop_operation_xyz
  'x, y, z'

loop_
  _atom_site_type_symbol
  _atom_site_label
  _atom_site_symmetry_multiplicity
  _atom_site_fract_x
  _atom_site_fract_y
  _atom_site_fract_z
  _atom_site_occupancy
  N   N1        1.0  0.6559989548569702  0.41998171763360514  0.5671716620367293  1.0000
  C   C1        1.0  0.5957706089779107  0.4221893282575211  0.567402576391598  1.0000
  C   C2        1.0  0.5209664217037002  0.42492636113827253  0.5676886502445302  1.0000
  C   C3        1.0  0.4853657082682328  0.5411623686696372  0.5827881140326947  1.0000
  C   C4        1.0  0.4127002534778955  0.5413139009291572  0.5827355007718293  1.0000
  C   C5        1.0  0.3757997298725256  0.4256353605778753  0.5677750582602474  1.0000
  C   C6        1.0  0.2984774798039404  0.4242788248892815  0.5676246099982283  1.0000
  C   C7        1.0  0.2607445927083588  0.5278414553554949  0.5042520461849427  1.0000
  C   C8        1.0  0.1879661049265458  0.5264391702883879  0.5041431204019919  1.0000
  C   C9        1.0  0.1519191289883101  0.42173176260221723  0.5673557345315836  1.0000
  C   C10       1.0  0.0769894917731528  0.42042962464037203  0.5672190437737443  1.0000
  N   N2        1.0  0.0167515452478459  0.4193826615149727  0.5671091792849159  1.0000
  C   C11       1.0  0.1889283760688692  0.3182948236931684  0.6307032766611822  1.0000
  C   C12       1.0  0.261708675349465  0.3194228421049805  0.630862477156231  1.0000
  C   C13       1.0  0.4140104534780183  0.3112197035800892  0.5529635658806282  1.0000
  N   N3        1.0  0.4847806350441178  0.3136647684037115  0.553128869738372  1.0000
  H   H1        1.0  0.5134742717201755  0.6306002616864395  0.5948270529976087  1.0000
  H   H2        1.0  0.3854388384018052  0.6313339048379105  0.5961690977211545  1.0000
  H   H3        1.0  0.2874885094761077  0.609088441957998  0.45325296833447304  1.0000
  H   H4        1.0  0.1598360309284193  0.6068586509381473  0.45447451979881737  1.0000
  H   H5        1.0  0.161545031908098  0.23691190513491578  0.6802724947550609  1.0000
  H   H6        1.0  0.2891936619647712  0.2391227881986484  0.6819687874062874  1.0000
  H   H7        1.0  0.3877375904804932  0.22033674918956758  0.5394838132777025  1.0000
  C   C14       1.0  0.8363051942922314  0.038297364831945124  0.56720444988799  1.0000
  C   C15       1.0  0.763680643783425  0.03842275218172464  0.5511922085349512  1.0000
  C   C16       1.0  0.7269621770852367  0.921198592845289  0.5445934460273516  1.0000
  C   C17       1.0  0.7638508506801206  0.8031784678667534  0.5511990543193737  1.0000
  C   C18       1.0  0.8364519376340891  0.801057073465418  0.5670876305372363  1.0000
  C   C19       1.0  0.8722374940503151  0.9191373360278499  0.5753403305808598  1.0000
  C   C20       1.0  0.6503619292217123  0.9212929807618716  0.5263124074904086  1.0000
  O   O1        1.0  0.6234870912151736  0.8366353179967236  0.4596559179926889  1.0000
  C   C21       1.0  0.6042495808306497  0.017327321306995103  0.5836594333278247  1.0000
  C   C22       1.0  0.542253901818525  0.05741704473086484  0.5198891856938819  1.0000
  C   C23       1.0  0.49802579046602574  0.14675698569251994  0.5739578591751429  1.0000
  F   F1        1.0  0.4386434782930255  0.18553463278580873  0.5112485213993792  1.0000
  C   C24       1.0  0.5149466330273771  0.19604676901118823  0.6925602579285333  1.0000
  C   C25       1.0  0.5759427592049149  0.15570657352285888  0.7575452442324648  1.0000
  C   C26       1.0  0.6203147305833605  0.06643807366502874  0.7038812588608201  1.0000
  H   H8        1.0  0.9734781598838504  0.24553488898809506  0.5954253265350868  1.0000
  H   H9        1.0  0.7356741131555882  0.12997912206953144  0.5423839055379605  1.0000
  H   H10       1.0  0.7356718601414536  0.7127555935919944  0.5451516123103191  1.0000
  H   H11       1.0  0.9282256256025907  0.9182366682365061  0.5876838366341905  1.0000
  H   H12       1.0  0.8644076726688446  0.4728699974853088  0.5720952167665849  1.0000
  H   H13       1.0  0.5284017100410819  0.02042178896865976  0.4277330149300109  1.0000
  H   H14       1.0  0.4806901246789563  0.2650991220698409  0.7344452591434858  1.0000
  H   H15       1.0  0.5887187603672924  0.19319081745211575  0.849915172123608  1.0000
  H   H16       1.0  0.6666956134063664  0.03480861341622288  0.7570255043733962  1.0000
  C   C27       1.0  0.8364479973298377  0.41960386376137526  0.18577624843093998  1.0000
  C   C28       1.0  0.9095778772767171  0.42034593344866633  0.18445979730751616  1.0000
  C   C29       1.0  0.946462228602404  0.41923207446813127  0.06673792906574838  1.0000
  C   C30       1.0  0.9094082558071472  0.42037425299166986  0.9492142537002382  1.0000
  C   C31       1.0  0.8363091206833807  0.41975055590414523  0.9485157842111187  1.0000
  C   C32       1.0  0.8002529516334729  0.419024243448213  0.06736258415105345  1.0000
  C   C33       1.0  0.02367814236869692  0.42139961270837967  0.06509571428223682  1.0000
  O   O2        1.0  0.0543602966066854  0.4820600294748383  0.9705542506506433  1.0000
  C   C34       1.0  0.0660868576229241  0.3547432686216745  0.1706047293480295  1.0000
  C   C35       1.0  0.1315243274979152  0.40509647091522094  0.2016870893102396  1.0000
  C   C36       1.0  0.172236035424149  0.3420924094944311  0.29994408469134126  1.0000
  C   C37       1.0  0.1483625618426676  0.22782378992739605  0.367329658898333  1.0000
  C   C38       1.0  0.08384786286125068  0.17602203312785125  0.33622434174944904  1.0000
  C   C39       1.0  0.042937784169488014  0.2386476960558841  0.23806949941465216  1.0000
  H   H17       1.0  0.6984413538607946  0.4202152431941919  0.3954248241670477  1.0000
  H   H18       1.0  0.9379366906223449  0.42324943944042825  0.27505327910544275  1.0000
  H   H19       1.0  0.9377736802395056  0.4204985094604481  0.8582578329014487  1.0000
  H   H20       1.0  0.743875324330978  0.4184529623716482  0.06757323335694987  1.0000
  H   H21       1.0  0.8082278696904748  0.4206159816924484  0.6207054830689844  1.0000
  H   H22       1.0  0.15086709467564785  0.4937410314669952  0.15073468496462583  1.0000
  H   H23       1.0  0.22235053674600103  0.38189457650824177  0.32380199188591363  1.0000
  H   H24       1.0  0.17997493108843554  0.17914204053128335  0.44327502454867984  1.0000
  H   H25       1.0  0.06563806212232137  0.08691966391262063  0.3878053816992906  1.0000
  H   H26       1.0  0.9936584970986583  0.195561838660804  0.2140257289222356  1.0000
  Zn  Zn1       1.0  0.7601043568876795  0.4198053802221968  0.567161130479241  1.0000
  Zn  Zn2       1.0  0.9126461233048082  0.4195484179825488  0.5671303482649093  1.0000
  C   C40       1.0  0.836332843984509  0.4145489296180913  0.8043425061645331  1.0000
  C   C41       1.0  0.8364193022514075  0.42480650449312507  0.3299490994592358  1.0000
  C   C42       1.0  0.8364215699011762  0.6568782413561136  0.5619345241932008  1.0000
  C   C43       1.0  0.8363305239700751  0.18247563248839693  0.5723571509188485  1.0000
  O   O3        1.0  0.8942984762080102  0.42644937644073533  0.3783231444774824  1.0000
  O   O4        1.0  0.8942293410418407  0.41271004944099987  0.7559447244610304  1.0000
  O   O5        1.0  0.8943002077270311  0.6083940349161363  0.5601985638931362  1.0000
  O   O6        1.0  0.8942275574901615  0.23076540032516601  0.5740692076795668  1.0000
  O   O7        1.0  0.7785228706473093  0.6085883979686806  0.5602222710682563  1.0000
  O   O8        1.0  0.7784520042717672  0.41290597284935093  0.7559683621515438  1.0000
  O   O9        1.0  0.7785211397597644  0.42664525429087696  0.37834522077065347  1.0000
  O   O10       1.0  0.778450221019557  0.23096126890484125  0.574091381342221  1.0000
