data_image0
_chemical_formula_structural       NC10NC3NCH9C7OC4NC3H9C7OC3OC4H12Zn2C4O8
_chemical_formula_sum              "N4 C46 H30 O11 Zn2"
_cell_length_a       19.437513618241372
_cell_length_b       10.299371701877257
_cell_length_c       10.299374482448636
_cell_angle_alpha    85.56746279880974
_cell_angle_beta     90.32903884356655
_cell_angle_gamma    89.53225479237402

_space_group_name_H-M_alt    "P 1"
_space_group_IT_number       1

loop_
  _space_group_symop_operation_xyz
  'x, y, z'

loop_
  _atom_site_type_symbol
  _atom_site_label
  _atom_site_symmetry_multiplicity
  _atom_site_fract_x
  _atom_site_fract_y
  _atom_site_fract_z
  _atom_site_occupancy
  N   N1        1.0  0.6482157869729355  0.4108141616102301  0.5761984264430344  1.0000
  C   C1        1.0  0.5892844497328404  0.42782497252292817  0.5732297720712185  1.0000
  C   C2        1.0  0.5158464715519295  0.4490784161416075  0.5695449544539934  1.0000
  C   C3        1.0  0.4740758880366429  0.347892487324861  0.5578408969870579  1.0000
  C   C4        1.0  0.3981877987075546  0.35795932192753876  0.550623716871234  1.0000
  C   C5        1.0  0.3586129664668324  0.4387879250326874  0.6164039201147238  1.0000
  C   C6        1.0  0.2824309773397479  0.4301822190799982  0.6079557551495036  1.0000
  C   C7        1.0  0.2492829891877064  0.3088369138287319  0.6125460791052961  1.0000
  C   C8        1.0  0.1775485891603794  0.30246732549163236  0.605374982623164  1.0000
  C   C9        1.0  0.1379914611972145  0.4169702521340821  0.593975598963745  1.0000
  C   C10       1.0  0.0641425763043344  0.4102625361045633  0.5866362570783892  1.0000
  N   N2        1.0  0.004773170879687  0.4048701223415696  0.5807358848825419  1.0000
  C   C11       1.0  0.17042273229521904  0.5380047640354453  0.5901304402954457  1.0000
  C   C12       1.0  0.2421415539378489  0.5446283233194134  0.5973636716993007  1.0000
  C   C13       1.0  0.38729483310827834  0.5310449720582102  0.7063673926712568  1.0000
  N   N3        1.0  0.44428862367370836  0.5942633051140207  0.6859902248138039  1.0000
  C   C14       1.0  0.4881417888138455  0.5850368795432468  0.5728747669240413  1.0000
  H   H1        1.0  0.4964518610080406  0.2528406322580967  0.5456775938878671  1.0000
  H   H2        1.0  0.3734735747905806  0.2884654902799515  0.49227312008955426  1.0000
  H   H3        1.0  0.2787230703044963  0.21892232705538106  0.6235278678237386  1.0000
  H   H4        1.0  0.1529451826893357  0.20824054860049612  0.6092209616981514  1.0000
  H   H5        1.0  0.1402970310023945  0.6272637362646436  0.581460590520581  1.0000
  H   H6        1.0  0.266263481586509  0.6392679016047083  0.5935024133492808  1.0000
  H   H7        1.0  0.3572837103958657  0.5514044428627796  0.7907458444799229  1.0000
  H   H8        1.0  0.5309007194857137  0.6553470389144824  0.5786691989816872  1.0000
  H   H9        1.0  0.458488170536606  0.6131733393780339  0.48223844913157343  1.0000
  C   C15       1.0  0.8264618110739989  0.026472255515377352  0.578339761639068  1.0000
  C   C16       1.0  0.8298275504149494  0.03578947762754914  0.44171572406985615  1.0000
  C   C17       1.0  0.830743933739389  0.9233329519715631  0.3727340058436306  1.0000
  C   C18       1.0  0.8298360078420141  0.8005209455425685  0.4420332321600622  1.0000
  C   C19       1.0  0.826533739792483  0.7892018514313248  0.5786058928795532  1.0000
  C   C20       1.0  0.8246847365861372  0.9027819999048419  0.6459508149666424  1.0000
  C   C21       1.0  0.8350204669412301  0.9330154787202183  0.22853635559803154  1.0000
  O   O1        1.0  0.8681429387035644  0.8467295221607508  0.17401120426201344  1.0000
  C   C22       1.0  0.8017100371280881  0.040503511079034604  0.14619908324213227  1.0000
  C   C23       1.0  0.8311960942796236  0.0846847219626139  0.026602312465308753  1.0000
  C   C24       1.0  0.7996996605543307  0.185131712615473  0.9474095735675867  1.0000
  C   C25       1.0  0.8305208078138901  0.2304752365561482  0.8256436121941433  1.0000
  N   N4        1.0  0.8552996358536447  0.2669218190584406  0.727761476351398  1.0000
  C   C26       1.0  0.7382036866745865  0.24132579302621715  0.9867994073097455  1.0000
  C   C27       1.0  0.7081371365567716  0.19694404548840616  0.1046492158420147  1.0000
  C   C28       1.0  0.7394360328687017  0.09679782508272816  0.18382804313255585  1.0000
  H   H10       1.0  0.8211682656543671  0.21618689693063575  0.8362641346901862  1.0000
  H   H11       1.0  0.8325108998419262  0.13068103039505807  0.38886248283988434  1.0000
  H   H12       1.0  0.8310523612780407  0.7136757276506837  0.38903568403874367  1.0000
  H   H13       1.0  0.8220903738668088  0.8947952044707351  0.7512782146216987  1.0000
  H   H14       1.0  0.8258442244448307  0.45738349378438586  0.631123148028476  1.0000
  H   H15       1.0  0.8789137103307255  0.04180557875185675  0.9956322125446344  1.0000
  H   H16       1.0  0.713411816499918  0.31896962242512616  0.9262435495566157  1.0000
  H   H17       1.0  0.6603022373208339  0.23984160288959488  0.13446480038394926  1.0000
  H   H18       1.0  0.7145649270600151  0.062481159591306845  0.27366917432993665  1.0000
  C   C29       1.0  0.826561517297717  0.4079234912497727  0.19709113494795405  1.0000
  C   C30       1.0  0.8984268296945978  0.4213898033101282  0.19563940713099748  1.0000
  C   C31       1.0  0.9345869350597377  0.42965467645531974  0.07761881551035321  1.0000
  C   C32       1.0  0.8982623721189847  0.4213286739907778  0.9603984413101387  1.0000
  C   C33       1.0  0.8264340222153239  0.4077506231435317  0.9598544790270993  1.0000
  C   C34       1.0  0.7909797738827116  0.4014679523042435  0.07871222139950107  1.0000
  C   C35       1.0  0.010552358631650272  0.4425143083604197  0.07605143871511366  1.0000
  O   O2        1.0  0.04430122806258696  0.38840952058694556  0.9906151724407026  1.0000
  C   C36       1.0  0.04822848072008412  0.5167677859383888  0.17132476021969412  1.0000
  C   C37       1.0  0.11534902449301998  0.4789309023401642  0.21033044015889724  1.0000
  C   C38       1.0  0.15210460303069384  0.5485823861097896  0.2990259572030032  1.0000
  O   O3        1.0  0.21866587879417154  0.5055804571792399  0.3351516761260822  1.0000
  C   C39       1.0  0.261777983735197  0.5667325865304964  0.4241141545538756  1.0000
  C   C40       1.0  0.12135930780931004  0.6584818071430585  0.34858738930893063  1.0000
  C   C41       1.0  0.05504216641183657  0.6976385134869103  0.30908184266302796  1.0000
  C   C42       1.0  0.018683659368015082  0.62774740045457  0.22063233021580464  1.0000
  H   H19       1.0  0.6910602538757707  0.380521413682936  0.4073074532934944  1.0000
  H   H20       1.0  0.9264482649977831  0.42401465620453793  0.28658835904894664  1.0000
  H   H21       1.0  0.9261253587084612  0.4267197692010518  0.8693614452202163  1.0000
  H   H22       1.0  0.735576868510792  0.39108555814184465  0.07902768174446573  1.0000
  H   H23       1.0  0.7989055513671266  0.4014499649328711  0.6322730260447162  1.0000
  H   H24       1.0  0.13920085696663786  0.39422098954117724  0.17272614801611486  1.0000
  H   H25       1.0  0.31129662753322207  0.512549748949642  0.434684453446478  1.0000
  H   H26       1.0  0.23693405783048305  0.5653458130207081  0.5210320732719234  1.0000
  H   H27       1.0  0.2723649431399031  0.6685620679405009  0.38662281179871116  1.0000
  H   H28       1.0  0.1483252440211047  0.7144701181896629  0.41714112950278404  1.0000
  H   H29       1.0  0.03183652918736857  0.7828267045274648  0.3467234592618009  1.0000
  H   H30       1.0  0.9678108006957945  0.6613223421867156  0.18977214050796354  1.0000
  Zn  Zn1       1.0  0.7511105498295517  0.409095349349895  0.577515346922669  1.0000
  Zn  Zn2       1.0  0.9018784114432921  0.40657826261018437  0.5794296309100626  1.0000
  C   C43       1.0  0.8264561052288665  0.4026096437774662  0.8156740857085933  1.0000
  C   C44       1.0  0.8265345025575577  0.41306557929060017  0.34127104107053996  1.0000
  C   C45       1.0  0.8265174656756945  0.645030969801935  0.5733802018391325  1.0000
  C   C46       1.0  0.8264730905054845  0.170642693803148  0.5835649929833091  1.0000
  O   O4        1.0  0.8837410533787878  0.4138304239562882  0.3903855934849032  1.0000
  O   O5        1.0  0.8836788728117113  0.39993340887771023  0.7680120563467321  1.0000
  O   O6        1.0  0.883727650628933  0.5956917080493849  0.5723580215307091  1.0000
  O   O7        1.0  0.8836922241318592  0.21807213495583544  0.5860395302730215  1.0000
  O   O8        1.0  0.769296685691314  0.5976014778646179  0.5709054468996284  1.0000
  O   O9        1.0  0.7692479080296669  0.40184473901629936  0.7665594130122608  1.0000
  O   O10       1.0  0.7693100888992105  0.41574170919189646  0.3889313886822132  1.0000
  O   O11       1.0  0.7692612596323182  0.21998341088059492  0.5845854228381544  1.0000
