data_image0
_chemical_formula_structural       NC11NC3H8C7OC4NC3H9C6SCOC6H10Zn2C4O8
_chemical_formula_sum              "N3 C45 H27 O10 S1 Zn2"
_cell_length_a       17.807433833752565
_cell_length_b       10.299371701877257
_cell_length_c       10.302041481415108
_cell_angle_alpha    85.56120269447774
_cell_angle_beta     88.52108606055918
_cell_angle_gamma    90.69533246875125

_space_group_name_H-M_alt    "P 1"
_space_group_IT_number       1

loop_
  _space_group_symop_operation_xyz
  'x, y, z'

loop_
  _atom_site_type_symbol
  _atom_site_label
  _atom_site_symmetry_multiplicity
  _atom_site_fract_x
  _atom_site_fract_y
  _atom_site_fract_z
  _atom_site_occupancy
  N   N1        1.0  0.7076135062278059  0.4389834061237321  0.5354895304757965  1.0000
  C   C1        1.0  0.6567880803000744  0.40423377161980567  0.6020248663607703  1.0000
  C   C2        1.0  0.5935561254187326  0.36100809168647263  0.6847863328020596  1.0000
  C   C3        1.0  0.6052723233024426  0.2974156434614854  0.8074551169726205  1.0000
  C   C4        1.0  0.5439480161788132  0.25587052644418296  0.8879337553700895  1.0000
  C   C5        1.0  0.47075310843055856  0.2776043686288807  0.846384152693024  1.0000
  C   C6        1.0  0.4580601495467422  0.3413515263556204  0.7232553277298739  1.0000
  C   C7        1.0  0.3802972589049358  0.36441644441728394  0.6789261599972973  1.0000
  C   C8        1.0  0.3615165541776449  0.3475884848792061  0.5493682722175908  1.0000
  C   C9        1.0  0.28829170147833866  0.3692836140154143  0.507774593897043  1.0000
  C   C10       1.0  0.2329045418244895  0.4081255119624909  0.5949188231979325  1.0000
  C   C11       1.0  0.15754308421859933  0.4304795742123424  0.5519643847262159  1.0000
  N   N2        1.0  0.0969578454629285  0.44845057955988965  0.5174321423984303  1.0000
  C   C12       1.0  0.2509937237337477  0.4251642309124162  0.7239457687961832  1.0000
  C   C13       1.0  0.32416580200516515  0.40343408428402716  0.7657948078118475  1.0000
  C   C14       1.0  0.520241767499246  0.3828920728103662  0.6427930999230125  1.0000
  H   H1        1.0  0.6617351259391645  0.27998969665491247  0.8408071101026091  1.0000
  H   H2        1.0  0.5531376282210523  0.20638568429044124  0.982631429263729  1.0000
  H   H3        1.0  0.4241080148278648  0.24302653045678912  0.9097969523320184  1.0000
  H   H4        1.0  0.4031940859832918  0.3159700795914575  0.480655585353184  1.0000
  H   H5        1.0  0.2748523495348046  0.3554370725505953  0.40775711766443634  1.0000
  H   H6        1.0  0.20859930048268183  0.45555978279514875  0.7921433642057629  1.0000
  H   H7        1.0  0.3370768876240121  0.41882610095631856  0.8656301210064399  1.0000
  H   H8        1.0  0.5117507652662489  0.43373919044408615  0.5483301763893618  1.0000
  C   C15       1.0  0.9022499748015498  0.062345732718050106  0.5263355035096771  1.0000
  C   C16       1.0  0.9059053176965907  0.07182291790460638  0.3895333319914469  1.0000
  C   C17       1.0  0.9068959251451083  0.9594133143732345  0.32051128853448074  1.0000
  C   C18       1.0  0.9059145990129431  0.8365547177228667  0.3898502224989997  1.0000
  C   C19       1.0  0.9023285562636238  0.8250784094501504  0.5265970084339371  1.0000
  C   C20       1.0  0.9003193341696688  0.9385714979937616  0.5940417735276164  1.0000
  C   C21       1.0  0.9115447092506378  0.9692959749758941  0.1760797385975117  1.0000
  O   O1        1.0  0.9477049331881766  0.8844474756024477  0.1194697593370797  1.0000
  C   C22       1.0  0.8751593254546977  0.07535293440407176  0.09587440659283875  1.0000
  C   C23       1.0  0.9073392877062487  0.120821321145411  0.9744399714293555  1.0000
  C   C24       1.0  0.8729351587681708  0.21991531321618352  0.8972634176542025  1.0000
  C   C25       1.0  0.9065726600421325  0.2666039505529221  0.7735757499559055  1.0000
  N   N3        1.0  0.933615712909772  0.3041319429447702  0.6741486447642022  1.0000
  C   C26       1.0  0.8057902210257886  0.27344713204466276  0.9405398993427694  1.0000
  C   C27       1.0  0.7729761338927656  0.22775330276430594  0.060264605353236966  1.0000
  C   C28       1.0  0.8071645593722753  0.12895154410978704  0.13743976833694949  1.0000
  H   H9        1.0  0.8965072133769368  0.25180422527135393  0.7845289691728594  1.0000
  H   H10       1.0  0.9088277151543414  0.1668360579321957  0.33652365084102764  1.0000
  H   H11       1.0  0.9072350858144184  0.7497676933363848  0.33678922984980275  1.0000
  H   H12       1.0  0.8975017429166467  0.9304613989597881  0.6995064775271431  1.0000
  H   H13       1.0  0.9015832816265761  0.49322468112489964  0.5791444478057222  1.0000
  H   H14       1.0  0.9594401412423325  0.0800079948105874  0.9404541430630404  1.0000
  H   H15       1.0  0.7787098680802315  0.3500257835113263  0.8815705889942227  1.0000
  H   H16       1.0  0.7207470446872056  0.26858009625955925  0.09310364710702168  1.0000
  H   H17       1.0  0.7800195733134367  0.09355033254900791  0.22883378441055902  1.0000
  C   C29       1.0  0.9023033632243309  0.443841693514224  0.14517861923694397  1.0000
  C   C30       1.0  0.9367574140768291  0.567778167570363  0.13271049238355515  1.0000
  C   C31       1.0  0.9542347993491899  0.6289293887720944  0.009535706708050595  1.0000
  C   C32       1.0  0.9368286733119803  0.5673760368079466  0.8976016351155289  1.0000
  C   C33       1.0  0.9022751883109088  0.44358244898399235  0.9077539269873647  1.0000
  C   C34       1.0  0.885246825423046  0.3824035905271699  0.032101300543142974  1.0000
  S   S1        1.0  0.9989196410566966  0.7865491945018033  0.9949951481130794  1.0000
  C   C35       1.0  0.09145727900445322  0.7189984428573932  0.9932474833138429  1.0000
  O   O2        1.0  0.12085591089640668  0.6965404806135087  0.8848156802596496  1.0000
  C   C36       1.0  0.1328630135931943  0.6886624936512171  0.11484073574959686  1.0000
  C   C37       1.0  0.19950079319841896  0.6165592944637979  0.111916779692802  1.0000
  C   C38       1.0  0.23865385479709267  0.5866145071801285  0.2260422296439839  1.0000
  C   C39       1.0  0.21196654905423795  0.628313210237085  0.34423225599534457  1.0000
  C   C40       1.0  0.14613619977335945  0.7002772314485568  0.3484989757552872  1.0000
  C   C41       1.0  0.10675893764896482  0.7305907026901513  0.23468346006880458  1.0000
  H   H18       1.0  0.8372509296225243  0.21035348908395335  0.3759924813762938  1.0000
  H   H19       1.0  0.9502582953852649  0.6170343423345137  0.2184156770658494  1.0000
  H   H20       1.0  0.9506479498433683  0.6163084225061835  0.8030062375177471  1.0000
  H   H21       1.0  0.8586869520127812  0.2868572257833173  0.04079270196451312  1.0000
  H   H22       1.0  0.8893430747218176  0.3963512498986381  0.584278131511033  1.0000
  H   H23       1.0  0.22119819332700708  0.5826288992659601  0.021579842887979872  1.0000
  H   H24       1.0  0.28971570255796775  0.5308714984675127  0.22280720101928386  1.0000
  H   H25       1.0  0.24234336379810695  0.6050006104664543  0.4324771148086419  1.0000
  H   H26       1.0  0.12560521660089274  0.7328489477308306  0.44013537107115464  1.0000
  H   H27       1.0  0.05626730764912402  0.7872896357485084  0.24111962852302926  1.0000
  Zn  Zn1       1.0  0.8199698713945502  0.441711950670594  0.5302860400701823  1.0000
  Zn  Zn2       1.0  0.9846014640501763  0.44571141175584006  0.5226462129205118  1.0000
  C   C42       1.0  0.9022782853636631  0.4384577150266462  0.7636091446972633  1.0000
  C   C43       1.0  0.9022948480170409  0.44896732966045905  0.2893231528678599  1.0000
  C   C44       1.0  0.9023100251696391  0.6809073783573811  0.5213736927188746  1.0000
  C   C45       1.0  0.9022630518705012  0.2065161046289563  0.5315586761420954  1.0000
  O   O3        1.0  0.9647688210800346  0.45219964883544406  0.3348000986004043  1.0000
  O   O4        1.0  0.9647558817234253  0.4382599146724575  0.7123333728294152  1.0000
  O   O5        1.0  0.9647806697506619  0.6340410630872362  0.5167265710480133  1.0000
  O   O6        1.0  0.9647439768797446  0.25641850837929514  0.5304068056380313  1.0000
  O   O7        1.0  0.8398273023842999  0.6310048526837351  0.5225254499529315  1.0000
  O   O8        1.0  0.8398025145169445  0.4352252646063208  0.7181321830387564  1.0000
  O   O9        1.0  0.8398154539765811  0.44916495404492807  0.3405973477239832  1.0000
  O   O10       1.0  0.839790609768662  0.25338380426674534  0.5362041521056544  1.0000
