data_image0
_chemical_formula_structural       NC12NC2H8C7OC3OC4H12C7OC6H10Zn2C4O8
_chemical_formula_sum              "N2 C45 H30 O11 Zn2"
_cell_length_a       19.240039667572717
_cell_length_b       10.299371110280156
_cell_length_c       10.299382801718286
_cell_angle_alpha    85.58971110706742
_cell_angle_beta     89.98040902502626
_cell_angle_gamma    90.01145957794125

_space_group_name_H-M_alt    "P 1"
_space_group_IT_number       1

loop_
  _space_group_symop_operation_xyz
  'x, y, z'

loop_
  _atom_site_type_symbol
  _atom_site_label
  _atom_site_symmetry_multiplicity
  _atom_site_fract_x
  _atom_site_fract_y
  _atom_site_fract_z
  _atom_site_occupancy
  N   N1        1.0  0.6548913802388816  0.421020466050094  0.5679514602913593  1.0000
  C   C1        1.0  0.5947430114455824  0.4210205500168638  0.5679513783840222  1.0000
  C   C2        1.0  0.5199249743420976  0.42102066727815846  0.5679512411206442  1.0000
  C   C3        1.0  0.4834254368929806  0.3565738652802093  0.6713405590286028  1.0000
  C   C4        1.0  0.4107546610897493  0.35646299915844004  0.6714270620604543  1.0000
  C   C5        1.0  0.3735927394563396  0.4210207598023239  0.5679510134713923  1.0000
  C   C6        1.0  0.4108064961945486  0.48557870746912224  0.4644751594897516  1.0000
  C   C7        1.0  0.4834771569074217  0.4854676058688612  0.464561784938724  1.0000
  C   C8        1.0  0.2963876490257576  0.4210206811233015  0.567950918027694  1.0000
  C   C9        1.0  0.2591800580090172  0.30776686952551535  0.609781302469607  1.0000
  C   C10       1.0  0.1865093977771286  0.3078737537316769  0.6096900150228677  1.0000
  C   C11       1.0  0.1500553620775914  0.4210205519607704  0.5679509788919863  1.0000
  C   C12       1.0  0.0752373248649602  0.42102043826252333  0.5679512275126171  1.0000
  N   N2        1.0  0.0150890079703494  0.4210203974766764  0.5679514359177502  1.0000
  C   C13       1.0  0.1865488372524604  0.53416742600829  0.52621188989732  1.0000
  C   C14       1.0  0.25921956167161686  0.5342744903068444  0.5261204399200146  1.0000
  H   H1        1.0  0.5111201857172704  0.3066778726287269  0.7520641520293123  1.0000
  H   H2        1.0  0.3836411184327737  0.30736529901583287  0.7532664486559895  1.0000
  H   H3        1.0  0.3837335080755964  0.534676434655065  0.382635722055356  1.0000
  H   H4        1.0  0.5112121794850117  0.5353634983074227  0.38383846769811947  1.0000
  H   H5        1.0  0.2862580888708878  0.21861663556123712  0.64091714149797  1.0000
  H   H6        1.0  0.15877921864868338  0.21962289281996283  0.641859143542016  1.0000
  H   H7        1.0  0.1588491929278273  0.622418262385652  0.4940427759198718  1.0000
  H   H8        1.0  0.286328009643622  0.6234248034400549  0.4949845561483066  1.0000
  C   C15       1.0  0.8349466943600284  0.03964902263277925  0.5678366288800629  1.0000
  C   C16       1.0  0.8269635064621658  0.04891302713730927  0.4318531655388429  1.0000
  C   C17       1.0  0.8221518943197769  0.9363986448447965  0.3634350566312925  1.0000
  C   C18       1.0  0.8269979482237452  0.813645199883372  0.4321642477529133  1.0000
  C   C19       1.0  0.8350403713151997  0.8023818850695159  0.5680774782130003  1.0000
  C   C20       1.0  0.8387862322309771  0.9159807997869303  0.6351649003563644  1.0000
  C   C21       1.0  0.8144470557924157  0.9460527289670594  0.21968977153081082  1.0000
  O   O1        1.0  0.8429493195190599  0.8610029813132047  0.15566759745349001  1.0000
  C   C22       1.0  0.774400101430094  0.05210965023339664  0.14857979976391644  1.0000
  C   C23       1.0  0.7938503578170907  0.09724788899797265  0.021438776281601513  1.0000
  C   C24       1.0  0.7562697050334029  0.19624928293986565  0.9520588219782296  1.0000
  O   O2        1.0  0.7784827438108476  0.23803505751797194  0.8259624959798786  1.0000
  C   C25       1.0  0.745367834752097  0.3375062077061961  0.7445284970602342  1.0000
  C   C26       1.0  0.69795626524949  0.2501181123965308  0.010546214690513755  1.0000
  C   C27       1.0  0.6777927307256424  0.2046897755503969  0.13617019766548522  1.0000
  C   C28       1.0  0.7154968606249504  0.10596955344838732  0.2047979834287028  1.0000
  H   H9        1.0  0.8510724553838476  0.22950629004978595  0.8242264926305016  1.0000
  H   H10       1.0  0.8252522263122228  0.14383839110715413  0.3788240897256079  1.0000
  H   H11       1.0  0.8238120170081967  0.7267758335735743  0.37944243678246026  1.0000
  H   H12       1.0  0.8449411324949188  0.9080351298810668  0.7399981867728058  1.0000
  H   H13       1.0  0.8387080467441567  0.47060770683301617  0.6201637140606837  1.0000
  H   H14       1.0  0.8387963873864429  0.05634409028675669  0.9760664746735941  1.0000
  H   H15       1.0  0.7737370434327113  0.3505813173977719  0.6506587406174402  1.0000
  H   H16       1.0  0.7463832067756635  0.43097094378543854  0.7915469883363282  1.0000
  H   H17       1.0  0.6909034672842835  0.3092695060196431  0.7247645258752051  1.0000
  H   H18       1.0  0.6677761714963242  0.32660864540252255  0.9596583657759226  1.0000
  H   H19       1.0  0.6325842452329462  0.2457547700855256  0.18032078188620337  1.0000
  H   H20       1.0  0.6981412507870511  0.0708377819518291  0.30117549906149477  1.0000
  C   C29       1.0  0.8350628522442377  0.4209422240558658  0.18658723335558625  1.0000
  C   C30       1.0  0.9080801802502654  0.4218056845054323  0.18528384086040228  1.0000
  C   C31       1.0  0.9449078671407566  0.4207531039295942  0.06756786123549352  1.0000
  C   C32       1.0  0.907910817757967  0.42183372142171294  0.9500382810492622  1.0000
  C   C33       1.0  0.8349241790747548  0.4210886804156839  0.9493268137763775  1.0000
  C   C34       1.0  0.7989235279410376  0.4203025298986327  0.06816700625453276  1.0000
  C   C35       1.0  0.022004844362655707  0.4230487663521476  0.0659400836251196  1.0000
  O   O3        1.0  0.052635594306029265  0.4837579713540501  0.9714323943769876  1.0000
  C   C36       1.0  0.06435293894262051  0.35646519919090114  0.17142521694714175  1.0000
  C   C37       1.0  0.1296862524456559  0.40692525962058745  0.2025425594233905  1.0000
  C   C38       1.0  0.17033969720373965  0.3439910279551477  0.3007770905300089  1.0000
  C   C39       1.0  0.14651086885388587  0.22968682740548108  0.3681049387821669  1.0000
  C   C40       1.0  0.08209900707350704  0.17777979595771654  0.3369641203300717  1.0000
  C   C41       1.0  0.04124752294065348  0.24033531320798462  0.23883153037330107  1.0000
  H   H21       1.0  0.6972684711194553  0.4213244501828315  0.39621210882320623  1.0000
  H   H22       1.0  0.936395166144421  0.4247561714044643  0.27588361305232145  1.0000
  H   H23       1.0  0.9362325971773509  0.42200506842449803  0.8590868487018741  1.0000
  H   H24       1.0  0.7426326696491038  0.4196376656624643  0.06836758861648806  1.0000
  H   H25       1.0  0.8068860673447006  0.4219074523523405  0.6215120376019598  1.0000
  H   H26       1.0  0.1489931200857635  0.4955987883847721  0.15163507933722298  1.0000
  H   H27       1.0  0.22037434569842151  0.38387498698457345  0.32466236994805375  1.0000
  H   H28       1.0  0.17807798047270262  0.18105929181188718  0.444032973827601  1.0000
  H   H29       1.0  0.06392339468252328  0.0886503558375491  0.38850021829099646  1.0000
  H   H30       1.0  0.9920470313996206  0.19716916705420062  0.21475899321981173  1.0000
  Zn  Zn1       1.0  0.7588366422896684  0.42101698047417857  0.5679589406063401  1.0000
  Zn  Zn2       1.0  0.911143761463059  0.42101329153792144  0.5679545511826152  1.0000
  C   C42       1.0  0.83494822636615  0.41588727815074544  0.8051511009948058  1.0000
  C   C43       1.0  0.8350338407536498  0.4261446324758804  0.3307625187303618  1.0000
  C   C44       1.0  0.8350200217777437  0.6582081356401221  0.5628567540762162  1.0000
  C   C45       1.0  0.8349619931660769  0.18382221468823912  0.5730569343965761  1.0000
  O   O4        1.0  0.8928238615076609  0.42788354255554784  0.3791473940072472  1.0000
  O   O5        1.0  0.8927557848655339  0.41414458845310453  0.7567625200906165  1.0000
  O   O6        1.0  0.892812981154524  0.6098217457194355  0.5611081211299827  1.0000
  O   O7        1.0  0.892766613265409  0.2322063945620625  0.5748016955974151  1.0000
  O   O8        1.0  0.7772137385123749  0.6098238774527089  0.5611117961862071  1.0000
  O   O9        1.0  0.7771565424244202  0.41414828048731334  0.7567661263938832  1.0000
  O   O10       1.0  0.7772246193910375  0.4278871890336988  0.37914943889186703  1.0000
  O   O11       1.0  0.7771673711271037  0.23221003177003885  0.574803837847168  1.0000
