data_image0
_chemical_formula_structural       NC12NC2H8C7OC4NC3H9C7OC6H10Zn2C4O8
_chemical_formula_sum              "N3 C45 H27 O10 Zn2"
_cell_length_a       19.240039667572717
_cell_length_b       10.299371701877257
_cell_length_c       10.299382801718286
_cell_angle_alpha    85.59153606020502
_cell_angle_beta     89.98040902502626
_cell_angle_gamma    90.00851160782973

_space_group_name_H-M_alt    "P 1"
_space_group_IT_number       1

loop_
  _space_group_symop_operation_xyz
  'x, y, z'

loop_
  _atom_site_type_symbol
  _atom_site_label
  _atom_site_symmetry_multiplicity
  _atom_site_fract_x
  _atom_site_fract_y
  _atom_site_fract_z
  _atom_site_occupancy
  N   N1        1.0  0.6548522330258079  0.42101687953873546  0.5679968822363672  1.0000
  C   C1        1.0  0.5947038642301955  0.42101696350529316  0.5679968003317142  1.0000
  C   C2        1.0  0.5198858271234804  0.4210170807662923  0.5679966630720841  1.0000
  C   C3        1.0  0.4833880650975541  0.3565704414255271  0.6713839209821988  1.0000
  C   C4        1.0  0.41071729234853593  0.35645957558357244  0.6714704204702906  1.0000
  C   C5        1.0  0.3735535922351735  0.4210171732902239  0.5679964354257894  1.0000
  C   C6        1.0  0.41076557048827733  0.48557495801931805  0.46452264499468776  1.0000
  C   C7        1.0  0.48343623426185095  0.485463856699466  0.46460926689237403  1.0000
  C   C8        1.0  0.2963485018067589  0.42101709461140024  0.5679963399795764  1.0000
  C   C9        1.0  0.2591440307810392  0.30776356885473377  0.6098231043410438  1.0000
  C   C10       1.0  0.18647336760463368  0.3078704527911309  0.6097318203107844  1.0000
  C   C11       1.0  0.1500162148621512  0.4210169654491951  0.5679964008397396  1.0000
  C   C12       1.0  0.0751981776526521  0.42101685175123493  0.5679966494567368  1.0000
  N   N2        1.0  0.015049860759164998  0.42101681096549104  0.5679968578605665  1.0000
  C   C13       1.0  0.1865065729919862  0.5341635539254939  0.5262609285073343  1.0000
  C   C14       1.0  0.2591772944616644  0.5342706179538288  0.5261694819522655  1.0000
  H   H1        1.0  0.5110841884897  0.306674574706463  0.7521059190917094  1.0000
  H   H2        1.0  0.383605102267526  0.307361999358575  0.7533082376915001  1.0000
  H   H3        1.0  0.3836912297926147  0.5346725612875829  0.38268477693548286  1.0000
  H   H4        1.0  0.5111698822743453  0.5353596232058615  0.3838875445397647  1.0000
  H   H5        1.0  0.2862245176126075  0.21861355989659392  0.640956093743295  1.0000
  H   H6        1.0  0.15874561966936168  0.21961981461562763  0.6418981279516642  1.0000
  H   H7        1.0  0.15880449747485567  0.6224141675667068  0.4940946354073701  1.0000
  H   H8        1.0  0.2862832864617907  0.6234207060807022  0.49503644780919953  1.0000
  C   C15       1.0  0.834918053420096  0.03964639866421771  0.5678698605483332  1.0000
  C   C16       1.0  0.838319922238652  0.04896213840868935  0.4312075387433627  1.0000
  C   C17       1.0  0.8392465534276666  0.9364918156349966  0.36221645467663777  1.0000
  C   C18       1.0  0.8383284619074148  0.8136938810672482  0.4315249286413192  1.0000
  C   C19       1.0  0.8349907130622837  0.8023773054413812  0.5681350675968044  1.0000
  C   C20       1.0  0.8331219614616939  0.9159550188992454  0.6355012781333418  1.0000
  C   C21       1.0  0.843568612892869  0.9461848471430454  0.21796918185308178  1.0000
  O   O1        1.0  0.877029957485023  0.8604279094841083  0.1630243421285107  1.0000
  C   C22       1.0  0.8099191609137247  0.05308305435655303  0.13605854447534504  1.0000
  C   C23       1.0  0.8397078058697537  0.09770526101181387  0.016090526378104597  1.0000
  C   C24       1.0  0.8078908295281356  0.19759398240959802  0.9373012336416138  1.0000
  C   C25       1.0  0.8390282234012582  0.2433998376970099  0.8151471073294996  1.0000
  N   N3        1.0  0.8640612994578314  0.28021811915557615  0.7169529037766149  1.0000
  C   C26       1.0  0.7457664958754646  0.2527798130636263  0.9774723289910154  1.0000
  C   C27       1.0  0.7153914539295667  0.20794665949623603  0.09570083009656205  1.0000
  C   C28       1.0  0.7470088762559868  0.10835541046369213  0.1744787254687532  1.0000
  H   H9        1.0  0.8295671279327957  0.22938151098634685  0.8258530134885522  1.0000
  H   H10       1.0  0.8410313510380528  0.14387613761793472  0.37832190924109743  1.0000
  H   H11       1.0  0.8395579191117356  0.7268466008828168  0.3785136654380321  1.0000
  H   H12       1.0  0.8304997493945581  0.907969372640038  0.7408581873387945  1.0000
  H   H13       1.0  0.8342934789726874  0.47056958760438783  0.6206593494866881  1.0000
  H   H14       1.0  0.8879130010430031  0.05560829521623689  0.9845142223627894  1.0000
  H   H15       1.0  0.7207222931467687  0.32998496033520364  0.9172339776537326  1.0000
  H   H16       1.0  0.6670677930828498  0.25005959841004044  0.1261241496524219  1.0000
  H   H17       1.0  0.7218826842805646  0.07366211969773673  0.2646333662658207  1.0000
  C   C29       1.0  0.8350237071866262  0.42093863774198215  0.18663265279964247  1.0000
  C   C30       1.0  0.9080410114054734  0.42180209601226193  0.18532928790437952  1.0000
  C   C31       1.0  0.9448687272931519  0.4207495180930303  0.06761327463445399  1.0000
  C   C32       1.0  0.9078716481407956  0.42183013285778026  0.9500837289894206  1.0000
  C   C33       1.0  0.8348850299824664  0.4210850937321595  0.949372237901811  1.0000
  C   C34       1.0  0.7988844005061445  0.420298945199272  0.06821240525120364  1.0000
  C   C35       1.0  0.021965641272621905  0.42304517472156533  0.06598557040335606  1.0000
  O   O2        1.0  0.05259471875860222  0.4837542264995991  0.9714798216833422  1.0000
  C   C36       1.0  0.06431557014079958  0.3564617756104811  0.17146857542730087  1.0000
  C   C37       1.0  0.1296474935366656  0.4069217086840986  0.20258753082478775  1.0000
  C   C38       1.0  0.17030267204865046  0.34398763585826897  0.3008200502818359  1.0000
  C   C39       1.0  0.1464769926266276  0.22968372380079738  0.3681442448785852  1.0000
  C   C40       1.0  0.0820665608155342  0.17777682336110945  0.33700176725381437  1.0000
  C   C41       1.0  0.041213353361855054  0.24033218272760415  0.2388711768412679  1.0000
  H   H18       1.0  0.6972293155320255  0.42132086290424775  0.3962575404848585  1.0000
  H   H19       1.0  0.9363559160176618  0.42475257546456446  0.2759291544065898  1.0000
  H   H20       1.0  0.936193422839799  0.4220014794281033  0.859132302119022  1.0000
  H   H21       1.0  0.7425935605303312  0.41963408264115354  0.06841296636122962  1.0000
  H   H22       1.0  0.8068468956963408  0.42190386360231846  0.621557487898877  1.0000
  H   H23       1.0  0.14895191833966592  0.4955950136453011  0.15168288512717676  1.0000
  H   H24       1.0  0.22033622179361023  0.3838714942246322  0.3247066045632887  1.0000
  H   H25       1.0  0.17804544386900578  0.18105631093816532  0.44407072557818106  1.0000
  H   H26       1.0  0.06389340382140585  0.08864760819459838  0.3885350162532899  1.0000
  H   H27       1.0  0.9920140509904093  0.19716614552078982  0.21479725991151022  1.0000
  Zn  Zn1       1.0  0.7587974951726179  0.42101339397161697  0.5680043624399338  1.0000
  Zn  Zn2       1.0  0.9111046144476336  0.42100970504467083  0.5679999728982943  1.0000
  C   C42       1.0  0.8349092205655367  0.4158837045950319  0.8051963588609814  1.0000
  C   C43       1.0  0.8349945523766455  0.4261410330316464  0.3308081044658364  1.0000
  C   C44       1.0  0.8349743403616366  0.6582039504911708  0.5629097575624771  1.0000
  C   C45       1.0  0.8349293804475504  0.1838192268411809  0.573094774462092  1.0000
  O   O3        1.0  0.8927845252260098  0.4278799387224812  0.3791930353257902  1.0000
  O   O4        1.0  0.8927168270736908  0.41414101929576264  0.7568077222529104  1.0000
  O   O5        1.0  0.8927686327187374  0.6098176826928188  0.5611595779784613  1.0000
  O   O6        1.0  0.8927326676274461  0.23220328459824735  0.5748410822300707  1.0000
  O   O7        1.0  0.7771693900178619  0.6098198144207121  0.5611632531028248  1.0000
  O   O8        1.0  0.7771175845308667  0.4141447113206538  0.7568113286741907  1.0000
  O   O9        1.0  0.7771852830089305  0.42788358519142844  0.37919508032696725  1.0000
  O   O10       1.0  0.7771334253889405  0.23220692179704372  0.5748432245960844  1.0000
