data_image0
_chemical_formula_structural       NC12NC2H8C7OC4NC3H9C7OC3OC4H12Zn2C4O8
_chemical_formula_sum              "N3 C46 H29 O11 Zn2"
_cell_length_a       17.80743265337812
_cell_length_b       10.299371701877257
_cell_length_c       10.299374482448636
_cell_angle_alpha    85.56746279880974
_cell_angle_beta     91.51588487774274
_cell_angle_gamma    89.44495547056904

_space_group_name_H-M_alt    "P 1"
_space_group_IT_number       1

loop_
  _space_group_symop_operation_xyz
  'x, y, z'

loop_
  _atom_site_type_symbol
  _atom_site_label
  _atom_site_symmetry_multiplicity
  _atom_site_fract_x
  _atom_site_fract_y
  _atom_site_fract_z
  _atom_site_occupancy
  N   N1        1.0  0.7078117420963421  0.4069638402360909  0.6018449467616862  1.0000
  C   C1        1.0  0.6570070059230814  0.4365363050245321  0.5331565526564153  1.0000
  C   C2        1.0  0.5938008976035235  0.47332230390060936  0.4477168376810703  1.0000
  C   C3        1.0  0.6055553188277354  0.5273681727927819  0.32111597733066666  1.0000
  C   C4        1.0  0.5442559900459505  0.5626501039226963  0.2380717059990498  1.0000
  C   C5        1.0  0.47104807968033585  0.5441497618573055  0.28096848453209455  1.0000
  C   C6        1.0  0.4583167909388566  0.4899849971250052  0.4080374480514568  1.0000
  C   C7        1.0  0.5204734390420419  0.45470632316911486  0.49106520873004267  1.0000
  C   C8        1.0  0.3805400585216807  0.4703699596677047  0.45379413320547823  1.0000
  C   C9        1.0  0.3617349195322446  0.4975313701545483  0.5808502473407136  1.0000
  C   C10       1.0  0.2884970603580589  0.479072593517758  0.6237876049650319  1.0000
  C   C11       1.0  0.23312120060785863  0.43319796923448295  0.5405067306950979  1.0000
  C   C12       1.0  0.15774643917338624  0.414186090243853  0.5848448233220715  1.0000
  N   N2        1.0  0.0971504686902789  0.39890181818800063  0.6204895996185245  1.0000
  C   C13       1.0  0.25123473597973195  0.4058675391549875  0.4139935286577625  1.0000
  C   C14       1.0  0.3244197855709878  0.4243411515471158  0.3708002865944646  1.0000
  H   H1        1.0  0.6620283979480027  0.5421987346025487  0.28668417643479116  1.0000
  H   H2        1.0  0.5534750861731803  0.6047664598568305  0.14030738722666136  1.0000
  H   H3        1.0  0.42442296843416427  0.573798225554436  0.21538810177649026  1.0000
  H   H4        1.0  0.5119526125920977  0.4112046796681643  0.5887045580057564  1.0000
  H   H5        1.0  0.4034036815995551  0.534697868312249  0.6464381502009096  1.0000
  H   H6        1.0  0.2750389833690757  0.5008989750036332  0.7218058833534156  1.0000
  H   H7        1.0  0.2088491472459403  0.3699682451516537  0.34881906308658683  1.0000
  H   H8        1.0  0.3373492667254447  0.4009791595210408  0.27308476817335814  1.0000
  C   C15       1.0  0.9024454294828976  0.02156317486655812  0.6110385481485425  1.0000
  C   C16       1.0  0.9061206096840547  0.03086040490450892  0.47454767534348763  1.0000
  C   C17       1.0  0.9071212438715197  0.9183984360452381  0.40560221362940196  1.0000
  C   C18       1.0  0.9061298446738598  0.7955918225834604  0.47486551805000365  1.0000
  C   C19       1.0  0.9025239712163143  0.7842923435348393  0.6113075252335396  1.0000
  C   C20       1.0  0.9005049735199809  0.8978834748580635  0.6785792919003915  1.0000
  C   C21       1.0  0.9117909549099741  0.9280555607171079  0.26157376351415884  1.0000
  O   O1        1.0  0.9479586554069286  0.8415728607836686  0.2083590957580359  1.0000
  C   C22       1.0  0.8754180157902386  0.03574145289740471  0.1779185710578941  1.0000
  C   C23       1.0  0.9076149753512561  0.07974752025876275  0.0594884098870867  1.0000
  C   C24       1.0  0.873222808309122  0.18038159582133684  0.9790495212600079  1.0000
  C   C25       1.0  0.9068776040941366  0.2255420459701456  0.8585029920499307  1.0000
  N   N3        1.0  0.9339345591921101  0.2618414453072868  0.7616012252903914  1.0000
  C   C26       1.0  0.8060729898713456  0.23694095468936527  0.01600627982054048  1.0000
  C   C27       1.0  0.7732421677201319  0.1927377987299943  0.13266651166553212  1.0000
  C   C28       1.0  0.8074186360651784  0.09240566676233541  0.2130836731595087  1.0000
  H   H9        1.0  0.8966652036990843  0.21130925928503186  0.8687534831963126  1.0000
  H   H10       1.0  0.9090506620998265  0.12573601890924713  0.42180060026525656  1.0000
  H   H11       1.0  0.9074580277602041  0.7087393797030344  0.4219160946947562  1.0000
  H   H12       1.0  0.8976720891118845  0.8899120896167219  0.7838040461439466  1.0000
  H   H13       1.0  0.9017710628959186  0.4524780815235424  0.663797499853773  1.0000
  H   H14       1.0  0.9597196750895008  0.036584940327245574  0.0304062473388218  1.0000
  H   H15       1.0  0.7790017935647816  0.31473204472208893  0.9544695369749001  1.0000
  H   H16       1.0  0.7210094019627536  0.23591948949951402  0.1605895185506896  1.0000
  H   H17       1.0  0.7802609193231701  0.05823673255456718  0.30194078432330085  1.0000
  C   C29       1.0  0.9025543025423417  0.4030138183583516  0.2297938663130521  1.0000
  C   C30       1.0  0.9810268004145014  0.41605325937677673  0.23118547435991244  1.0000
  C   C31       1.0  0.02051140984126265  0.42410334598116384  0.11459554964928409  1.0000
  C   C32       1.0  0.9808472228641935  0.4159931069150269  0.9959380018099075  1.0000
  C   C33       1.0  0.9024150857596115  0.40284170755708626  0.9925521660762655  1.0000
  C   C34       1.0  0.8637012287673095  0.3967696305553787  0.11000716862264315  1.0000
  C   C35       1.0  0.10346097675726695  0.43651175269250486  0.11603372874809326  1.0000
  O   O2        1.0  0.140312664953949  0.3822065008206019  0.03193272934466318  1.0000
  C   C36       1.0  0.1446009831359798  0.5105414387783704  0.21279769804325155  1.0000
  C   C37       1.0  0.21789248570834663  0.4723058674753313  0.25445898808061407  1.0000
  C   C38       1.0  0.2580273151885113  0.5417390276673664  0.34460873180468443  1.0000
  O   O3        1.0  0.33070813151714784  0.4983417330146105  0.38336793350558196  1.0000
  C   C39       1.0  0.3777838965895306  0.5592377818098628  0.47403613323416804  1.0000
  C   C40       1.0  0.22445534516053933  0.651821071940804  0.39295373281707047  1.0000
  C   C41       1.0  0.15204110853326136  0.6913716938790082  0.3508243625178322  1.0000
  C   C42       1.0  0.11233985668488011  0.6216965458688348  0.2609363334401984  1.0000
  H   H18       1.0  0.7545952629039758  0.37641660148954337  0.43464910587064365  1.0000
  H   H19       1.0  0.011624483063683355  0.4185116684210821  0.3232430884306565  1.0000
  H   H20       1.0  0.011271889270424662  0.4212186994409035  0.9060033988829814  1.0000
  H   H21       1.0  0.8032046661155047  0.386716322779072  0.10813062475097368  1.0000
  H   H22       1.0  0.8723556899536211  0.3967045650488106  0.6638815549753385  1.0000
  H   H23       1.0  0.24393721870409868  0.3874542777498775  0.2177983886378021  1.0000
  H   H24       1.0  0.43185520777527864  0.5047608096268197  0.48656562678052695  1.0000
  H   H25       1.0  0.3506558586297539  0.5579985781384693  0.5699711072857712  1.0000
  H   H26       1.0  0.3893442046387092  0.661004377994141  0.43696366128551944  1.0000
  H   H27       1.0  0.2539004877672344  0.7076492086709893  0.4625743745657238  1.0000
  H   H28       1.0  0.1267019809766654  0.7766977235263994  0.38754785299480266  1.0000
  H   H29       1.0  0.0567898262075921  0.6555736660715541  0.2280633698539274  1.0000
  Zn  Zn1       1.0  0.8201664900271765  0.40463384584678597  0.6072328767405006  1.0000
  Zn  Zn2       1.0  0.9847957152413681  0.4012212167093576  0.6151122592398159  1.0000
  C   C43       1.0  0.9024391990512043  0.3977005970206593  0.8483726464675134  1.0000
  C   C44       1.0  0.9025248041088283  0.40815606686338435  0.37397270360316504  1.0000
  C   C45       1.0  0.9025062008824433  0.6401215585716846  0.6060811903111349  1.0000
  C   C46       1.0  0.9024577459278377  0.16573354615590463  0.6162642257611017  1.0000
  O   O4        1.0  0.964990836578026  0.4085811117127238  0.4253506210843496  1.0000
  O   O5        1.0  0.9649229392259533  0.39468446597900164  0.8029746237852122  1.0000
  O   O6        1.0  0.9649762016001154  0.5904424754164928  0.6073225188531963  1.0000
  O   O7        1.0  0.9649375180457896  0.21282311275194132  0.6210026259536554  1.0000
  O   O8        1.0  0.8400246310428815  0.5930319509701798  0.6013425073309833  1.0000
  O   O9        1.0  0.8399713688385976  0.3972755018551217  0.7969945435657644  1.0000
  O   O10       1.0  0.8400392665209455  0.41117210268406645  0.4193689794086497  1.0000
  O   O11       1.0  0.8399859479669101  0.21541409441255377  0.6150210816449886  1.0000
