data_image0
_chemical_formula_structural       NC12NC2H8C6SCOC6H10C7OC4NC3H9Zn2C4O8
_chemical_formula_sum              "N3 C45 H27 S1 O10 Zn2"
_cell_length_a       19.240039667572717
_cell_length_b       10.302038109246572
_cell_length_c       10.299375074045738
_cell_angle_alpha    85.54623755187913
_cell_angle_beta     89.99323599274587
_cell_angle_gamma    90.01678309981641

_space_group_name_H-M_alt    "P 1"
_space_group_IT_number       1

loop_
  _space_group_symop_operation_xyz
  'x, y, z'

loop_
  _atom_site_type_symbol
  _atom_site_label
  _atom_site_symmetry_multiplicity
  _atom_site_fract_x
  _atom_site_fract_y
  _atom_site_fract_z
  _atom_site_occupancy
  N   N1        1.0  0.6547905910489235  0.4214834991981822  0.5676096851507353  1.0000
  C   C1        1.0  0.5946422222499936  0.4214835831907797  0.5676096032233242  1.0000
  C   C2        1.0  0.5198241851359056  0.4214837005010734  0.5676094659308939  1.0000
  C   C3        1.0  0.48333382219679893  0.35699417344687334  0.6710159924579568  1.0000
  C   C4        1.0  0.4106630512364955  0.3568832854546995  0.6711025210337893  1.0000
  C   C5        1.0  0.37349195022748977  0.4214837931313462  0.5676092382534159  1.0000
  C   C6        1.0  0.4106965276227115  0.48608448767535295  0.46411615005250595  1.0000
  C   C7        1.0  0.4833671931814565  0.4859733641928863  0.46420280109698986  1.0000
  C   C8        1.0  0.296286859781564  0.42148371452543576  0.5676091428208769  1.0000
  C   C9        1.0  0.2590786433542852  0.3082338607009427  0.6094635534659403  1.0000
  C   C10       1.0  0.1864079775084275  0.3083407704516963  0.6093722410420022  1.0000
  C   C11       1.0  0.1499545728342603  0.4214835853599823  0.5676092037131544  1.0000
  C   C12       1.0  0.0751365356457446  0.4214834715489355  0.5676094523670878  1.0000
  N   N2        1.0  0.0149882187740612  0.4214834306552495  0.5676096607894652  1.0000
  C   C13       1.0  0.18644867903194087  0.5346264760980943  0.5258461135033337  1.0000
  C   C14       1.0  0.25911939782662513  0.5347335659892076  0.5257546385063567  1.0000
  H   H1        1.0  0.51103575524315  0.3070647193081759  0.7517529388205597  1.0000
  H   H2        1.0  0.3835568661343726  0.3077512987152722  0.7529551543226136  1.0000
  H   H3        1.0  0.38361618194416414  0.5352165014802572  0.382263465917269  1.0000
  H   H4        1.0  0.5110950315650216  0.5359027179872393  0.38346613052636047  1.0000
  H   H5        1.0  0.2861559673341657  0.21908775484427578  0.640618225624074  1.0000
  H   H6        1.0  0.1586772599798759  0.22009323453299579  0.6415600725713857  1.0000
  H   H7        1.0  0.15874957310793497  0.6228739874802027  0.49365829652109805  1.0000
  H   H8        1.0  0.2862285526792012  0.6238797510208014  0.49459992158739396  1.0000
  C   C15       1.0  0.8348269174531322  0.04020505376684702  0.5675694951824206  1.0000
  C   C16       1.0  0.7754157905369701  0.04500465394114306  0.48804658415799107  1.0000
  C   C17       1.0  0.7461822364893413  0.9304344079355074  0.44799534586830636  1.0000
  C   C18       1.0  0.77563934258335  0.8098720759646987  0.48799257569346066  1.0000
  C   C19       1.0  0.834958587391476  0.8027519167027388  0.5676610734027494  1.0000
  C   C20       1.0  0.8642822353037392  0.9185717720783567  0.6069513892112712  1.0000
  S   S1        1.0  0.6707702936107024  0.9380081057174309  0.3453819509501703  1.0000
  C   C21       1.0  0.7218773872026109  0.946557861136727  0.19895380034767207  1.0000
  O   O1        1.0  0.7386386160993668  0.8413076225003291  0.15260179799485818  1.0000
  C   C22       1.0  0.7448032922452267  0.07274876440597922  0.13345348316039907  1.0000
  C   C23       1.0  0.7939488440071523  0.0751263431530571  0.03194266530021328  1.0000
  C   C24       1.0  0.816290022981898  0.1934858182693151  0.9702169660098199  1.0000
  C   C25       1.0  0.7898617043618535  0.3107081975777093  0.008719860946192703  1.0000
  C   C26       1.0  0.7409252571342123  0.30980371282531194  0.1088775777018709  1.0000
  C   C27       1.0  0.7183523959603251  0.19174775452946857  0.170923463104391  1.0000
  H   H9        1.0  0.9467294300358515  0.2384623332909448  0.7176296301333758  1.0000
  H   H10       1.0  0.7517716845964109  0.13753854026435985  0.45676947189707295  1.0000
  H   H11       1.0  0.7522191768724534  0.722132613256515  0.45622691175576113  1.0000
  H   H12       1.0  0.9100843280083422  0.9139513052854505  0.6682549246503431  1.0000
  H   H13       1.0  0.8576329805435223  0.47273043047434554  0.5976289101990366  1.0000
  H   H14       1.0  0.8154505853521287  0.9855736785178917  0.0006437678285788895  1.0000
  H   H15       1.0  0.8542077345260464  0.1942686915226437  0.8925160824905776  1.0000
  H   H16       1.0  0.8072371559994623  0.4022307444111377  0.9608435541043936  1.0000
  H   H17       1.0  0.720334512099369  0.40073993156756416  0.13841574683668023  1.0000
  H   H18       1.0  0.6800276181763424  0.19435301843324448  0.24749196100829085  1.0000
  C   C28       1.0  0.8349163908246936  0.42162080080994113  0.18622852679223678  1.0000
  C   C29       1.0  0.8884312012686103  0.5147094227873148  0.17779619023346527  1.0000
  C   C30       1.0  0.9148828241174618  0.5627407150788282  0.056285851575278656  1.0000
  C   C31       1.0  0.888318630242243  0.5144717440890094  0.9425708455077522  1.0000
  C   C32       1.0  0.8348690674966379  0.4213361846610384  0.9490020486971016  1.0000
  C   C33       1.0  0.8083526528524541  0.3757008763859022  0.07130894907660346  1.0000
  C   C34       1.0  0.9718896566230408  0.6600362567002469  0.04731997475525107  1.0000
  O   O2        1.0  0.016303986393940928  0.6553523545417812  0.9576844690848745  1.0000
  C   C35       1.0  0.9785008841816896  0.7626571666300597  0.13995879352985252  1.0000
  C   C36       1.0  0.04460193031897708  0.8092070246176626  0.1717209287508321  1.0000
  C   C37       1.0  0.05135381190198629  0.9071953603022256  0.257949425340005  1.0000
  C   C38       1.0  0.11923445437222813  0.9535359399550134  0.2907426441210732  1.0000
  N   N3        1.0  0.17380284258794343  0.9907829295565682  0.3171009355224723  1.0000
  C   C39       1.0  0.9920113016683213  0.9600337825535652  0.31214920931715584  1.0000
  C   C40       1.0  0.9261421382362504  0.9154950929343344  0.27988636225654173  1.0000
  C   C41       1.0  0.9192520757701844  0.8177766771381934  0.19393345687686026  1.0000
  H   H19       1.0  0.734658332686586  0.24448837964454162  0.4095760454643642  1.0000
  H   H20       1.0  0.9101356892718215  0.5489025389498638  0.26598354188790774  1.0000
  H   H21       1.0  0.9090127121827793  0.5506989205366488  0.8488300308626031  1.0000
  H   H22       1.0  0.7670968750760452  0.303935681513547  0.07700584554030865  1.0000
  H   H23       1.0  0.8147368109066121  0.3847582027522414  0.6240775469307436  1.0000
  H   H24       1.0  0.09080023473889298  0.7684966517305718  0.1303353704778203  1.0000
  H   H25       1.0  0.9966608122862421  0.035893601921535456  0.37883750909634606  1.0000
  H   H26       1.0  0.8802902701609916  0.9571839292817996  0.3211232192704583  1.0000
  H   H27       1.0  0.8676226234136104  0.7863906617065053  0.16862638202183144  1.0000
  Zn  Zn1       1.0  0.7587358538220635  0.4214800102442038  0.5676171664803584  1.0000
  Zn  Zn2       1.0  0.9110429722862893  0.42147632468751484  0.5676127775836222  1.0000
  C   C42       1.0  0.8348755864289427  0.41621751093147363  0.8048208710573062  1.0000
  C   C43       1.0  0.834904903143327  0.4267404621431692  0.3304092006278425  1.0000
  C   C44       1.0  0.8349304230417708  0.6586162498150494  0.5624683273553013  1.0000
  C   C45       1.0  0.8348500142851245  0.18434016330269265  0.5727618133859271  1.0000
  O   O3        1.0  0.8927008044965726  0.4284516042087907  0.3787958856302902  1.0000
  O   O4        1.0  0.8926772636973  0.4145025922631027  0.7564304810026785  1.0000
  O   O5        1.0  0.8927207657035388  0.6102426389769562  0.5607290874633923  1.0000
  O   O6        1.0  0.8926572505258736  0.23271156682055127  0.5744971817929692  1.0000
  O   O7        1.0  0.7771215236075351  0.610244768113841  0.5607327622656777  1.0000
  O   O8        1.0  0.777078021871727  0.41450628135956236  0.7564340867435504  1.0000
  O   O9        1.0  0.7771015628062432  0.4284552486427149  0.37879792989204675  1.0000
  O   O10       1.0  0.7770580088250607  0.23271520193153505  0.5744993234260001  1.0000
