data_image0
_chemical_formula_structural       NC11NC3H8C7OC4NC3H9C7OC3NC3H11Zn2C4O8
_chemical_formula_sum              "N4 C45 H28 O10 Zn2"
_cell_length_a       17.807433833752565
_cell_length_b       10.299371701877257
_cell_length_c       10.298749378158432
_cell_angle_alpha    85.57636868446646
_cell_angle_beta     88.5335258425568
_cell_angle_gamma    90.69533246875125

_space_group_name_H-M_alt    "P 1"
_space_group_IT_number       1

loop_
  _space_group_symop_operation_xyz
  'x, y, z'

loop_
  _atom_site_type_symbol
  _atom_site_label
  _atom_site_symmetry_multiplicity
  _atom_site_fract_x
  _atom_site_fract_y
  _atom_site_fract_z
  _atom_site_occupancy
  N   N1        1.0  0.7074262798137616  0.43858989885566224  0.5350601094725513  1.0000
  C   C1        1.0  0.6566093599176388  0.4038581420923182  0.6016149547234753  1.0000
  C   C2        1.0  0.593387985454058  0.3606546997866691  0.6844006883261728  1.0000
  C   C3        1.0  0.6051198655995566  0.29709521210320156  0.8071054412067311  1.0000
  C   C4        1.0  0.543805847051658  0.2555717193281237  0.8876076773990667  1.0000
  C   C5        1.0  0.4706056275058602  0.2772943973245283  0.8460458916257128  1.0000
  C   C6        1.0  0.4578969275475734  0.34100847089889075  0.7228809630602706  1.0000
  C   C7        1.0  0.3801283697621823  0.3640614779158382  0.6785387972125718  1.0000
  C   C8        1.0  0.36133110205412433  0.3471987067655946  0.5489429207128755  1.0000
  C   C9        1.0  0.2881009319225422  0.3688826598705859  0.507337046372262  1.0000
  C   C10       1.0  0.2327249129890198  0.4077479730736915  0.5945068279400365  1.0000
  C   C11       1.0  0.1573579639881211  0.4300904936622938  0.5515397944487237  1.0000
  N   N2        1.0  0.09676831055052451  0.4480522203541937  0.5169974266418425  1.0000
  C   C12       1.0  0.25083059000216584  0.42482136097404455  0.72357160657641  1.0000
  C   C13       1.0  0.3240080183517624  0.40310245899112407  0.7654329164885225  1.0000
  C   C14       1.0  0.5200682590223142  0.3825273975208623  0.6423951422704248  1.0000
  H   H1        1.0  0.6615869320324104  0.27967822682471155  0.840467213745367  1.0000
  H   H2        1.0  0.5530075654640942  0.20611232200644158  0.9823331183663975  1.0000
  H   H3        1.0  0.4239686407425014  0.2427335978818046  0.9094772850464559  1.0000
  H   H4        1.0  0.4029998494705648  0.31556183869300947  0.4802100860437635  1.0000
  H   H5        1.0  0.27464879351294574  0.35500924416713886  0.4072902432035357  1.0000
  H   H6        1.0  0.20844488528982033  0.45523523723889503  0.791789198756548  1.0000
  H   H7        1.0  0.3369318671485266  0.4185213009556683  0.8652975032057306  1.0000
  H   H8        1.0  0.5115651804301505  0.43334913339887127  0.5479045204961415  1.0000
  C   C15       1.0  0.9020615781154738  0.06194976580478251  0.5259033983798751  1.0000
  C   C16       1.0  0.9056994319037175  0.07139019287325032  0.38906111398641374  1.0000
  C   C17       1.0  0.9066812154141645  0.95896204343434  0.3200188320157844  1.0000
  C   C18       1.0  0.9057087537320868  0.8361220778385418  0.3893780974120047  1.0000
  C   C19       1.0  0.9021401930089435  0.8246825128020604  0.5261649799821173  1.0000
  C   C20       1.0  0.9001395932101356  0.9381937234457249  0.5936295211028673  1.0000
  C   C21       1.0  0.9113115350554706  0.968805895939808  0.17554493213160405  1.0000
  O   O1        1.0  0.9474645218420046  0.8839421857237303  0.11891835379960991  1.0000
  C   C22       1.0  0.8749158976239226  0.07484130456193983  0.09531608247045087  1.0000
  C   C23       1.0  0.907080335415724  0.12027706242569458  0.973846040530463  1.0000
  C   C24       1.0  0.8726663400480698  0.21935031750928458  0.8966468571914801  1.0000
  C   C25       1.0  0.90628802880381  0.2660057205351578  0.7729229220280769  1.0000
  N   N3        1.0  0.9333183706797897  0.30350699731837727  0.6734666630077393  1.0000
  C   C26       1.0  0.8055269348714473  0.2728937645305529  0.9399360283285487  1.0000
  C   C27       1.0  0.7727281536224352  0.22723210473137256  0.05969583979195714  1.0000
  C   C28       1.0  0.8069264453537193  0.12845108269033712  0.13689363193169402  1.0000
  H   H9        1.0  0.8963518247421595  0.2514776337619642  0.7841725710450655  1.0000
  H   H10       1.0  0.9086150524809214  0.16638908944185138  0.33603588943706697  1.0000
  H   H11       1.0  0.9070224570932346  0.7493207962059062  0.33630154631841913  1.0000
  H   H12       1.0  0.897335484809404  0.9301119622955781  0.6991251492643855  1.0000
  H   H13       1.0  0.9014016361583818  0.4928429037335452  0.5787278272151655  1.0000
  H   H14       1.0  0.9591768441247096  0.07945460425415685  0.939850246903525  1.0000
  H   H15       1.0  0.7784390431525289  0.34945657121310747  0.8809494271098202  1.0000
  H   H16       1.0  0.7205032626361136  0.2680677219270198  0.09254451054775248  1.0000
  H   H17       1.0  0.7797931433178023  0.09307442828386403  0.22831444638666643  1.0000
  C   C29       1.0  0.9020662385584174  0.44334331148863226  0.14463475200298248  1.0000
  C   C30       1.0  0.943114375878699  0.5612059899881658  0.13275136371725216  1.0000
  C   C31       1.0  0.9631170913182416  0.6215880813779135  0.009538880206192868  1.0000
  C   C32       1.0  0.9431173666431958  0.5612549242311506  0.89750721253756  1.0000
  C   C33       1.0  0.9021355088795044  0.4432889625000833  0.9074336286118783  1.0000
  C   C34       1.0  0.8816974500420025  0.38525812637014  0.03141584616872284  1.0000
  C   C35       1.0  0.007072772836742569  0.7454246381606133  0.9968622038844654  1.0000
  O   O2        1.0  0.054016714705652946  0.7649083824000522  0.9033438004677605  1.0000
  C   C36       1.0  0.99777469770217  0.8471497511377866  0.0902187089272346  1.0000
  C   C37       1.0  0.9274941172717643  0.8680157667572299  0.15019135109506032  1.0000
  C   C38       1.0  0.9191006935004222  0.9653140690137805  0.23731492754993733  1.0000
  N   N4        1.0  0.8475773889440235  0.9854275038242066  0.2983128576554237  1.0000
  C   C39       1.0  0.9810999700927069  0.0430721735355335  0.26386278824821274  1.0000
  C   C40       1.0  0.050788745099883625  0.02414243150157036  0.20345894590027647  1.0000
  C   C41       1.0  0.05913890703230473  0.9271547491876238  0.11671428950817231  1.0000
  H   H18       1.0  0.8255010080703631  0.2196513825840225  0.37448238391121613  1.0000
  H   H19       1.0  0.960275814660997  0.6054689959305979  0.21951659171965976  1.0000
  H   H20       1.0  0.9589658727214753  0.6071621803654936  0.8023814709070227  1.0000
  H   H21       1.0  0.850060319725005  0.2944049634330639  0.03982383726616301  1.0000
  H   H22       1.0  0.8249723488404126  0.22016149200309099  0.7188925876059802  1.0000
  H   H23       1.0  0.8790150737047451  0.8098301864907091  0.1283776160338841  1.0000
  H   H24       1.0  0.8009866936460301  0.9280229954320605  0.27922676553520964  1.0000
  H   H25       1.0  0.8407015348046091  0.0577789738900627  0.36314479024611535  1.0000
  H   H26       1.0  0.9753350732091615  0.11854661054361859  0.3308895988832339  1.0000
  H   H27       1.0  0.09846547026547947  0.08476833538076489  0.223904114283767  1.0000
  H   H28       1.0  0.11371468733378376  0.9138363899908746  0.0711768023736683  1.0000
  Zn  Zn1       1.0  0.8197819797542276  0.44131704524844007  0.5298550933092749  1.0000
  Zn  Zn2       1.0  0.9844125957166373  0.445314453547057  0.5222130260238675  1.0000
  C   C42       1.0  0.9021202222900198  0.43812550245605597  0.7632466124979138  1.0000
  C   C43       1.0  0.9020761511225208  0.4485076786120894  0.28882155142272836  1.0000
  C   C44       1.0  0.902120994154167  0.680510078228237  0.5209401326962524  1.0000
  C   C45       1.0  0.9020753229269246  0.20612154115829684  0.5311281025411416  1.0000
  O   O3        1.0  0.9645559380636999  0.4517522172344921  0.3343118318196998  1.0000
  O   O4        1.0  0.9645912634362184  0.43791392453637634  0.7119558056447544  1.0000
  O   O5        1.0  0.9645910446363805  0.6336425142977442  0.5162916484051219  1.0000
  O   O6        1.0  0.9645561006783722  0.25602363540629725  0.5299758942877764  1.0000
  O   O7        1.0  0.839638418612143  0.630607862026495  0.522092227646398  1.0000
  O   O8        1.0  0.8396386375630799  0.4348808325840332  0.71775631617031  1.0000
  O   O9        1.0  0.8396033120940158  0.4487190801383134  0.3401107808017545  1.0000
  O   O10       1.0  0.8396034747135038  0.25299048901424026  0.5357749406424186  1.0000
