data_image0
_chemical_formula_structural       NC11NC3H8C7OC3OC4H12C7OC6H10Zn2C4O8
_chemical_formula_sum              "N2 C45 H30 O11 Zn2"
_cell_length_a       17.807433833752565
_cell_length_b       10.299371110280156
_cell_length_c       10.299382801718286
_cell_angle_alpha    85.58971110706742
_cell_angle_beta     88.5048620642858
_cell_angle_gamma    90.69823053252264

_space_group_name_H-M_alt    "P 1"
_space_group_IT_number       1

loop_
  _space_group_symop_operation_xyz
  'x, y, z'

loop_
  _atom_site_type_symbol
  _atom_site_label
  _atom_site_symmetry_multiplicity
  _atom_site_fract_x
  _atom_site_fract_y
  _atom_site_fract_z
  _atom_site_occupancy
  N   N1        1.0  0.7078900037143078  0.4382159800543035  0.5351125914450197  1.0000
  C   C1        1.0  0.6570529279954355  0.4035013105426346  0.601664031098726  1.0000
  C   C2        1.0  0.5938064822139535  0.36031912259225773  0.68444552862545  1.0000
  C   C3        1.0  0.6055012159210821  0.29679113959442005  0.807143986917704  1.0000
  C   C4        1.0  0.5441628321425257  0.2552883164964792  0.8876420875973006  1.0000
  C   C5        1.0  0.4709752003889055  0.27700032405362074  0.8460824274115322  1.0000
  C   C6        1.0  0.4583037836832887  0.3406827745192924  0.722923819834471  1.0000
  C   C7        1.0  0.38054865212338834  0.3637243968721644  0.6785839258678807  1.0000
  C   C8        1.0  0.3617881158832242  0.3468280789842544  0.5489974982345585  1.0000
  C   C9        1.0  0.2885705450575518  0.3685013501302483  0.5073937537960553  1.0000
  C   C10       1.0  0.2331706391029459  0.4073893171736791  0.5945562620195946  1.0000
  C   C11       1.0  0.1578167000874321  0.4297208061720239  0.5515914298064499  1.0000
  N   N2        1.0  0.0972375057302184  0.4476736642681207  0.5170508316681348  1.0000
  C   C12       1.0  0.251239743507328  0.42449611524188313  0.7236116211845065  1.0000
  C   C13       1.0  0.3244044981222516  0.40278796111770654  0.7654707848443449  1.0000
  C   C14       1.0  0.52049947553648  0.3821810356915978  0.642442133584  1.0000
  H   H1        1.0  0.6619581786864953  0.27938271957469585  0.8405040525779444  1.0000
  H   H2        1.0  0.5533358626023052  0.20585323884166162  0.9823626823766574  1.0000
  H   H3        1.0  0.424318960278542  0.24245580521158283  0.9095106237136488  1.0000
  H   H4        1.0  0.40347566853408434  0.31517334527776053  0.48027043162512495  1.0000
  H   H5        1.0  0.2751467375215729  0.3546020338813707  0.40735427359150056  1.0000
  H   H6        1.0  0.2088353451741059  0.454927720013103  0.7918235214174756  1.0000
  H   H7        1.0  0.3373001144171683  0.4182326615551464  0.865328009558737  1.0000
  H   H8        1.0  0.5120250580000826  0.43297851701186274  0.5479562964675551  1.0000
  C   C15       1.0  0.9025167171328093  0.061572257552132026  0.5259690676063558  1.0000
  C   C16       1.0  0.8938874709994908  0.07062664711372935  0.39038591318393423  1.0000
  C   C17       1.0  0.888686467840608  0.9579859260931864  0.32220907772241025  1.0000
  C   C18       1.0  0.8939247000415395  0.8353597241987581  0.39069526835054935  1.0000
  C   C19       1.0  0.9026179751156522  0.8243075796691198  0.5262052196027003  1.0000
  C   C20       1.0  0.9066669786261514  0.9380048496341047  0.5931048093221822  1.0000
  C   C21       1.0  0.8803580971545222  0.9674377039051278  0.1788501439918151  1.0000
  O   O1        1.0  0.9111669735333205  0.8831363415405777  0.11339875259909538  1.0000
  C   C22       1.0  0.8370702489285308  0.07244311039307227  0.1097482864277981  1.0000
  C   C23       1.0  0.8580945630079329  0.1180920554612892  0.9816319494235874  1.0000
  C   C24       1.0  0.8174726076098835  0.21610669242221014  0.9141364391137716  1.0000
  O   O2        1.0  0.8414832887352568  0.2584757158121027  0.7869262626524249  1.0000
  C   C25       1.0  0.8056884778644108  0.3570773662639586  0.707152777503846  1.0000
  C   C26       1.0  0.754440015716292  0.26844438312717545  0.9755479005477192  1.0000
  C   C27       1.0  0.7326446997911176  0.22248661139956116  0.10218296365855228  1.0000
  C   C28       1.0  0.7734001249804522  0.12475638842299963  0.16892011379258087  1.0000
  H   H9        1.0  0.9199474932515659  0.2518529398404912  0.781550321307422  1.0000
  H   H10       1.0  0.8920377014831208  0.16550707791958486  0.33744264779071464  1.0000
  H   H11       1.0  0.8904809398576974  0.7484067047420622  0.33813321269295904  1.0000
  H   H12       1.0  0.9133199786535965  0.9302207892361332  0.69762946446231  1.0000
  H   H13       1.0  0.9065824657951296  0.49262970376015786  0.5781075435590124  1.0000
  H   H14       1.0  0.9066779556114307  0.07836840677832879  0.9340058744193662  1.0000
  H   H15       1.0  0.8363535314049945  0.37089736761218983  0.6118604756569619  1.0000
  H   H16       1.0  0.8067860212543877  0.45056876301453896  0.7541203539722052  1.0000
  H   H17       1.0  0.7468164535066855  0.327410591099905  0.6901198671848521  1.0000
  H   H18       1.0  0.721817526974367  0.3441424759813487  0.9261734020457855  1.0000
  H   H19       1.0  0.6837776114020944  0.26236456458881774  0.14860048186349117  1.0000
  H   H20       1.0  0.7546399716430648  0.08916890985649939  0.26616790900518206  1.0000
  C   C29       1.0  0.9026422753666866  0.44286850893828844  0.14471384746173643  1.0000
  C   C30       1.0  0.9815687021804611  0.44564918882937454  0.13974907457546304  1.0000
  C   C31       1.0  0.021376756151471943  0.44556359457337025  0.02018640767354296  1.0000
  C   C32       1.0  0.9813856336305917  0.44567277878666944  0.9045120072759665  1.0000
  C   C33       1.0  0.9024923797451798  0.44301132415012456  0.9074603815089799  1.0000
  C   C34       1.0  0.8635782913425066  0.4412799028302956  0.028105790388871288  1.0000
  C   C35       1.0  0.10471298737819001  0.44988359598022654  0.014692679769984007  1.0000
  O   O3        1.0  0.13782260272123747  0.511397074034889  0.918649042408306  1.0000
  C   C36       1.0  0.1504882009999826  0.3844119647451114  0.11805431052995319  1.0000
  C   C37       1.0  0.22110876638513344  0.4365874850833906  0.14589557978526457  1.0000
  C   C38       1.0  0.2650521866669857  0.37472069284340503  0.242091584838791  1.0000
  C   C39       1.0  0.23929495440209791  0.25979081761858125  0.3106143056951003  1.0000
  C   C40       1.0  0.1696704113850167  0.2061925208637707  0.282703355195127  1.0000
  C   C41       1.0  0.12551292492673993  0.2676753987593372  0.18661922177648926  1.0000
  H   H21       1.0  0.7536965602304566  0.43963266147041113  0.3612482834245163  1.0000
  H   H22       1.0  0.01217514482820703  0.4493431436547888  0.22892902031032136  1.0000
  H   H23       1.0  0.01199941958555506  0.446587772093751  0.8121404078170347  1.0000
  H   H24       1.0  0.8027319630997627  0.4391370068605063  0.0311290211601285  1.0000
  H   H25       1.0  0.8721852179537233  0.44309389805844557  0.5810515482154512  1.0000
  H   H26       1.0  0.24197808764644257  0.5257679551860945  0.0940199762615348  1.0000
  H   H27       1.0  0.31913600663698594  0.4159184140093428  0.26346792718838596  1.0000
  H   H28       1.0  0.27341670868895873  0.2119921411706307  0.38495943971360447  1.0000
  H   H29       1.0  0.1500238948615129  0.11658584282776752  0.33515085093821795  1.0000
  H   H30       1.0  0.07233076802153948  0.22321739296770104  0.16501379373092928  1.0000
  Zn  Zn1       1.0  0.8202472802940917  0.4409417901496997  0.5299078412578382  1.0000
  Zn  Zn2       1.0  0.98488021090014  0.4449372364589417  0.522266164702506  1.0000
  C   C42       1.0  0.9025183731201253  0.43781055329605567  0.7632834629001943  1.0000
  C   C43       1.0  0.9026109160530666  0.4480701556022202  0.2888905875884953  1.0000
  C   C44       1.0  0.9025959787440705  0.6801332959209567  0.5209855158729821  1.0000
  C   C45       1.0  0.9025332540306786  0.20574585130906753  0.5311886059796447  1.0000
  O   O4        1.0  0.9650777300020985  0.4513264609953158  0.33437764046393736  1.0000
  O   O5        1.0  0.9650041440977754  0.43758571940125446  0.711996180181979  1.0000
  O   O6        1.0  0.9650659691308231  0.6332643784732557  0.5163389131710254  1.0000
  O   O7        1.0  0.9650158488113496  0.25564780983202073  0.5300348127095691  1.0000
  O   O8        1.0  0.8401115862017442  0.6302312154145835  0.5221391958516732  1.0000
  O   O9        1.0  0.8400497613860014  0.4345541166487965  0.7177963940995882  1.0000
  O   O10       1.0  0.8401233476410748  0.4482948126953199  0.3401762929466283  1.0000
  O   O11       1.0  0.8400614664268894  0.2526161522612813  0.5358335625584809  1.0000
