data_image0
_chemical_formula_structural       NC11NC3H8C7OC6OCH12C7OC3OC4H12Zn2C4O8
_chemical_formula_sum              "N2 C46 H32 O12 Zn2"
_cell_length_a       17.807433833752565
_cell_length_b       10.299359160628079
_cell_length_c       10.299374482448636
_cell_angle_alpha    85.55316158380268
_cell_angle_beta     88.50658755346606
_cell_angle_gamma    90.7076958246699

_space_group_name_H-M_alt    "P 1"
_space_group_IT_number       1

loop_
  _space_group_symop_operation_xyz
  'x, y, z'

loop_
  _atom_site_type_symbol
  _atom_site_label
  _atom_site_symmetry_multiplicity
  _atom_site_fract_x
  _atom_site_fract_y
  _atom_site_fract_z
  _atom_site_occupancy
  N   N1        1.0  0.708012051392732  0.4388623507482845  0.5347438198617893  1.0000
  C   C1        1.0  0.6571724640613512  0.40411894469660314  0.6013051819347499  1.0000
  C   C2        1.0  0.5939228939990071  0.3609010121256313  0.6840990220347889  1.0000
  C   C3        1.0  0.6056130441018348  0.297320058354555  0.8068156681564325  1.0000
  C   C4        1.0  0.5442716705779489  0.25578248661963454  0.887325662048539  1.0000
  C   C5        1.0  0.47108561058850235  0.27751244009564435  0.8457597980747336  1.0000
  C   C6        1.0  0.45841878637933564  0.3412480582678177  0.7225829531471373  1.0000
  C   C7        1.0  0.3806653195621131  0.36430882455252656  0.6782364677810226  1.0000
  C   C8        1.0  0.3619013056954653  0.34746672659687516  0.5486495663869269  1.0000
  C   C9        1.0  0.2886853021836884  0.36915796142960633  0.5070396253576708  1.0000
  C   C10       1.0  0.23329046128300523  0.4080100241274227  0.5941963128806156  1.0000
  C   C11       1.0  0.1579381358221648  0.4303600634599811  0.5512250926912674  1.0000
  N   N2        1.0  0.09736023864212902  0.44832783467400716  0.5166793590925338  1.0000
  C   C12       1.0  0.2513630567662087  0.42506283020964863  0.7232520814689576  1.0000
  C   C13       1.0  0.32452624416850323  0.4033366041294313  0.765117457863076  1.0000
  C   C14       1.0  0.5206174677545704  0.38278106107157517  0.6420893752391588  1.0000
  H   H1        1.0  0.6620687471757615  0.2798972334992218  0.8401807091829636  1.0000
  H   H2        1.0  0.5534411236866074  0.20630650859132582  0.9820603850696019  1.0000
  H   H3        1.0  0.4244268322336193  0.24294050335667206  0.9091977765864718  1.0000
  H   H4        1.0  0.4035847663526557  0.3158402828676192  0.47992731060028637  1.0000
  H   H5        1.0  0.2752587252214575  0.35530048488338783  0.4069999702482636  1.0000
  H   H6        1.0  0.20896262211380573  0.4554663368191587  0.791459426845726  1.0000
  H   H7        1.0  0.3374247804091277  0.4187395733387611  0.8649745067992067  1.0000
  H   H8        1.0  0.5121467657720575  0.4336193718851509  0.5475891136669262  1.0000
  C   C15       1.0  0.902601334204323  0.062214745255709136  0.525684011454683  1.0000
  C   C16       1.0  0.8404775583260669  0.06600486048157395  0.4441668618619179  1.0000
  C   C17       1.0  0.8096827844216312  0.9509452400111877  0.401933674922371  1.0000
  C   C18       1.0  0.8406564640859343  0.8307476379049328  0.44441367514507624  1.0000
  C   C19       1.0  0.9027781387551544  0.8249655737203173  0.525750056940349  1.0000
  C   C20       1.0  0.9334966086210068  0.9412794266164456  0.56570119150371  1.0000
  C   C21       1.0  0.7435642065227344  0.9570707584464265  0.3170652294855809  1.0000
  O   O1        1.0  0.6958199764192666  0.04478005580097455  0.3308472878924382  1.0000
  C   C22       1.0  0.731606804537807  0.8637654698228548  0.2165694806514229  1.0000
  C   C23       1.0  0.7927251826648369  0.8119172790787358  0.14967668987419724  1.0000
  C   C24       1.0  0.7806675006890929  0.7252596959831806  0.054151434611930505  1.0000
  C   C25       1.0  0.7076898099678666  0.6895792322613429  0.02277361898199226  1.0000
  C   C26       1.0  0.6463187966061089  0.7424563599190209  0.08836633286441331  1.0000
  C   C27       1.0  0.6583077724112254  0.82917115132288  0.18394119875685666  1.0000
  O   O2        1.0  0.6986083124045986  0.602153802014972  0.9262937602993153  1.0000
  C   C28       1.0  0.6278185606219108  0.5575987455520199  0.8847087501503941  1.0000
  H   H9        1.0  0.019632405286091448  0.262295820209804  0.6799342221390146  1.0000
  H   H10       1.0  0.8163222652752196  0.15875329000710048  0.4123018145008297  1.0000
  H   H11       1.0  0.8157219497915266  0.7415113198002854  0.4151181820672316  1.0000
  H   H12       1.0  0.9814168568658821  0.9375512961175999  0.6284485262636827  1.0000
  H   H13       1.0  0.9264162555501068  0.49523728238477055  0.5573724260744419  1.0000
  H   H14       1.0  0.8498377752794066  0.8393884055240034  0.1701586637285435  1.0000
  H   H15       1.0  0.8283552376452433  0.6859824841343023  0.0037561670378392087  1.0000
  H   H16       1.0  0.5891751091395322  0.7172618481442343  0.06624113667526155  1.0000
  H   H17       1.0  0.6102003517540022  0.8683926093650475  0.23330514552392456  1.0000
  H   H18       1.0  0.6372106641195093  0.48944933144309105  0.807795873705579  1.0000
  H   H19       1.0  0.5948147159542579  0.6411544615876174  0.8437287187406333  1.0000
  H   H20       1.0  0.5962668581054685  0.5052434626102972  0.9677108201447351  1.0000
  C   C29       1.0  0.9027593484353326  0.4436793660430527  0.14433125635431154  1.0000
  C   C30       1.0  0.9812356397152452  0.46025187707092496  0.138320260550147  1.0000
  C   C31       1.0  0.020722349676356444  0.47007971605345356  0.018005223322815844  1.0000
  C   C32       1.0  0.9810560495791708  0.4601836387616238  0.9030897359937491  1.0000
  C   C33       1.0  0.9026201057315576  0.4435009837350652  0.9071027271559533  1.0000
  C   C34       1.0  0.8639044237712908  0.4356858999848783  0.028209659921736074  1.0000
  C   C35       1.0  0.1036757493015521  0.48622273129507  0.011618812479096796  1.0000
  O   O3        1.0  0.14052143453760157  0.4335752164735902  0.9240569501643283  1.0000
  C   C36       1.0  0.1448264002548445  0.5621062640746284  0.10448466222565012  1.0000
  C   C37       1.0  0.2181149514678673  0.5271692991360692  0.139245017699136  1.0000
  C   C38       1.0  0.2582598063262793  0.598410944515259  0.2255925997312629  1.0000
  O   O4        1.0  0.3309369899165453  0.5582846408794415  0.25750977267763564  1.0000
  C   C39       1.0  0.3780218675774054  0.621301446280214  0.3437235310561917  1.0000
  C   C40       1.0  0.22470111273125815  0.7069842287452941  0.27707491363661507  1.0000
  C   C41       1.0  0.15229002049670548  0.7432757693151586  0.2417634223136491  1.0000
  C   C42       1.0  0.11257872377586775  0.6718116496268103  0.15563673445149795  1.0000
  H   H21       1.0  0.7547928972486952  0.41042053631076314  0.3631445405738096  1.0000
  H   H22       1.0  0.011834463210854462  0.46408782417061145  0.2274921542213002  1.0000
  H   H23       1.0  0.011482208638484037  0.46677904615072063  0.8102850170324647  1.0000
  H   H24       1.0  0.8034049365695766  0.42290885333743744  0.03203998300262545  1.0000
  H   H25       1.0  0.8725591096858217  0.43601044882172  0.581268024042024  1.0000
  H   H26       1.0  0.2441494554545478  0.44348820047148196  0.10015038771732065  1.0000
  H   H27       1.0  0.43208761749615254  0.5692574186686647  0.35116854802997377  1.0000
  H   H28       1.0  0.35089293928417775  0.6188409337784966  0.44221675617690304  1.0000
  H   H29       1.0  0.3895955965169602  0.7235908982648125  0.3055349307064299  1.0000
  H   H30       1.0  0.2541542401961887  0.7641392870734796  0.3439048247917209  1.0000
  H   H31       1.0  0.12696120207188843  0.8274630848987381  0.28085428934534473  1.0000
  H   H32       1.0  0.057031561075577164  0.7031887645377253  0.12799295954331713  1.0000
  Zn  Zn1       1.0  0.8203695254762916  0.44159040844954234  0.5295382912463202  1.0000
  Zn  Zn2       1.0  0.9850027454040238  0.44558915458469195  0.5218954732700825  1.0000
  C   C43       1.0  0.9026435573979266  0.4383608364334146  0.762922252106385  1.0000
  C   C44       1.0  0.9027305116285854  0.44882040890624375  0.2885115565645666  1.0000
  C   C45       1.0  0.9027417895541605  0.6807905823151046  0.5205623192771043  1.0000
  C   C46       1.0  0.9026322229202325  0.20638910129418742  0.5308715611084689  1.0000
  O   O5        1.0  0.9651982813888655  0.45205762726133236  0.3339993723370316  1.0000
  O   O6        1.0  0.9651285920505417  0.4381575942055649  0.7116333403853967  1.0000
  O   O7        1.0  0.9652070732866165  0.6339226591751579  0.5159260191053505  1.0000
  O   O8        1.0  0.9651197439945535  0.2562925702405128  0.5297065988468894  1.0000
  O   O9        1.0  0.8402524707045254  0.630886991430561  0.5217271682708011  1.0000
  O   O10       1.0  0.840173989839333  0.4351234868281739  0.7174344204375127  1.0000
  O   O11       1.0  0.8402436795021565  0.449023474992964  0.33979889091326765  1.0000
  O   O12       1.0  0.840165142084845  0.253258408660211  0.5355062147946013  1.0000
