data_image0
_chemical_formula_structural       NC12NC2H8C6NCOC6H11C7OC3OC4H12Zn2C4O8
_chemical_formula_sum              "N3 C45 H31 O11 Zn2"
_cell_length_a       17.80743265337812
_cell_length_b       10.29965916528486
_cell_length_c       10.299374482448636
_cell_angle_alpha    85.56574019764442
_cell_angle_beta     91.51588487774274
_cell_angle_gamma    89.45195528988225

_space_group_name_H-M_alt    "P 1"
_space_group_IT_number       1

loop_
  _space_group_symop_operation_xyz
  'x, y, z'

loop_
  _atom_site_type_symbol
  _atom_site_label
  _atom_site_symmetry_multiplicity
  _atom_site_fract_x
  _atom_site_fract_y
  _atom_site_fract_z
  _atom_site_occupancy
  N   N1        1.0  0.7079105688847108  0.40692584528562725  0.6018071946351728  1.0000
  C   C1        1.0  0.6571079099160203  0.43649751147192783  0.5331180070315906  1.0000
  C   C2        1.0  0.5939043854881175  0.4732825169449304  0.44767730500196334  1.0000
  C   C3        1.0  0.6056626029574742  0.5273269263325633  0.3210749944746456  1.0000
  C   C4        1.0  0.544365752419864  0.562607904676637  0.23802977644639767  1.0000
  C   C5        1.0  0.4711565425685498  0.5441080622115633  0.2809270513868374  1.0000
  C   C6        1.0  0.4584214492305428  0.489944760194575  0.40799746827336625  1.0000
  C   C7        1.0  0.5205756193183411  0.4546670389365661  0.49102617556118533  1.0000
  C   C8        1.0  0.3806433390301572  0.47033025243985493  0.4537546797446641  1.0000
  C   C9        1.0  0.3618401078900128  0.4974909294348939  0.5808100650758066  1.0000
  C   C10       1.0  0.2886009521497321  0.4790326512759493  0.6237479179922214  1.0000
  C   C11       1.0  0.2332218701121809  0.43315926583338027  0.5404682746456211  1.0000
  C   C12       1.0  0.15784577326105623  0.41414790025708226  0.5848068774057196  1.0000
  N   N2        1.0  0.0972487291927744  0.39886404095182315  0.6204520638148956  1.0000
  C   C13       1.0  0.2513334857626284  0.4058295738100508  0.41395580594756853  1.0000
  C   C14       1.0  0.3245198329620602  0.4243026873236948  0.3707620681940955  1.0000
  H   H1        1.0  0.6621367237937769  0.5421570876441477  0.2866427956401527  1.0000
  H   H2        1.0  0.5535878068492731  0.6047231232618133  0.14026432759379537  1.0000
  H   H3        1.0  0.4245335138652009  0.5737557252542085  0.21534587309369302  1.0000
  H   H4        1.0  0.5120517372619962  0.4111665701941578  0.5886666920876147  1.0000
  H   H5        1.0  0.4035114805756937  0.5346564239141662  0.6463969706720354  1.0000
  H   H6        1.0  0.2751444082713537  0.5008584433420682  0.7217656107278034  1.0000
  H   H7        1.0  0.20894537542037062  0.36993124926439425  0.348782303638312  1.0000
  H   H8        1.0  0.3374476731428291  0.4009413261864203  0.2730471766298088  1.0000
  C   C15       1.0  0.9025171852770415  0.021535587631467568  0.6110111372221803  1.0000
  C   C16       1.0  0.9030528713521208  0.03083773502304532  0.474217922980543  1.0000
  C   C17       1.0  0.9044305109500125  0.9186648961611146  0.4054468545755623  1.0000
  C   C18       1.0  0.9031943631398587  0.7956444424777905  0.47452108934185877  1.0000
  C   C19       1.0  0.9026492877102924  0.7842441439081982  0.6112596291986188  1.0000
  C   C20       1.0  0.9025781304409859  0.8977922215937391  0.6787455056043223  1.0000
  N   N3        1.0  0.9038241099578666  0.9317833105719155  0.26534874097228145  1.0000
  C   C21       1.0  0.9390536752451001  0.8399437914285732  0.1873080475779061  1.0000
  O   O1        1.0  0.9908702522590457  0.7660411114802297  0.23676849407974387  1.0000
  C   C22       1.0  0.9172427346204587  0.8342314994167506  0.04789442545371858  1.0000
  C   C23       1.0  0.8477841991340919  0.8855379855380608  0.9982214218707957  1.0000
  C   C24       1.0  0.8276772813558998  0.8789718151390797  0.8667331754138359  1.0000
  C   C25       1.0  0.876329361260209  0.8208976327911719  0.7836046525284766  1.0000
  C   C26       1.0  0.9451268220464842  0.7688176393722617  0.8318697503652883  1.0000
  C   C27       1.0  0.965520555790301  0.7750215630335966  0.9632672552641695  1.0000
  H   H9        1.0  0.9007896623842518  0.21126745341367847  0.8690126508157372  1.0000
  H   H10       1.0  0.9029763072958256  0.12546135045536078  0.4203901562409367  1.0000
  H   H11       1.0  0.9013383747248461  0.7089047603916869  0.4216257901840288  1.0000
  H   H12       1.0  0.9021752222930358  0.889755719676467  0.7841981182114592  1.0000
  H   H13       1.0  0.9014407275516342  0.45244260323438146  0.6636643153548012  1.0000
  H   H14       1.0  0.8823972196898173  0.018370790758657662  0.21838127483336156  1.0000
  H   H15       1.0  0.8084050767298646  0.9290349431720586  0.060819280021756184  1.0000
  H   H16       1.0  0.7741439968542404  0.91852184582606  0.8293830959008255  1.0000
  H   H17       1.0  0.8606153191348619  0.8158896080634247  0.6818925843810137  1.0000
  H   H18       1.0  0.9827287701720853  0.7235621239483644  0.767423030915225  1.0000
  H   H19       1.0  0.019242373259291456  0.7342820339530224  0.9984076101596693  1.0000
  C   C28       1.0  0.9026528518765463  0.4029759300779252  0.22975622017485287  1.0000
  C   C29       1.0  0.9811262656543185  0.41601501896724713  0.23114747834305072  1.0000
  C   C30       1.0  0.02061144052859354  0.4240648881796638  0.1145573376297937  1.0000
  C   C31       1.0  0.9809466838788313  0.4159548681299099  0.995900007407077  1.0000
  C   C32       1.0  0.9025136230045516  0.4028038239244991  0.992514524556201  1.0000
  C   C33       1.0  0.8637993395024479  0.39673191089876503  0.10996969003058998  1.0000
  C   C34       1.0  0.10356187902562142  0.43647295980293443  0.11599518378206475  1.0000
  O   O2        1.0  0.14040975275779455  0.38216917444018805  0.03189564151540014  1.0000
  C   C35       1.0  0.14470708533620913  0.5105006467228121  0.21275716668781142  1.0000
  C   C36       1.0  0.2179959021972553  0.4722661079684398  0.25441948267487047  1.0000
  C   C37       1.0  0.25813560874393193  0.5416973931233153  0.3445673633450568  1.0000
  O   O3        1.0  0.3308133767957526  0.49830127041116934  0.3833277294967461  1.0000
  C   C38       1.0  0.37789341927794107  0.5591956747133002  0.47399429524208947  1.0000
  C   C39       1.0  0.2245713710077082  0.6517764646396007  0.39290941059904205  1.0000
  C   C40       1.0  0.1521599124624482  0.6913260185162968  0.3507789790642273  1.0000
  C   C41       1.0  0.11245376655004735  0.6216527520781452  0.260892819533576  1.0000
  H   H20       1.0  0.7546919440185094  0.37637943146491626  0.4346121733979049  1.0000
  H   H21       1.0  0.011724120985031616  0.418473361622405  0.32320502644893767  1.0000
  H   H22       1.0  0.011371717336803533  0.42118031953906154  0.905965264265296  1.0000
  H   H23       1.0  0.8033020706945275  0.3866788746112626  0.10809341591265231  1.0000
  H   H24       1.0  0.8724537961184822  0.3966668471492858  0.6638440781291446  1.0000
  H   H25       1.0  0.2440346751179432  0.38741680965365055  0.21776115999842482  1.0000
  H   H26       1.0  0.43196090393734443  0.5047201736767077  0.486525250532871  1.0000
  H   H27       1.0  0.35076529427504743  0.5579565045065067  0.5699293025444214  1.0000
  H   H28       1.0  0.38946087553205344  0.6609595226984635  0.4369190926579378  1.0000
  H   H29       1.0  0.25402043504812877  0.7076030937352413  0.4625285543483719  1.0000
  H   H30       1.0  0.12682677830613254  0.77664974394081  0.38750018004449927  1.0000
  H   H31       1.0  0.05690611564136905  0.6555289574318353  0.22801894694503266  1.0000
  Zn  Zn1       1.0  0.8202651531540098  0.4045959138176418  0.6071951871331795  1.0000
  Zn  Zn2       1.0  0.9848941386611327  0.4011833768380011  0.6150746612013069  1.0000
  C   C42       1.0  0.902537375178518  0.3976628522233676  0.8483351428954549  1.0000
  C   C43       1.0  0.9026237146405918  0.40811803971693217  0.37393491948642654  1.0000
  C   C44       1.0  0.9026214049420876  0.640077267214942  0.6060371820183805  1.0000
  C   C45       1.0  0.9025396284177537  0.16570206561100864  0.6162329464068947  1.0000
  O   O4        1.0  0.9650897769654376  0.408543073087968  0.42531282556266503  1.0000
  O   O5        1.0  0.965020903496689  0.39464680263209684  0.8029372011429952  1.0000
  O   O6        1.0  0.9650879161427607  0.5903995256395753  0.6072798435662938  1.0000
  O   O7        1.0  0.9650227081620277  0.21279036055691525  0.6209700830763751  1.0000
  O   O8        1.0  0.8401365274733233  0.5929889312646748  0.6012997625624026  1.0000
  O   O9        1.0  0.8400695151067286  0.3972377685374924  0.796957051400002  1.0000
  O   O10       1.0  0.8401383889025984  0.41113399408979845  0.4193311143646248  1.0000
  O   O11       1.0  0.8400713200767351  0.21538127224826664  0.6149884692456182  1.0000
