data_image0
_chemical_formula_structural       NC11NC3H8C7OC3OC4H12C7OC6OCH12Zn2C4O8
_chemical_formula_sum              "N2 C46 H32 O12 Zn2"
_cell_length_a       17.807433833752565
_cell_length_b       10.299371110280156
_cell_length_c       10.299362532796529
_cell_angle_alpha    85.59679077391144
_cell_angle_beta     88.53944106115836
_cell_angle_gamma    90.69823053252264

_space_group_name_H-M_alt    "P 1"
_space_group_IT_number       1

loop_
  _space_group_symop_operation_xyz
  'x, y, z'

loop_
  _atom_site_type_symbol
  _atom_site_label
  _atom_site_symmetry_multiplicity
  _atom_site_fract_x
  _atom_site_fract_y
  _atom_site_fract_z
  _atom_site_occupancy
  N   N1        1.0  0.7073769148699096  0.43802179570744637  0.5351475083307324  1.0000
  C   C1        1.0  0.6565631493392917  0.403315948203371  0.6016973616720716  1.0000
  C   C2        1.0  0.5933456984571143  0.3601447337045611  0.6844768860286585  1.0000
  C   C3        1.0  0.6050834083068507  0.2966330155198722  0.8071724196947467  1.0000
  C   C4        1.0  0.5437732196491021  0.25514086318817064  0.8876686016309878  1.0000
  C   C5        1.0  0.4705710312832168  0.2768473616287608  0.8461099320564407  1.0000
  C   C6        1.0  0.4578564772639264  0.34051348628424893  0.7229542600736105  1.0000
  C   C7        1.0  0.3800858152920481  0.36354923097492  0.67861542298757  1.0000
  C   C8        1.0  0.3612798903414507  0.3466357352099494  0.549032084161249  1.0000
  C   C9        1.0  0.2880477474626418  0.36830349139561736  0.5074293313847547  1.0000
  C   C10       1.0  0.23267837089231364  0.4072030126340196  0.5945897620128964  1.0000
  C   C11       1.0  0.157309383091493  0.4295288062472906  0.5516259539044899  1.0000
  N   N2        1.0  0.09671809060613641  0.44747708566829614  0.51708617907185  1.0000
  C   C12       1.0  0.2507926779960367  0.4243269181812568  0.7236420450292931  1.0000
  C   C13       1.0  0.3239720941267767  0.40262431287558176  0.7655002109389804  1.0000
  C   C14       1.0  0.5200239797455987  0.3820010788661987  0.6424744921752426  1.0000
  H   H1        1.0  0.6615520557092119  0.2792290176847634  0.840531690188346  1.0000
  H   H2        1.0  0.552979426775042  0.20571834162245817  0.982386938661276  1.0000
  H   H3        1.0  0.42393700741947604  0.24231125077958193  0.9095366164914553  1.0000
  H   H4        1.0  0.40294337077284936  0.31497189109642854  0.48030665572217357  1.0000
  H   H5        1.0  0.2745889002772043  0.3543909139902779  0.4073922357096025  1.0000
  H   H6        1.0  0.2084121714410225  0.45476756506944604  0.7918523193713503  1.0000
  H   H7        1.0  0.33690268623467  0.4180822503098358  0.8653550554681908  1.0000
  H   H8        1.0  0.5115164677688401  0.4327860352166535  0.5479909072122096  1.0000
  C   C15       1.0  0.9020004256941004  0.06137686114679619  0.5260042024360381  1.0000
  C   C16       1.0  0.8933236904475463  0.07041327790984742  0.39042427975789895  1.0000
  C   C17       1.0  0.8880988077921799  0.9577635194204948  0.322249069351487  1.0000
  C   C18       1.0  0.8933610278437825  0.8351463960027588  0.3907336275507607  1.0000
  C   C19       1.0  0.9021017663911195  0.8241122145679104  0.5262403488034908  1.0000
  C   C20       1.0  0.9061742020322926  0.9378183526909931  0.5931383439121414  1.0000
  C   C21       1.0  0.8797202244623014  0.9671962936825726  0.17889355270774532  1.0000
  O   O1        1.0  0.9105061759537822  0.8828862551319797  0.11344372140677006  1.0000
  C   C22       1.0  0.8364081727432385  0.07219254008148934  0.10979334224755921  1.0000
  C   C23       1.0  0.8573876130235226  0.11782450214672768  0.9816800590094403  1.0000
  C   C24       1.0  0.8167420167687189  0.21583019195477626  0.9141861575147505  1.0000
  O   O2        1.0  0.8407081414851457  0.25818235246163423  0.7869790132203582  1.0000
  C   C25       1.0  0.8048853892960323  0.3567734282017274  0.7072074295432835  1.0000
  C   C26       1.0  0.7537309347438013  0.26817602331577994  0.9755961551522527  1.0000
  C   C27       1.0  0.7319799737893995  0.22223503823461788  0.10222819980446674  1.0000
  C   C28       1.0  0.7727587742136095  0.12451366188328783  0.16896375919955497  1.0000
  H   H9        1.0  0.9195207212457812  0.2516914230893381  0.7815793641320985  1.0000
  H   H10       1.0  0.8914553771177061  0.16528669059721057  0.3374822763141896  1.0000
  H   H11       1.0  0.8898988573683104  0.7481864089604398  0.338172824756209  1.0000
  H   H12       1.0  0.9128638126785497  0.9300481480008189  0.6976605076147591  1.0000
  H   H13       1.0  0.906084436285781  0.4924412187910454  0.5781414356220524  1.0000
  H   H14       1.0  0.9059543242031484  0.07809454018793893  0.9340551192147983  1.0000
  H   H15       1.0  0.8355170659253605  0.37058079767580465  0.6119173990726114  1.0000
  H   H16       1.0  0.8059993834653615  0.4502710509380776  0.7541738864979588  1.0000
  H   H17       1.0  0.7460073990215946  0.327104395168198  0.6901749252187575  1.0000
  H   H18       1.0  0.7210911521783162  0.34386757112445254  0.9262228335351175  1.0000
  H   H19       1.0  0.683129143517305  0.2621191444943445  0.1486446116068456  1.0000
  H   H20       1.0  0.7540326827150874  0.08893907440963611  0.2662092364250317  1.0000
  C   C29       1.0  0.9019924461562813  0.4426225736345517  0.14475806984645567  1.0000
  C   C30       1.0  0.8306715437099094  0.38220967777700077  0.15133574545244444  1.0000
  C   C31       1.0  0.7943756024507536  0.3530545854958098  0.03749726047176005  1.0000
  C   C32       1.0  0.8308831277538031  0.38237837462156743  0.9160716819391626  1.0000
  C   C33       1.0  0.9021097493807885  0.44286647764472864  0.907486479393099  1.0000
  C   C34       1.0  0.9371917630283882  0.47289369123253544  0.02239040886139576  1.0000
  C   C35       1.0  0.7194443807310358  0.2879369400960996  0.046756114704544105  1.0000
  O   O3        1.0  0.7040850304226465  0.20835703464697453  0.14334018208019472  1.0000
  C   C36       1.0  0.6619405414919046  0.3130917619631113  0.9465172678765938  1.0000
  C   C37       1.0  0.6561797459338369  0.4363248838779601  0.878970065304645  1.0000
  C   C38       1.0  0.6011944213546453  0.45916924418659466  0.7858328594980679  1.0000
  C   C39       1.0  0.5506461682064229  0.36027699141667746  0.7590981252703854  1.0000
  C   C40       1.0  0.5556169257702418  0.23721823839475475  0.8276002545215739  1.0000
  C   C41       1.0  0.6105955011045153  0.2142465145772363  0.9208101382692617  1.0000
  O   O4        1.0  0.4965690341293754  0.38812340729049755  0.664631399624414  1.0000
  C   C42       1.0  0.4417816902553832  0.2970312856521049  0.6277720015651855  1.0000
  H   H21       1.0  0.03670312118854868  0.5561333702234397  0.3396480142048348  1.0000
  H   H22       1.0  0.8028528577980976  0.35879306720350557  0.2451531431414513  1.0000
  H   H23       1.0  0.8040240449061096  0.3566459253213874  0.8282556718783387  1.0000
  H   H24       1.0  0.9921381027311817  0.5195516813320382  0.016500323753515067  1.0000
  H   H25       1.0  0.9295597566631553  0.46559121713096263  0.5767508525665019  1.0000
  H   H26       1.0  0.6936357967382856  0.5154855350473817  0.8990814083026097  1.0000
  H   H27       1.0  0.5976276385836604  0.5545423714219504  0.7344648267455378  1.0000
  H   H28       1.0  0.5172980098925779  0.15872242327393393  0.8096259317544563  1.0000
  H   H29       1.0  0.6134323530750314  0.1186737916897449  0.9720987826303964  1.0000
  H   H30       1.0  0.4065006023240216  0.34486973062742976  0.5513406545461415  1.0000
  H   H31       1.0  0.40509280524144714  0.2639271528135956  0.7130134855203032  1.0000
  H   H32       1.0  0.46977533561774204  0.21239084542279363  0.5877906204089829  1.0000
  Zn  Zn1       1.0  0.8197323684431992  0.4407469158651658  0.52994288220337  1.0000
  Zn  Zn2       1.0  0.9843626224892811  0.44474134919964814  0.5223013877941505  1.0000
  C   C43       1.0  0.9020852029971774  0.43764661510421776  0.7633129411315807  1.0000
  C   C44       1.0  0.90201158592986  0.4478433322561328  0.2889313733932237  1.0000
  C   C45       1.0  0.9020779417754428  0.6799372388998399  0.5210207694900229  1.0000
  C   C46       1.0  0.9020187907781477  0.2055511468017186  0.5312236163970174  1.0000
  O   O5        1.0  0.9644943320926979  0.4511056673779308  0.33441734204456974  1.0000
  O   O6        1.0  0.9645530101828877  0.4374149826067131  0.712026880891065  1.0000
  O   O7        1.0  0.9645463046514411  0.633067705502063  0.5163742775439473  1.0000
  O   O8        1.0  0.9645009814332508  0.255452952378725  0.5300698506286248  1.0000
  O   O9        1.0  0.8395939533190027  0.6300353113243964  0.5221744219697322  1.0000
  O   O10       1.0  0.8396006590436694  0.4343841487261457  0.7178269565554507  1.0000
  O   O11       1.0  0.8395419807573242  0.4480747877428426  0.34021585631125495  1.0000
  O   O12       1.0  0.839548630108544  0.25242206348579965  0.5358684622592096  1.0000
