data_image0
_chemical_formula_structural       NC10NC3NH7C7OC6OCH12C7OC6H10Zn2C4O8
_chemical_formula_sum              "N3 C44 H29 O11 Zn2"
_cell_length_a       19.210446455230148
_cell_length_b       10.299359160628079
_cell_length_c       10.299382801718286
_cell_angle_alpha    85.57723515363111
_cell_angle_beta     89.97114799571779
_cell_angle_gamma    89.96984927250973

_space_group_name_H-M_alt    "P 1"
_space_group_IT_number       1

loop_
  _space_group_symop_operation_xyz
  'x, y, z'

loop_
  _atom_site_type_symbol
  _atom_site_label
  _atom_site_symmetry_multiplicity
  _atom_site_fract_x
  _atom_site_fract_y
  _atom_site_fract_z
  _atom_site_occupancy
  N   N1        1.0  0.6560307022900421  0.41995686633807017  0.5675272385648711  1.0000
  C   C1        1.0  0.5958024057679352  0.422164438326289  0.5677587057258158  1.0000
  C   C2        1.0  0.5209982796873073  0.42490142330585057  0.5680454649570432  1.0000
  C   C3        1.0  0.4854001650140802  0.5411353965748451  0.5831740353143209  1.0000
  C   C4        1.0  0.4127347136116458  0.5412869261823783  0.5831214599985317  1.0000
  C   C5        1.0  0.3758316037076834  0.42561041033715674  0.568132050512764  1.0000
  C   C6        1.0  0.2985093233101684  0.4242538983894808  0.5679812625616882  1.0000
  C   C7        1.0  0.2607787516300873  0.5278147163918405  0.5046346317869261  1.0000
  C   C8        1.0  0.1880002324964964  0.5264124558663175  0.5045253548588524  1.0000
  C   C9        1.0  0.1519509155482488  0.42170688067890416  0.567711749287138  1.0000
  C   C10       1.0  0.0770212492203662  0.4204047655059553  0.5675747324619345  1.0000
  N   N2        1.0  0.0167832792874398  0.4193578207036015  0.5674646058038766  1.0000
  C   C11       1.0  0.1889578500234734  0.31827175203396396  0.6310333898525391  1.0000
  C   C12       1.0  0.2617381745238932  0.3193997507041706  0.6311928728138094  1.0000
  C   C13       1.0  0.4140397692496688  0.3111967557435358  0.5532919073966074  1.0000
  N   N3        1.0  0.48481000548163544  0.3136417777757421  0.5534578235211502  1.0000
  H   H1        1.0  0.5135107280857978  0.6305717243267681  0.5952353703531335  1.0000
  H   H2        1.0  0.3854753111699533  0.6313053546386496  0.596577598787696  1.0000
  H   H3        1.0  0.2875244848883145  0.6090602810796462  0.4536558989317896  1.0000
  H   H4        1.0  0.1598719564877721  0.6068305290836744  0.45487689203588233  1.0000
  H   H5        1.0  0.1615726863331069  0.23689025776937345  0.6805822289124688  1.0000
  H   H6        1.0  0.2892213658198968  0.23910110214013702  0.6822790751892203  1.0000
  H   H7        1.0  0.3877648743242139  0.2203153919081109  0.5397893968630769  1.0000
  C   C14       1.0  0.8363284081658253  0.03827919344681674  0.567464449131347  1.0000
  C   C15       1.0  0.7787683913495862  0.04363961459962473  0.4830777660089982  1.0000
  C   C16       1.0  0.7502358976927468  0.929357626079639  0.4394222113854245  1.0000
  C   C17       1.0  0.7789341541149353  0.8083778748943364  0.4833328426512773  1.0000
  C   C18       1.0  0.836492226378195  0.8010254828760512  0.5675386668625517  1.0000
  C   C19       1.0  0.864954049617299  0.9165627130320607  0.6089087174206367  1.0000
  C   C20       1.0  0.6889745220440362  0.9371552240073048  0.35149964706538395  1.0000
  O   O1        1.0  0.6447367097285532  0.026103565002167706  0.3630738200974897  1.0000
  C   C21       1.0  0.6778966329716868  0.8441164436146404  0.2504544098888093  1.0000
  C   C22       1.0  0.7345270083539762  0.7906613719501612  0.18638962302852846  1.0000
  C   C23       1.0  0.7233561402800416  0.7042749820389305  0.09031007711083539  1.0000
  C   C24       1.0  0.6557387322948232  0.6704663115579385  0.05555923004309049  1.0000
  C   C25       1.0  0.5988742933522053  0.7249562978227486  0.11831230297312567  1.0000
  C   C26       1.0  0.609981500769885  0.8114016916329738  0.21443828127705844  1.0000
  O   O2        1.0  0.6473254737996379  0.5832347972290478  0.9586627146391815  1.0000
  C   C27       1.0  0.5817354423038241  0.5404907178305853  0.9138061718163399  1.0000
  H   H8        1.0  0.9447620919714989  0.23540235666305342  0.7271203705398981  1.0000
  H   H9        1.0  0.7563876052653209  0.13699854745632245  0.45009697718479535  1.0000
  H   H10       1.0  0.7558313438809146  0.7197732703264679  0.4528854955135966  1.0000
  H   H11       1.0  0.9093539651385842  0.9116232441491363  0.6738695208819234  1.0000
  H   H12       1.0  0.8583938235702238  0.47069994462169024  0.6002528742330109  1.0000
  H   H13       1.0  0.7874446777590286  0.8166659094638774  0.20951147894217037  1.0000
  H   H14       1.0  0.767542080911708  0.6637447558509882  0.042121305236409556  1.0000
  H   H15       1.0  0.5459278340670614  0.7012284856570092  0.09354584192854953  1.0000
  H   H16       1.0  0.5654067135913291  0.8518865698318382  0.2615763629534722  1.0000
  H   H17       1.0  0.5904387308632322  0.4720662918714773  0.8373301011013741  1.0000
  H   H18       1.0  0.5511561078734223  0.6248816543246903  0.8713015958524655  1.0000
  H   H19       1.0  0.5524999974843515  0.48898539628047377  0.9953466972928289  1.0000
  C   C28       1.0  0.8364797363149905  0.419579019078713  0.18613173034098462  1.0000
  C   C29       1.0  0.9096096328527933  0.4203210757789404  0.18481546503865975  1.0000
  C   C30       1.0  0.9464939592752277  0.4192072362922046  0.06709331787632289  1.0000
  C   C31       1.0  0.9094400120163815  0.42034939482631994  0.9495699285228563  1.0000
  C   C32       1.0  0.836340862948223  0.4197257086542032  0.9488713028542297  1.0000
  C   C33       1.0  0.8002846776596862  0.41899940890956566  0.0677179209188219  1.0000
  C   C34       1.0  0.02370992150254958  0.42137473659806757  0.0654516458643919  1.0000
  O   O3        1.0  0.05439343196400026  0.4820340917382211  0.9709253721610369  1.0000
  C   C35       1.0  0.06611714647855949  0.3547195590732173  0.1709439695664059  1.0000
  C   C36       1.0  0.131555742132073  0.40507188012843787  0.2020389384352166  1.0000
  C   C37       1.0  0.1722660414364925  0.3420689213504011  0.30028015701782773  1.0000
  C   C38       1.0  0.14839001307891286  0.227802301614209  0.36763711730781146  1.0000
  C   C39       1.0  0.08387415593272074  0.1760014514043413  0.3365188285209091  1.0000
  C   C40       1.0  0.042965477402676644  0.23862601831202568  0.23837966823012713  1.0000
  H   H20       1.0  0.698473106514946  0.42019038781169393  0.3957804591721452  1.0000
  H   H21       1.0  0.9379685111139485  0.42322453095604384  0.27540967390128523  1.0000
  H   H22       1.0  0.9378054392268206  0.42047364912046836  0.8586135388390339  1.0000
  H   H23       1.0  0.7439070375846977  0.41842813783106925  0.06792842707066438  1.0000
  H   H24       1.0  0.8082596313041912  0.4205911192965708  0.6210612184227009  1.0000
  H   H25       1.0  0.15090049119254245  0.4937148892995542  0.15110873150573045  1.0000
  H   H26       1.0  0.2223814326406699  0.38187039178100735  0.3241480310423841  1.0000
  H   H27       1.0  0.18000129391589237  0.17912140420409495  0.44357029259879055  1.0000
  H   H28       1.0  0.06566236307553508  0.08690064158194177  0.38807755641510844  1.0000
  H   H29       1.0  0.9936852270339702  0.19554091496846748  0.21432510864134824  1.0000
  Zn  Zn1       1.0  0.760136100378264  0.419780532012767  0.5675166628508674  1.0000
  Zn  Zn2       1.0  0.9126778610503246  0.41952357427025055  0.5674858162908192  1.0000
  C   C41       1.0  0.836364469953289  0.4145241734025271  0.8046967222724126  1.0000
  C   C42       1.0  0.8364511575553033  0.42478156875833095  0.33030588415853845  1.0000
  C   C43       1.0  0.8364586137802786  0.6568492441019027  0.5623494217973737  1.0000
  C   C44       1.0  0.8363569613287647  0.18245493781955657  0.5726532537311531  1.0000
  O   O4        1.0  0.8943303682426377  0.426424411953813  0.37868034056708466  1.0000
  O   O5        1.0  0.8942609258976085  0.4126853254079308  0.7562984800963417  1.0000
  O   O6        1.0  0.8943361676139386  0.6083658861906971  0.5606013206045204  1.0000
  O   O7        1.0  0.8942550744938588  0.23074386053045037  0.5743774026954391  1.0000
  O   O8        1.0  0.7785588348797149  0.608560245841667  0.560625076449943  1.0000
  O   O9        1.0  0.7784835935079192  0.4128812453873998  0.7563221668478848  1.0000
  O   O10       1.0  0.7785530361737574  0.426620286375869  0.378702465909877  1.0000
  O   O11       1.0  0.7784777424024124  0.23093972568220256  0.574399625405394  1.0000
