data_image0
_chemical_formula_structural       NC8NC6H8C6NCOC6H11C7OC3NC3H11Zn2C4O8
_chemical_formula_sum              "N4 C44 H30 O10 Zn2"
_cell_length_a       17.457602349358154
_cell_length_b       10.29965916528486
_cell_length_c       10.298749378158432
_cell_angle_alpha    85.57464278776027
_cell_angle_beta     92.88501269270333
_cell_angle_gamma    91.70433465767697

_space_group_name_H-M_alt    "P 1"
_space_group_IT_number       1

loop_
  _space_group_symop_operation_xyz
  'x, y, z'

loop_
  _atom_site_type_symbol
  _atom_site_label
  _atom_site_symmetry_multiplicity
  _atom_site_fract_x
  _atom_site_fract_y
  _atom_site_fract_z
  _atom_site_occupancy
  N   N1        1.0  0.7225546382144137  0.4529017768307657  0.6268606413231743  1.0000
  C   C1        1.0  0.6614675928310124  0.40697823274403233  0.6162286843953131  1.0000
  C   C2        1.0  0.5854727272376443  0.3498550574842041  0.6030120747202323  1.0000
  C   C3        1.0  0.5269581559414682  0.39001075666394147  0.6779300421927958  1.0000
  C   C4        1.0  0.4524018049798437  0.3350057580612471  0.6653286308831288  1.0000
  C   C5        1.0  0.3902971446374264  0.3774042451901145  0.7446695573463251  1.0000
  C   C6        1.0  0.3157485747481844  0.39587626872391324  0.6889070005153475  1.0000
  C   C7        1.0  0.25723397807752263  0.435848038366486  0.7639328706329884  1.0000
  C   C8        1.0  0.1812471545036956  0.4549260613886521  0.7059548482370124  1.0000
  N   N2        1.0  0.12016666374264891  0.47025841231743404  0.6593406671744511  1.0000
  C   C9        1.0  0.2727758788085823  0.45759088474331433  0.8952299431254915  1.0000
  C   C10       1.0  0.3465398494925547  0.4395078124327638  0.951380263207644  1.0000
  C   C11       1.0  0.4050429155813135  0.3997160607844932  0.8768122166838288  1.0000
  C   C12       1.0  0.4376484183008987  0.23916775681813807  0.5763759744410606  1.0000
  C   C13       1.0  0.4961513578859326  0.1992907034753313  0.5018581399522213  1.0000
  C   C14       1.0  0.5699230141076844  0.25440803610489726  0.5150095894393665  1.0000
  H   H1        1.0  0.5393216859945801  0.4651988302334302  0.7445919052384169  1.0000
  H   H2        1.0  0.3033914571892726  0.38091359024820104  0.5868680759399507  1.0000
  H   H3        1.0  0.2279258318201389  0.488468831585843  0.9540814958237103  1.0000
  H   H4        1.0  0.3583834970481208  0.4560281471213741  0.05304640972627772  1.0000
  H   H5        1.0  0.4615301552056963  0.38472124899158344  0.9229179736194364  1.0000
  H   H6        1.0  0.3811547519437995  0.1938338717538104  0.5657080930364722  1.0000
  H   H7        1.0  0.48430172401092164  0.12521915505707404  0.43399821505885416  1.0000
  H   H8        1.0  0.6147729985248109  0.22266037200060884  0.4566689204272345  1.0000
  C   C15       1.0  0.9212968216967133  0.08021661454672002  0.6429799541126262  1.0000
  C   C16       1.0  0.9218056967188847  0.0895307277306332  0.5061960046414218  1.0000
  C   C17       1.0  0.9231933957846933  0.977436254193053  0.4374689748892109  1.0000
  C   C18       1.0  0.9219502781005553  0.8543467224782461  0.5065042201036634  1.0000
  C   C19       1.0  0.921431799052426  0.842933836003324  0.643233157665257  1.0000
  C   C20       1.0  0.921377970220071  0.9564886169174457  0.7107213252346822  1.0000
  N   N3        1.0  0.9225350058225532  0.9904915253943384  0.2973393096890713  1.0000
  C   C21       1.0  0.9584909799993624  0.900938601775343  0.22054481098893564  1.0000
  O   O1        1.0  0.011421829723673893  0.8304267259883628  0.2718499231733944  1.0000
  C   C22       1.0  0.9361779057584002  0.8937790898705722  0.08034625183034261  1.0000
  C   C23       1.0  0.86523036353477  0.9405431027852401  0.02820171779410363  1.0000
  C   C24       1.0  0.8446597141554577  0.9326422805544807  0.895989647200965  1.0000
  C   C25       1.0  0.8943218459982114  0.87773003425418  0.8145838810451078  1.0000
  C   C26       1.0  0.9645938807759207  0.8301491236004914  0.8652969196511435  1.0000
  C   C27       1.0  0.985457412101569  0.8377064066323476  0.997428433277991  1.0000
  H   H9        1.0  0.9196046350212589  0.2698790957625725  0.9009385109865267  1.0000
  H   H10       1.0  0.9217124798218223  0.1841402936788885  0.4523616733357283  1.0000
  H   H11       1.0  0.9200401062690561  0.767476990290936  0.45353919691724753  1.0000
  H   H12       1.0  0.9209959438431753  0.9484435465477281  0.8161671527130498  1.0000
  H   H13       1.0  0.9202122013736764  0.5110622150617842  0.6955986440507442  1.0000
  H   H14       1.0  0.9006399459612481  0.07567240125160835  0.24960715454036575  1.0000
  H   H15       1.0  0.8250323940862249  0.9814799929192469  0.08940483738998628  1.0000
  H   H16       1.0  0.7899790788015851  0.9686914801450828  0.8567347692527765  1.0000
  H   H17       1.0  0.8782456793125476  0.8716791232943532  0.712306201770863  1.0000
  H   H18       1.0  0.0029764167086563376  0.7873373542397624  0.8021816606142553  1.0000
  H   H19       1.0  0.04032996755365015  0.8004796441384173  0.03448012770666864  1.0000
  C   C28       1.0  0.9213289367444369  0.4616017022730514  0.26170263020589113  1.0000
  C   C29       1.0  0.9632573578021681  0.5802940508299188  0.2551450954341141  1.0000
  C   C30       1.0  0.9836892460360416  0.6410803734916619  0.13452782316388467  1.0000
  C   C31       1.0  0.9632604155979686  0.5803430446178623  0.01990133131376881  1.0000
  C   C32       1.0  0.9213996744141746  0.4615487590637122  0.024510500562443305  1.0000
  C   C33       1.0  0.9005233650775674  0.4031048116911913  0.14584093493244987  1.0000
  C   C34       1.0  0.028587393711168918  0.765805421226055  0.12755430193109807  1.0000
  O   O2        1.0  0.07652978527247267  0.7862405879441938  0.0401295186418249  1.0000
  C   C35       1.0  0.019099131090330346  0.8673397205670494  0.21970128834252667  1.0000
  C   C36       1.0  0.9473273433183906  0.8867802232708144  0.2705498495297429  1.0000
  C   C37       1.0  0.9387626286255806  0.9839061543329413  0.3565814536936185  1.0000
  N   N4        1.0  0.8657216682704966  0.0025688949934483674  0.4082939951418374  1.0000
  C   C38       1.0  0.002084298071546531  0.06291964424664886  0.3911759458211368  1.0000
  C   C39       1.0  0.07325184982101796  0.04540337195934052  0.3398193112683059  1.0000
  C   C40       1.0  0.08177240610700287  0.9485871766752221  0.2541610035102715  1.0000
  H   H20       1.0  0.8431214768894838  0.2363623136949391  0.48161628254507005  1.0000
  H   H21       1.0  0.9807864667603321  0.6249040383229756  0.3441370826358223  1.0000
  H   H22       1.0  0.9794488241340344  0.6265706237364561  0.926831868644657  1.0000
  H   H23       1.0  0.8682077706411331  0.3116121954229196  0.15014411835512886  1.0000
  H   H24       1.0  0.8425816259432618  0.23686169231013676  0.8259578451775273  1.0000
  H   H25       1.0  0.8978144698062377  0.8276129618767647  0.24244415488212234  1.0000
  H   H26       1.0  0.8181373060744335  0.9442209770746144  0.3831610630313651  1.0000
  H   H27       1.0  0.8587049658662654  0.07477932429668144  0.47223156806114064  1.0000
  H   H28       1.0  0.9962023727731799  0.13827549679979256  0.4574525412669226  1.0000
  H   H29       1.0  0.12194553935649033  0.10699463402524056  0.3664522257443803  1.0000
  H   H30       1.0  0.13750637757021567  0.9363757225802278  0.21570867277610173  1.0000
  Zn  Zn1       1.0  0.8372968800009191  0.4579070437338826  0.636241173177557  1.0000
  Zn  Zn2       1.0  0.0054244068081243935  0.4652424970045719  0.6499707652888607  1.0000
  C   C41       1.0  0.9213836927981606  0.4563851048475691  0.880321625668874  1.0000
  C   C42       1.0  0.9213394302600799  0.4667661545817954  0.4058905907464452  1.0000
  C   C43       1.0  0.9214018661969334  0.698764260983969  0.6380093468003638  1.0000
  C   C44       1.0  0.9213211992214102  0.22438543565659863  0.6482029336569697  1.0000
  O   O3        1.0  0.9851464711964156  0.4712774925789023  0.4594916942499687  1.0000
  O   O4        1.0  0.985181554294258  0.4574402264691184  0.8371405906910556  1.0000
  O   O5        1.0  0.9851953695669052  0.6531644227318671  0.6414716413150106  1.0000
  O   O6        1.0  0.9851325985458431  0.27555330310990933  0.6551605415605086  1.0000
  O   O7        1.0  0.8575886308895264  0.6475962351267293  0.6310513922138414  1.0000
  O   O8        1.0  0.8575748158831019  0.4518735991509615  0.8267202728558061  1.0000
  O   O9        1.0  0.8575397326834256  0.4657108201159643  0.44906981485978403  1.0000
  O   O10       1.0  0.8575258600371043  0.2699866213513997  0.6447387595437626  1.0000
