data_image0
_chemical_formula_structural       NC11NC3H8C7OC6H10C6SCOC6H10Zn2C4O8
_chemical_formula_sum              "N2 C44 H28 O10 S1 Zn2"
_cell_length_a       17.807433833752565
_cell_length_b       10.299379429549807
_cell_length_c       10.302041481415108
_cell_angle_alpha    85.5191038852169
_cell_angle_beta     88.52108606055918
_cell_angle_gamma    90.68187924927143

_space_group_name_H-M_alt    "P 1"
_space_group_IT_number       1

loop_
  _space_group_symop_operation_xyz
  'x, y, z'

loop_
  _atom_site_type_symbol
  _atom_site_label
  _atom_site_symmetry_multiplicity
  _atom_site_fract_x
  _atom_site_fract_y
  _atom_site_fract_z
  _atom_site_occupancy
  N   N1        1.0  0.7074343447657387  0.4390604243976579  0.5344375863740107  1.0000
  C   C1        1.0  0.6566132453613691  0.4043089299995466  0.6009983253823983  1.0000
  C   C2        1.0  0.5933866723183326  0.3610809365112113  0.6837913912145195  1.0000
  C   C3        1.0  0.6051107878166251  0.2974850846468382  0.8065066635520355  1.0000
  C   C4        1.0  0.5437916532918422  0.2559377440227939  0.8870156727936838  1.0000
  C   C5        1.0  0.47059403955898377  0.2776727494613582  0.8454501819646087  1.0000
  C   C6        1.0  0.45789314379838864  0.34142331910795365  0.7222747557367808  1.0000
  C   C7        1.0  0.3801273814456057  0.36448947166625545  0.6779287267920389  1.0000
  C   C8        1.0  0.3613487718931597  0.34766061145038574  0.5483831408031006  1.0000
  C   C9        1.0  0.28812121802924  0.36935690176843305  0.5067736026310525  1.0000
  C   C10       1.0  0.23272922234239982  0.40820087863867394  0.5938894372296313  1.0000
  C   C11       1.0  0.1573649815310474  0.43055613733824316  0.5509186572046796  1.0000
  N   N2        1.0  0.09677750528495162  0.4485281045424778  0.5163732774821208  1.0000
  C   C12       1.0  0.2508162828360906  0.4252405095468037  0.7229039269650657  1.0000
  C   C13       1.0  0.3239910666319947  0.40350919986234457  0.7647688514311664  1.0000
  C   C14       1.0  0.5200695897211065  0.3829660889248121  0.6417821604269711  1.0000
  H   H1        1.0  0.6615757600809428  0.28005820515658075  0.839871395621113  1.0000
  H   H2        1.0  0.5529874264730026  0.20645025330680178  0.9817495217311842  1.0000
  H   H3        1.0  0.4239532510900501  0.24309306059008495  0.9088882591382592  1.0000
  H   H4        1.0  0.4030302403666621  0.3160405138602873  0.4796935680307739  1.0000
  H   H5        1.0  0.2746835900573675  0.3555096191993605  0.4067662486747432  1.0000
  H   H6        1.0  0.2084180751692404  0.45563768828147344  0.7910793022285425  1.0000
  H   H7        1.0  0.33690023585889467  0.4189020403568924  0.864592912556357  1.0000
  H   H8        1.0  0.5115722567382909  0.43381592803344127  0.5472820659813691  1.0000
  C   C15       1.0  0.9021177068310615  0.06240259232761769  0.5255588939095701  1.0000
  C   C16       1.0  0.9476540087134487  0.05358370350433184  0.635167134222657  1.0000
  C   C17       1.0  0.9699169731983077  0.9318790406934443  0.6913340190524877  1.0000
  C   C18       1.0  0.9475625756422097  0.8183595005748342  0.6348951549522512  1.0000
  C   C19       1.0  0.9021013265068037  0.8251761214407204  0.5252628118127631  1.0000
  C   C20       1.0  0.8794794132176541  0.9476738494185409  0.47143526283939274  1.0000
  C   C21       1.0  0.018652396065002463  0.9224999147475954  0.8062444908951867  1.0000
  O   O1        1.0  0.06631276662554741  0.8328682848299824  0.8163866656835148  1.0000
  C   C22       1.0  0.013315994365470374  0.014701139669424323  0.909654094139088  1.0000
  C   C23       1.0  0.07757381337342029  0.045704388519135275  0.9782195947942742  1.0000
  C   C24       1.0  0.07291701060779787  0.13131761322274915  0.07690620955734451  1.0000
  C   C25       1.0  0.004097882248603302  0.18592807833986535  0.10885109809000248  1.0000
  C   C26       1.0  0.9397248026839231  0.15461240383776942  0.04253454924099653  1.0000
  C   C27       1.0  0.9440799201274754  0.06907152537360561  0.9437742841743966  1.0000
  H   H9        1.0  0.8171360101177193  0.2864781561190801  0.3175171401681378  1.0000
  H   H10       1.0  0.9665500762542376  0.14161710175861764  0.6761181843567203  1.0000
  H   H11       1.0  0.9651477477372395  0.7244711014845076  0.6775068736409118  1.0000
  H   H12       1.0  0.8443747098132217  0.95366846406261  0.3869349486554665  1.0000
  H   H13       1.0  0.8851600596688253  0.5004001725069513  0.4824908598875297  1.0000
  H   H14       1.0  0.13146905823976374  0.004576893016026817  0.9546763287065319  1.0000
  H   H15       1.0  0.12271471785237287  0.15528052130282743  0.12867986950439803  1.0000
  H   H16       1.0  0.0005956929576564907  0.25208765667580035  0.1853377439804601  1.0000
  H   H17       1.0  0.8863128986581438  0.19618972499987342  0.0680547740039622  1.0000
  H   H18       1.0  0.8932445832733669  0.044397430794621995  0.8952078155230514  1.0000
  C   C28       1.0  0.9021235968783796  0.4439189718167975  0.14412312356761192  1.0000
  C   C29       1.0  0.9365622169484233  0.5678620792873785  0.13156439508370799  1.0000
  C   C30       1.0  0.9540319885525853  0.62901657346744  0.008344905858331808  1.0000
  C   C31       1.0  0.9366335262510982  0.5674599270018394  0.8964558317864677  1.0000
  C   C32       1.0  0.9020954542423476  0.44365971341109933  0.9066986208342933  1.0000
  C   C33       1.0  0.885074708463676  0.382477580496726  0.031090718143683915  1.0000
  S   S1        1.0  0.9986972057149273  0.7866448154343717  0.9936891220117996  1.0000
  C   C34       1.0  0.09124325410812495  0.7190904482914982  0.9919908390292416  1.0000
  O   O2        1.0  0.12064468214166957  0.6966312840368878  0.8835754534825875  1.0000
  C   C35       1.0  0.13265276569178486  0.6887528754234811  0.11360626803958485  1.0000
  C   C36       1.0  0.19929952254756778  0.6166458170783244  0.1107350217880474  1.0000
  C   C37       1.0  0.23845631243931842  0.5866994270688564  0.22488236236161496  1.0000
  C   C38       1.0  0.21176381497529873  0.6284003619528928  0.3430419055923595  1.0000
  C   C39       1.0  0.1459245057722962  0.7003682348729214  0.3472560172907133  1.0000
  C   C40       1.0  0.10654346945161475  0.7306833285732752  0.23341834146177076  1.0000
  H   H19       1.0  0.8371002338606418  0.21041827046793093  0.3751076732482088  1.0000
  H   H20       1.0  0.9500569655883037  0.6171208903748839  0.21723357188550851  1.0000
  H   H21       1.0  0.9504467104274757  0.6163949316933659  0.801824663008627  1.0000
  H   H22       1.0  0.8585267311088697  0.28692610185367085  0.039851967093811336  1.0000
  H   H23       1.0  0.8891692212010428  0.3964259863845512  0.5832573529147682  1.0000
  H   H24       1.0  0.22100114719965402  0.5827136058341993  0.02042288921581581  1.0000
  H   H25       1.0  0.2895251005157655  0.5309534348400327  0.22168808370594206  1.0000
  H   H26       1.0  0.2421435322678991  0.6050865144290307  0.43130380668128065  1.0000
  H   H27       1.0  0.1253894672394369  0.7329416944813214  0.4388686016128738  1.0000
  H   H28       1.0  0.056044780118288395  0.7873852963114896  0.23981306113489476  1.0000
  Zn  Zn1       1.0  0.8197903702134647  0.44178911498358486  0.5292321013127739  1.0000
  Zn  Zn2       1.0  0.9844214649138728  0.4457887901307773  0.5215893504257749  1.0000
  C   C41       1.0  0.9020991893530702  0.43853470516416615  0.7625575848929245  1.0000
  C   C42       1.0  0.9021144435007937  0.4490448823009068  0.28826391019026554  1.0000
  C   C43       1.0  0.9021007428233491  0.6809973450549531  0.5201448942526896  1.0000
  C   C44       1.0  0.9021128338843916  0.2065806806257655  0.5306766732680022  1.0000
  O   O3        1.0  0.9645880141220173  0.45227737447833416  0.33373849299139824  1.0000
  O   O4        1.0  0.9645768103400801  0.4383368942231691  0.7112819576236278  1.0000
  O   O5        1.0  0.9645772225220873  0.6341285213731815  0.5155320333965885  1.0000
  O   O6        1.0  0.9645875457659655  0.2564857552873776  0.5294883224688445  1.0000
  O   O7        1.0  0.8396242331808594  0.6310921484635086  0.5213331318709697  1.0000
  O   O8        1.0  0.8396238209644628  0.4353020817343738  0.717082986261774  1.0000
  O   O9        1.0  0.8396350248549954  0.4492425172627659  0.339537960576477  1.0000
  O   O10       1.0  0.8396345564924755  0.25345088874927657  0.5352878874047826  1.0000
