data_image0
_chemical_formula_structural       NC10NC5H10C7OC6H10C6NCOC6H11Zn2C4O8
_chemical_formula_sum              "N3 C45 H31 O10 Zn2"
_cell_length_a       19.4436361288709
_cell_length_b       10.299379429549807
_cell_length_c       10.299662537453274
_cell_angle_alpha    85.5174171995128
_cell_angle_beta     89.69093770751046
_cell_angle_gamma    89.41578640036583

_space_group_name_H-M_alt    "P 1"
_space_group_IT_number       1

loop_
  _space_group_symop_operation_xyz
  'x, y, z'

loop_
  _atom_site_type_symbol
  _atom_site_label
  _atom_site_symmetry_multiplicity
  _atom_site_fract_x
  _atom_site_fract_y
  _atom_site_fract_z
  _atom_site_occupancy
  N   N1        1.0  0.6477940185893007  0.4099319144376694  0.5615543237482135  1.0000
  C   C1        1.0  0.5889569290126768  0.41982641018600697  0.575935041397424  1.0000
  C   C2        1.0  0.515626202179382  0.4321661431163637  0.5939232976089233  1.0000
  C   C3        1.0  0.47344929601209373  0.40021982949536095  0.4992590329732802  1.0000
  C   C4        1.0  0.39754402806902484  0.41065575447549807  0.504583463938653  1.0000
  C   C5        1.0  0.35779820977716  0.3858472117340437  0.6116671547561248  1.0000
  C   C6        1.0  0.2816784333332293  0.3897712223649348  0.5987060808595213  1.0000
  C   C7        1.0  0.2411078679940539  0.44738387352489983  0.6924580224437342  1.0000
  C   C8        1.0  0.1694450871249976  0.45102766618165724  0.681912580167908  1.0000
  C   C9        1.0  0.1373581062538866  0.3966626155037616  0.5779018719342197  1.0000
  C   C10       1.0  0.0635660896256622  0.40036774079569737  0.5672011221926578  1.0000
  N   N2        1.0  0.0042423132822246  0.403346467027176  0.5585984288291386  1.0000
  C   C11       1.0  0.1772037719256911  0.3383426221419761  0.48453342848683856  1.0000
  C   C12       1.0  0.2488830000411179  0.33464474184667603  0.4948271073744941  1.0000
  C   C13       1.0  0.3859231714701708  0.3453116074755169  0.7427792301193576  1.0000
  C   C14       1.0  0.44458253773782314  0.38840973058980466  0.7900072215490763  1.0000
  C   C15       1.0  0.4887926018169993  0.4863145523980914  0.7156029070097734  1.0000
  H   H1        1.0  0.4955551092383582  0.3711511143658257  0.40896073351659257  1.0000
  H   H2        1.0  0.3728513451866665  0.4332032527283991  0.41141497308234554  1.0000
  H   H3        1.0  0.2649718155889105  0.4906324030359097  0.773292517062464  1.0000
  H   H4        1.0  0.1390942545935136  0.49630442443731093  0.7548187069983083  1.0000
  H   H5        1.0  0.1528679144924025  0.29528957578976445  0.40403335364714676  1.0000
  H   H6        1.0  0.2785682233627857  0.28712408395368527  0.4226181370110389  1.0000
  H   H7        1.0  0.3549549126515051  0.2810553915647436  0.8070506787622256  1.0000
  H   H8        1.0  0.4597266783409742  0.35428637707723243  0.8879560719205657  1.0000
  H   H9        1.0  0.458683118790715  0.5770478399184771  0.6903177642662017  1.0000
  H   H10       1.0  0.5320728170577025  0.5118670319792402  0.7786800469239086  1.0000
  C   C16       1.0  0.8260289409123667  0.025247034153796477  0.5602303793793721  1.0000
  C   C17       1.0  0.8677078732334821  0.014547513118182254  0.6716318104272505  1.0000
  C   C18       1.0  0.8880847141658682  0.8919233263743557  0.7286760002774826  1.0000
  C   C19       1.0  0.8676241901253468  0.7793270877859492  0.6713562184340673  1.0000
  C   C20       1.0  0.8260139713509407  0.7880212469178882  0.5599335921645947  1.0000
  C   C21       1.0  0.8053082986533189  0.9114532340426713  0.505215352753762  1.0000
  C   C22       1.0  0.9326919873609261  0.8805315125261091  0.8455050808979934  1.0000
  O   O1        1.0  0.9763245079741518  0.788934440459116  0.8574996136804491  1.0000
  C   C23       1.0  0.9277971270927098  0.9729498902773335  0.948731750022243  1.0000
  C   C24       1.0  0.9866194611164721  0.0013017139782829368  0.019807529245930655  1.0000
  C   C25       1.0  0.9823472056506996  0.08710420147062203  0.1183364837501677  1.0000
  C   C26       1.0  0.919339876335878  0.14455136628044496  0.1476175669902987  1.0000
  C   C27       1.0  0.8604118171842158  0.11589180676603394  0.07878679199990324  1.0000
  C   C28       1.0  0.864407884064393  0.030174106826324598  0.9801724597413648  1.0000
  H   H11       1.0  0.7482463390051233  0.2528324073124508  0.3488412842205231  1.0000
  H   H12       1.0  0.885003668827128  0.10180063713193888  0.7133259148188231  1.0000
  H   H13       1.0  0.8837197007778893  0.6847124197825871  0.7146604963722474  1.0000
  H   H14       1.0  0.7731773066578087  0.918897659830055  0.4193326372332453  1.0000
  H   H15       1.0  0.8105079754069813  0.46394502149161243  0.5164940373023448  1.0000
  H   H16       1.0  0.03596310083451382  0.9579526348202528  0.9983507496768738  1.0000
  H   H17       1.0  0.027932712972004836  0.10901237976576272  0.17205520858520107  1.0000
  H   H18       1.0  0.9161266842422424  0.2108532181585674  0.22398617406021426  1.0000
  H   H19       1.0  0.8115105011115031  0.15967072712440689  0.10223975431192678  1.0000
  H   H20       1.0  0.8178721290509966  0.007597436824522408  0.9296214002480638  1.0000
  C   C29       1.0  0.8260687970508651  0.40677379662678126  0.17870556061724452  1.0000
  C   C30       1.0  0.8962785235266961  0.43785312305827695  0.17429675877352957  1.0000
  C   C31       1.0  0.9318493119457096  0.4516218668349723  0.05539150794197001  1.0000
  C   C32       1.0  0.8961581785843217  0.43754525504650044  0.9391545808643436  1.0000
  C   C33       1.0  0.8259741311266419  0.40649446018461566  0.9414584113712632  1.0000
  C   C34       1.0  0.7913844208910608  0.39083839090308503  0.06179861758291527  1.0000
  N   N3        1.0  0.0034700182619396003  0.48538629285512847  0.05430035914493336  1.0000
  C   C35       1.0  0.05214871685549727  0.44463457748834356  0.959699199714044  1.0000
  O   O2        1.0  0.039606063106392586  0.3463023304698898  0.898290057729286  1.0000
  C   C36       1.0  0.11818269435214424  0.5137474113657043  0.9367737999680084  1.0000
  C   C37       1.0  0.1264778295154021  0.6416718998533848  0.9730089721479693  1.0000
  C   C38       1.0  0.18887253007191274  0.7060785204957336  0.9502754534674227  1.0000
  C   C39       1.0  0.24347211656379208  0.644039196895424  0.8908716078065062  1.0000
  C   C40       1.0  0.23573505774150516  0.5175508657102041  0.8536252768313615  1.0000
  C   C41       1.0  0.1734576360556057  0.4526850194451113  0.8760289214136936  1.0000
  H   H21       1.0  0.6934712332635726  0.34935693394860623  0.39419329228105626  1.0000
  H   H22       1.0  0.9238348938686387  0.45056395987413644  0.26348347721659104  1.0000
  H   H23       1.0  0.9227974308926651  0.45301794710854715  0.8468142598505248  1.0000
  H   H24       1.0  0.7372628096951752  0.3668627402012581  0.06433318327862492  1.0000
  H   H25       1.0  0.7988294373999066  0.39626829670840236  0.6147641108847304  1.0000
  H   H26       1.0  0.02223988642539343  0.532246104092043  0.13304892628834364  1.0000
  H   H27       1.0  0.08468570272221054  0.6929822010182263  0.017109714347954608  1.0000
  H   H28       1.0  0.1947872905818382  0.8044545620673051  0.9783039254940258  1.0000
  H   H29       1.0  0.291697612086957  0.6941293433537861  0.8733343383502903  1.0000
  H   H30       1.0  0.27803550739170735  0.46964868393092263  0.8073220084240327  1.0000
  H   H31       1.0  0.16872143260142325  0.35450983796029645  0.8466155521507144  1.0000
  Zn  Zn1       1.0  0.7506572971332579  0.4080280222370376  0.5607088299633933  1.0000
  Zn  Zn2       1.0  0.9013790251357192  0.405239746988473  0.5594546081317207  1.0000
  C   C42       1.0  0.825990574544894  0.4013733083233897  0.7972838223786858  1.0000
  C   C43       1.0  0.8260473935526725  0.4118960691267377  0.3228797288517382  1.0000
  C   C44       1.0  0.8260138994019444  0.6438426371712607  0.5548144540727515  1.0000
  C   C45       1.0  0.8260240172868681  0.16942518080754332  0.5653491674327611  1.0000
  O   O3        1.0  0.8832383207384343  0.4125513485588801  0.3707899283143856  1.0000
  O   O4        1.0  0.8831939515152532  0.39860081284874216  0.7484213240943267  1.0000
  O   O5        1.0  0.8832120154067821  0.5943978761062403  0.5526255995672562  1.0000
  O   O6        1.0  0.8832202054276947  0.2167542955792776  0.5665855558892354  1.0000
  O   O7        1.0  0.7688160654073544  0.5965134745991512  0.553577882627051  1.0000
  O   O8        1.0  0.7687980014906515  0.40071797176589374  0.7493735373002057  1.0000
  O   O9        1.0  0.7688423709542982  0.41466846278826885  0.37174058010604005  1.0000
  O   O10       1.0  0.7688242556288413  0.21887140048368803  0.5675363050542839  1.0000
