data_image0
_chemical_formula_structural       NC12NC2H8C7OC3FC3H9C6NCOC6H11Zn2C4O8
_chemical_formula_sum              "N3 C44 H28 O10 F1 Zn2"
_cell_length_a       17.80743265337812
_cell_length_b       10.29937835083307
_cell_length_c       10.299662537453274
_cell_angle_alpha    85.53091033731847
_cell_angle_beta     91.52043180893111
_cell_angle_gamma    89.45609770286684

_space_group_name_H-M_alt    "P 1"
_space_group_IT_number       1

loop_
  _space_group_symop_operation_xyz
  'x, y, z'

loop_
  _atom_site_type_symbol
  _atom_site_label
  _atom_site_symmetry_multiplicity
  _atom_site_fract_x
  _atom_site_fract_y
  _atom_site_fract_z
  _atom_site_occupancy
  N   N1        1.0  0.7078934870349378  0.40721047671805866  0.6011681742282238  1.0000
  C   C1        1.0  0.6570886276859802  0.4367936292063208  0.5324661416250338  1.0000
  C   C2        1.0  0.5938823663162637  0.47359292229241534  0.44700946129399877  1.0000
  C   C3        1.0  0.6056365124020281  0.5276584732732283  0.3203836915085929  1.0000
  C   C4        1.0  0.5443369853875266  0.562953308807344  0.23732316486330096  1.0000
  C   C5        1.0  0.4711291486017499  0.5444462909822074  0.2802284766596641  1.0000
  C   C6        1.0  0.4583981444868589  0.49026177431182627  0.40732240158387567  1.0000
  C   C7        1.0  0.5205549903900927  0.4549701983815855  0.49036641620741794  1.0000
  C   C8        1.0  0.3806215029794615  0.4706396203147456  0.45308813004663784  1.0000
  C   C9        1.0  0.3618251595416437  0.4977842192525994  0.5801288808401941  1.0000
  C   C10       1.0  0.2885873801987185  0.47931876267525264  0.6230747505125376  1.0000
  C   C11       1.0  0.2332028173556367  0.4334541434694148  0.5398178652924441  1.0000
  C   C12       1.0  0.15782814349276622  0.4144353683933515  0.5841647233210472  1.0000
  N   N2        1.0  0.0972322434081418  0.39914555235816085  0.6198165464119065  1.0000
  C   C13       1.0  0.2513075649230885  0.40614044280205985  0.4133201023040116  1.0000
  C   C14       1.0  0.3244925242470253  0.4246207715049566  0.370118344654081  1.0000
  H   H1        1.0  0.66210953046949  0.5424943928027504  0.2859450506903456  1.0000
  H   H2        1.0  0.5535559089000133  0.6050848774971347  0.1395394215928769  1.0000
  H   H3        1.0  0.42450406775111543  0.5741050098782619  0.21463437135373087  1.0000
  H   H4        1.0  0.5120341857167957  0.411453309570627  0.5880258787294488  1.0000
  H   H5        1.0  0.40350088436178244  0.5349428754087189  0.645697376470219  1.0000
  H   H6        1.0  0.2751361799145625  0.5011322063081589  0.7210807441114626  1.0000
  H   H7        1.0  0.20891516543141553  0.3702489786907752  0.3481644094617471  1.0000
  H   H8        1.0  0.33741498216596494  0.4012716194464383  0.2724158679257984  1.0000
  C   C15       1.0  0.902487269462396  0.02179459804437167  0.6105527363138996  1.0000
  C   C16       1.0  0.8241069462037722  0.02343197369469574  0.5907734378552272  1.0000
  C   C17       1.0  0.7844784919007732  0.9069714241944885  0.5822701063230749  1.0000
  C   C18       1.0  0.8242906407815007  0.7881841630363645  0.5907891117318798  1.0000
  C   C19       1.0  0.9026456337063462  0.7845513353924711  0.6104435257140799  1.0000
  C   C20       1.0  0.9412673540675124  0.9018863659355375  0.6205524402255196  1.0000
  C   C21       1.0  0.7018072974725964  0.9086613535368385  0.5600157632866718  1.0000
  O   O1        1.0  0.6727988343822479  0.8245973211742746  0.4919640994953589  1.0000
  C   C22       1.0  0.6520444734349088  0.005617791490273971  0.614972226775566  1.0000
  C   C23       1.0  0.5851323548134802  0.04702636333568666  0.5479852808531538  1.0000
  C   C24       1.0  0.5374028762577435  0.1372512483510513  0.599761056857276  1.0000
  F   F1        1.0  0.47331127323364003  0.1772930632459988  0.5339705862364075  1.0000
  C   C25       1.0  0.5556717427871127  0.18612422171138854  0.7192433548190076  1.0000
  C   C26       1.0  0.6215051774333611  0.14448518153796597  0.7873932199183753  1.0000
  C   C27       1.0  0.6693899401425131  0.05432853304822971  0.7360296012620364  1.0000
  H   H9        1.0  0.050531593034451205  0.22617742107904237  0.6458887766970112  1.0000
  H   H10       1.0  0.7938806310793126  0.11557289776835189  0.5805123770921168  1.0000
  H   H11       1.0  0.7938783677741283  0.69834786111954  0.5832800202583688  1.0000
  H   H12       1.0  0.0016927586406587647  0.8998200679405478  0.6358000673547208  1.0000
  H   H13       1.0  0.9328168971423133  0.4557828915671767  0.6169011620191651  1.0000
  H   H14       1.0  0.570176907794526  0.010369554074249443  0.4551088785038775  1.0000
  H   H15       1.0  0.5187032805817392  0.2558619969873961  0.7593524118759121  1.0000
  H   H16       1.0  0.6352991690412402  0.1816531310669367  0.8804275657442135  1.0000
  H   H17       1.0  0.7194492937498957  0.021709347938619894  0.7915804627242831  1.0000
  C   C28       1.0  0.9026182026533244  0.4033124142758606  0.2291246030604528  1.0000
  C   C29       1.0  0.9793137911961789  0.4340995853534426  0.22897918261571726  1.0000
  C   C30       1.0  0.018170099145676355  0.4477203581586544  0.11223342656936142  1.0000
  C   C31       1.0  0.9791822706586384  0.4337922239782013  0.9938296340317407  1.0000
  C   C32       1.0  0.9025147372524757  0.4030334772201609  0.9918716467010023  1.0000
  C   C33       1.0  0.8647296060877134  0.38752134989827614  0.1101113590068723  1.0000
  N   N3        1.0  0.09640748360304863  0.48118671006050273  0.11549184794885337  1.0000
  C   C34       1.0  0.14956877085408737  0.44023386766469774  0.023831236793572685  1.0000
  O   O2        1.0  0.13584619300542977  0.3419559482176624  0.9616375361900298  1.0000
  C   C35       1.0  0.22171199748133796  0.5090710043546958  0.004925506536904267  1.0000
  C   C36       1.0  0.2308018874189537  0.6369581156274893  0.04169508946016309  1.0000
  C   C37       1.0  0.2989689374825597  0.7011042540077244  0.022759485792706036  1.0000
  C   C38       1.0  0.3585925978523663  0.6388397157476835  0.9666498180767773  1.0000
  C   C39       1.0  0.35011261085424383  0.5123864121534869  0.928903258528897  1.0000
  C   C40       1.0  0.2820735566045358  0.44778057189579523  0.9475159833880511  1.0000
  H   H18       1.0  0.7577717813872881  0.34644728456839546  0.436560860633884  1.0000
  H   H19       1.0  0.009415892319285524  0.4466957433368681  0.31983934739551145  1.0000
  H   H20       1.0  0.008283257532389898  0.44915398059432077  0.9031078514481394  1.0000
  H   H21       1.0  0.8056083230305419  0.36377090940991796  0.10935946578118916  1.0000
  H   H22       1.0  0.8728628702080974  0.3929202265252316  0.6635294672278254  1.0000
  H   H23       1.0  0.11692011330763763  0.5279675292368182  0.1953897128707489  1.0000
  H   H24       1.0  0.1851650628468411  0.6884407147068923  0.08327531587977499  1.0000
  H   H25       1.0  0.30545203006164034  0.7994534793368133  0.051170783213815074  1.0000
  H   H26       1.0  0.41127967165484725  0.6887285257036417  0.9520480720727726  1.0000
  H   H27       1.0  0.3963054455123691  0.4643097439776287  0.8851521595507768  1.0000
  H   H28       1.0  0.27687782079577317  0.34962730984888024  0.9177912755819086  1.0000
  Zn  Zn1       1.0  0.820248243547097  0.40487964361058393  0.6065571791328037  1.0000
  Zn  Zn2       1.0  0.984877480765098  0.4014657877318515  0.6144381362033211  1.0000
  C   C41       1.0  0.9025315248785825  0.39791237496520426  0.8476967890506133  1.0000
  C   C42       1.0  0.9025959975027249  0.40843465773301135  0.37329873957867443  1.0000
  C   C43       1.0  0.9026125463833204  0.6403760265852527  0.605288745173129  1.0000
  C   C44       1.0  0.9025149194881475  0.1659694468909283  0.6157068502298275  1.0000
  O   O3        1.0  0.9650644816266103  0.4088525229591582  0.42467567978878296  1.0000
  O   O4        1.0  0.9650128223891968  0.3949024924954798  0.8023009391938265  1.0000
  O   O5        1.0  0.9650774058901891  0.5906949745207477  0.6065546881745139  1.0000
  O   O6        1.0  0.964999841963952  0.21306005142499052  0.6204218307416838  1.0000
  O   O7        1.0  0.8401258261683654  0.5932853810838428  0.600573481898226  1.0000
  O   O8        1.0  0.8400612429973346  0.39749445944700756  0.7963196634476555  1.0000
  O   O9        1.0  0.840112902487166  0.41144444522295265  0.41869284263192097  1.0000
  O   O10       1.0  0.8400482628062959  0.21565196436408263  0.6144390909550193  1.0000
