data_image0
_chemical_formula_structural       NC10NC3NCH9C7OC6H10C7OC6OCH12Zn2C4O8
_chemical_formula_sum              "N3 C45 H31 O11 Zn2"
_cell_length_a       19.437513618241372
_cell_length_b       10.299379429549807
_cell_length_c       10.299362532796529
_cell_angle_alpha    85.55652278512687
_cell_angle_beta     90.36260544927384
_cell_angle_gamma    89.52020702266324

_space_group_name_H-M_alt    "P 1"
_space_group_IT_number       1

loop_
  _space_group_symop_operation_xyz
  'x, y, z'

loop_
  _atom_site_type_symbol
  _atom_site_label
  _atom_site_symmetry_multiplicity
  _atom_site_fract_x
  _atom_site_fract_y
  _atom_site_fract_z
  _atom_site_occupancy
  N   N1        1.0  0.6476163654651975  0.41012659710838917  0.5752098254264537  1.0000
  C   C1        1.0  0.5886821724081756  0.4271367900269445  0.5722287208304475  1.0000
  C   C2        1.0  0.5152406336108882  0.44838947461843914  0.5685283468979354  1.0000
  C   C3        1.0  0.4734779969483491  0.3471913557980353  0.5568994439694088  1.0000
  C   C4        1.0  0.3975865363766263  0.3572548741804191  0.5496750998366493  1.0000
  C   C5        1.0  0.3580227306639958  0.4381237071476227  0.6153931613840249  1.0000
  C   C6        1.0  0.28183912276576895  0.42951293736941687  0.6069516665036812  1.0000
  C   C7        1.0  0.2487063995707765  0.30816307812467714  0.6116314225556401  1.0000
  C   C8        1.0  0.1769705187166165  0.30178924565161425  0.604465297280137  1.0000
  C   C9        1.0  0.1373968104068609  0.4162926503700606  0.5929817883283102  1.0000
  C   C10       1.0  0.0635464314833031  0.4095805796922012  0.5856476736118219  1.0000
  N   N2        1.0  0.0041758249318741  0.40418466507398687  0.5797515036070049  1.0000
  C   C11       1.0  0.1698130814550418  0.5373321008972718  0.5890473992324199  1.0000
  C   C12       1.0  0.2415333740643847  0.5439599526143772  0.5962754695727164  1.0000
  C   C13       1.0  0.38672176509091516  0.5304347139359367  0.7052851502039736  1.0000
  N   N3        1.0  0.443702065292751  0.5936457009747029  0.6848620617596042  1.0000
  C   C14       1.0  0.4875214563573563  0.5843576187706636  0.5717576408965028  1.0000
  H   H1        1.0  0.49586107516669636  0.2521274181661881  0.5448067830500412  1.0000
  H   H2        1.0  0.37286227957291146  0.28772548432314116  0.4913779975121635  1.0000
  H   H3        1.0  0.2781601256872535  0.2182492130107485  0.622679195697099  1.0000
  H   H4        1.0  0.1523790524297617  0.20755908461818784  0.6083807114479374  1.0000
  H   H5        1.0  0.1396745218274341  0.6265915627141347  0.580311962817124  1.0000
  H   H6        1.0  0.265643309702984  0.6386029307158609  0.5923444718806308  1.0000
  H   H7        1.0  0.3567342977333945  0.5508409587538057  0.7896454172753324  1.0000
  H   H8        1.0  0.5302741451402863  0.6546749850241866  0.5774999383114106  1.0000
  H   H9        1.0  0.4578367201439507  0.6124467344646534  0.4811039312787284  1.0000
  C   C15       1.0  0.8259069217126034  0.025763567840153767  0.5776348854978477  1.0000
  C   C16       1.0  0.8676284624763412  0.015215289357459305  0.6899106746972594  1.0000
  C   C17       1.0  0.8880268182823233  0.8926667999203195  0.7473822849164684  1.0000
  C   C18       1.0  0.8675446800621972  0.7799945250467326  0.6896333282425253  1.0000
  C   C19       1.0  0.8258918688126605  0.7885375516377766  0.5773377895759466  1.0000
  C   C20       1.0  0.8051651942351192  0.9118948279913935  0.5221851648926903  1.0000
  C   C21       1.0  0.9326790578357028  0.8814352229312264  0.8651472054638676  1.0000
  O   O1        1.0  0.9763284617604038  0.7899253195968516  0.8780592516653729  1.0000
  C   C22       1.0  0.9278100109096927  0.9739149463965591  0.9682687735786801  1.0000
  C   C23       1.0  0.9866696535771494  0.0024216288600806823  0.040580340841832596  1.0000
  C   C24       1.0  0.9824221623152934  0.08828339435028343  0.13901738767255245  1.0000
  C   C25       1.0  0.9194028002905746  0.14563637965615928  0.1669725726751129  1.0000
  C   C26       1.0  0.8604379941206624  0.1168232968654106  0.09690373922671569  1.0000
  C   C27       1.0  0.8644091874227272  0.031045760730296523  0.9983755070888276  1.0000
  H   H10       1.0  0.7480438783271662  0.25306431474689095  0.36461410665131866  1.0000
  H   H11       1.0  0.8849407380224368  0.10252809112479078  0.7319677116989582  1.0000
  H   H12       1.0  0.8836567202802907  0.6854384564526474  0.7332752586808853  1.0000
  H   H13       1.0  0.7730013542821237  0.9192226573415211  0.43562839195445835  1.0000
  H   H14       1.0  0.8103694926305894  0.4644037022993344  0.5335729848199782  1.0000
  H   H15       1.0  0.036023107274552046  0.9591473083991989  0.020161896289390024  1.0000
  H   H16       1.0  0.02803622159929131  0.11031065651914274  0.19369383868185885  1.0000
  H   H17       1.0  0.9162088334729114  0.21198435498663248  0.2432720083582598  1.0000
  H   H18       1.0  0.8115275319120898  0.16052961719547643  0.11932762887654802  1.0000
  H   H19       1.0  0.8178454212696951  0.008350440608285936  0.9468466682385173  1.0000
  C   C28       1.0  0.8258457018849817  0.4070309090837072  0.19611882545965376  1.0000
  C   C29       1.0  0.7605381653800267  0.34943525991566804  0.1985974617409949  1.0000
  C   C30       1.0  0.7273022631420402  0.32171398233665505  0.0826718098979895  1.0000
  C   C31       1.0  0.7607319113698633  0.34959559839124044  0.9633455660767827  1.0000
  C   C32       1.0  0.8259530943404647  0.4072701875801219  0.9588538746343209  1.0000
  C   C33       1.0  0.8580771515865427  0.4359116440549615  0.0757738594884303  1.0000
  C   C34       1.0  0.6586890414478301  0.25955610278228325  0.08762529208001446  1.0000
  O   O2        1.0  0.6446341163557964  0.18057918545671336  0.18337366005527134  1.0000
  C   C35       1.0  0.6060231481822937  0.2869865128683231  0.9840293096325703  1.0000
  C   C36       1.0  0.600729953089139  0.41045435397263663  0.916060465776825  1.0000
  C   C37       1.0  0.5503708562936546  0.4354745702368039  0.8197140122709139  1.0000
  C   C38       1.0  0.5040924690443095  0.3385758889989867  0.7901137427443521  1.0000
  C   C39       1.0  0.5086621182864418  0.21531367123466572  0.8589915110417046  1.0000
  C   C40       1.0  0.5590150520963851  0.19016635126297876  0.9554103405677585  1.0000
  O   O3        1.0  0.454564390823918  0.3685625230276106  0.6924869742840087  1.0000
  C   C41       1.0  0.4044027176680551  0.2796320580240754  0.6525103558213536  1.0000
  H   H20       1.0  0.9491984364310447  0.515220466455649  0.39875144305357857  1.0000
  H   H21       1.0  0.7350649693026066  0.32711752338687483  0.2908159267947483  1.0000
  H   H22       1.0  0.7361378526046397  0.3249239429531299  0.8739879861698054  1.0000
  H   H23       1.0  0.9083907174575035  0.4803992054491357  0.07304163396777552  1.0000
  H   H24       1.0  0.8510887503143195  0.4289105949747476  0.6296962595945264  1.0000
  H   H25       1.0  0.6350212187993899  0.48813810553461745  0.9382910015072321  1.0000
  H   H26       1.0  0.5470908900194398  0.5309940895894825  0.7680714401026707  1.0000
  H   H27       1.0  0.47358054192363297  0.13832891777826095  0.8388474174372518  1.0000
  H   H28       1.0  0.5616265719047598  0.09447609265875956  0.006931276962633293  1.0000
  H   H29       1.0  0.3720853360678851  0.32886848617726394  0.5739963574338103  1.0000
  H   H30       1.0  0.3708075137873875  0.24797705939755432  0.7356446451080805  1.0000
  H   H31       1.0  0.4300514229789998  0.19387978356601843  0.6142144421330631  1.0000
  Zn  Zn1       1.0  0.75051172999371  0.4084083968049046  0.5765279659295923  1.0000
  Zn  Zn2       1.0  0.9012804683259229  0.40589219853072933  0.5784440370930892  1.0000
  C   C42       1.0  0.8259313527687369  0.40205100399714166  0.8146826003113485  1.0000
  C   C43       1.0  0.8258624919264267  0.41225120262035864  0.3402895504625014  1.0000
  C   C44       1.0  0.8258904404786742  0.644355459988531  0.5722187562432148  1.0000
  C   C45       1.0  0.8259033528102077  0.1699451871123503  0.5827534637229379  1.0000
  O   O4        1.0  0.8830840773887568  0.4130426306033901  0.38940170401699437  1.0000
  O   O5        1.0  0.88313975111613  0.39934885984583657  0.7670243269720252  1.0000
  O   O6        1.0  0.8831059428162319  0.5950127857129148  0.5712330470867879  1.0000
  O   O7        1.0  0.8831178342276051  0.21737871485515448  0.5851928858704769  1.0000
  O   O8        1.0  0.7686743126420555  0.5969218813405464  0.5697791164915125  1.0000
  O   O9        1.0  0.7687081208982637  0.4012595158501526  0.7655703265237543  1.0000
  O   O10       1.0  0.7686524469977206  0.41495324085838514  0.38794614219197165  1.0000
  O   O11       1.0  0.7686862038476469  0.21928931585137357  0.5837374214165161  1.0000
