data_image0
_chemical_formula_structural       NC11NC3H8C7OC6H10C7OC6H10Zn2C4O8
_chemical_formula_sum              "N2 C44 H28 O10 Zn2"
_cell_length_a       17.807433833752565
_cell_length_b       10.299379429549807
_cell_length_c       10.299382801718286
_cell_angle_alpha    85.54943384292815
_cell_angle_beta     88.5048620642858
_cell_angle_gamma    90.68187924927143

_space_group_name_H-M_alt    "P 1"
_space_group_IT_number       1

loop_
  _space_group_symop_operation_xyz
  'x, y, z'

loop_
  _atom_site_type_symbol
  _atom_site_label
  _atom_site_symmetry_multiplicity
  _atom_site_fract_x
  _atom_site_fract_y
  _atom_site_fract_z
  _atom_site_occupancy
  N   N1        1.0  0.7076682788924569  0.4382877324458938  0.5341089343038978  1.0000
  C   C1        1.0  0.6568365550150462  0.403571331024279  0.6006845995443306  1.0000
  C   C2        1.0  0.5935967664832843  0.36038698872065944  0.6834962317044531  1.0000
  C   C3        1.0  0.6053012940815307  0.2968558363207461  0.8062390229165752  1.0000
  C   C4        1.0  0.5439693086507784  0.25535094265283775  0.8867660862870026  1.0000
  C   C5        1.0  0.4707783296314664  0.2770640334189618  0.8451912744051502  1.0000
  C   C6        1.0  0.45809709522101216  0.3407496609930698  0.7219882261133004  1.0000
  C   C7        1.0  0.3803384114132698  0.3637924328892177  0.6776322525806799  1.0000
  C   C8        1.0  0.3615804800204482  0.34689527204640114  0.5480576160207027  1.0000
  C   C9        1.0  0.2883595679009434  0.3685696244688237  0.5064387469182694  1.0000
  C   C10       1.0  0.2329536667219176  0.4074595316274232  0.5935741172248563  1.0000
  C   C11       1.0  0.157596284937384  0.42979213474059175  0.550593701011314  1.0000
  N   N2        1.0  0.0970143228496498  0.4477458885022374  0.5160405744944505  1.0000
  C   C12       1.0  0.25102013382995  0.4245671831513609  0.7226175384331042  1.0000
  C   C13       1.0  0.3241882351164951  0.4028579460104491  0.7644918510999139  1.0000
  C   C14       1.0  0.5202863894296957  0.3822499925077485  0.6414775803555324  1.0000
  H   H1        1.0  0.6617609406433147  0.2794465477974124  0.8396112370199631  1.0000
  H   H2        1.0  0.5531499603468244  0.20591339868899583  0.9815211792706615  1.0000
  H   H3        1.0  0.4241274151310198  0.24251779115577077  0.9086435775545718  1.0000
  H   H4        1.0  0.4032729127729685  0.3152389590897251  0.47935263962579544  1.0000
  H   H5        1.0  0.27493790317484984  0.35466961478502634  0.40640896633338475  1.0000
  H   H6        1.0  0.2086110439606582  0.4550003061510337  0.7908082020104752  1.0000
  H   H7        1.0  0.33708147035494973  0.4183034169818065  0.8643382977503  1.0000
  H   H8        1.0  0.5118041406199345  0.4330500081071633  0.5469562942831689  1.0000
  C   C15       1.0  0.9023530581810579  0.0616252192417408  0.5252282507944963  1.0000
  C   C16       1.0  0.9478718643172793  0.052864119431293544  0.6348610707329514  1.0000
  C   C17       1.0  0.970125863403578  0.9311890696204799  0.6910405509751634  1.0000
  C   C18       1.0  0.9477804746595672  0.8176397731055188  0.63458903047125  1.0000
  C   C19       1.0  0.9023367251176375  0.8243985922507762  0.5249321023013398  1.0000
  C   C20       1.0  0.8797234038205758  0.9468679406021212  0.47109248251117264  1.0000
  C   C21       1.0  0.018842944178095955  0.9218705281955908  0.8059767914675615  1.0000
  O   O1        1.0  0.06650169583740562  0.8322442455608772  0.8161212406365026  1.0000
  C   C22       1.0  0.013490036163306351  0.01412627400811628  0.909409584293742  1.0000
  C   C23       1.0  0.07773691069671917  0.04516567280956729  0.9779904607483612  1.0000
  C   C24       1.0  0.073064355502658  0.13083092829144438  0.0766992059645143  1.0000
  C   C25       1.0  0.004240128077376282  0.1854582357880048  0.1086512581318616  1.0000
  C   C26       1.0  0.9398776340079279  0.15410759705436972  0.04231983781040305  1.0000
  C   C27       1.0  0.9442485156360334  0.06851464898111836  0.9435374257746552  1.0000
  H   H9        1.0  0.817404569242103  0.2855910966853188  0.3171398437325357  1.0000
  H   H10       1.0  0.9667613952219879  0.1409191084049921  0.6758213041315926  1.0000
  H   H11       1.0  0.9653588450414071  0.723773840292831  0.6772103048290705  1.0000
  H   H12       1.0  0.8446321884170789  0.9528180039448713  0.38657321914915355  1.0000
  H   H13       1.0  0.8854022855693934  0.49960009255921833  0.48215055877467594  1.0000
  H   H14       1.0  0.13163591355613136  0.004025764534368204  0.9544419150880363  1.0000
  H   H15       1.0  0.12285379859838863  0.15482113312120926  0.12848447614417247  1.0000
  H   H16       1.0  0.0007257299329912481  0.25165814035989365  0.1851550561369436  1.0000
  H   H17       1.0  0.8864616564255139  0.19569837330518114  0.06784578547852793  1.0000
  H   H18       1.0  0.8934209309965876  0.04381494858753188  0.8949600661026942  1.0000
  C   C28       1.0  0.9024198332804245  0.4429404934438863  0.14370694355941582  1.0000
  C   C29       1.0  0.9813458314063233  0.44572131206269816  0.1387402301793168  1.0000
  C   C30       1.0  0.02115389857310679  0.44563571353640863  0.019177623009235978  1.0000
  C   C31       1.0  0.9811627592196712  0.44574490319689275  0.9035031464175995  1.0000
  C   C32       1.0  0.9022699156415868  0.4430833157807528  0.9064533779432509  1.0000
  C   C33       1.0  0.8633560941661963  0.4413518080805596  0.027099995093246232  1.0000
  C   C34       1.0  0.10448946380003377  0.44995593046752336  0.013680880398344364  1.0000
  O   O2        1.0  0.1375895958212765  0.5114724774208952  0.9175943159364386  1.0000
  C   C35       1.0  0.1502747709585226  0.384481032861997  0.11708820045056245  1.0000
  C   C36       1.0  0.2208872926227632  0.43665915622959783  0.1448930590872286  1.0000
  C   C37       1.0  0.26484025069565553  0.3747892774641075  0.2411322378008245  1.0000
  C   C38       1.0  0.23910073677520494  0.2598536684040835  0.309735162320282  1.0000
  C   C39       1.0  0.16948445682359092  0.20625269763783716  0.2818616153216156  1.0000
  C   C40       1.0  0.12531749176103135  0.2677386429054758  0.18573457615703148  1.0000
  H   H19       1.0  0.7534746170036934  0.43970448454003686  0.36024363765412026  1.0000
  H   H20       1.0  0.011951704569730603  0.4494154511789956  0.22791759809263  1.0000
  H   H21       1.0  0.011776404113256422  0.446659942152861  0.8111309084317853  1.0000
  H   H22       1.0  0.8025100962863698  0.43920880520199357  0.030124721281654  1.0000
  H   H23       1.0  0.8719627411199938  0.44316589380867444  0.5800444870256287  1.0000
  H   H24       1.0  0.2417428652370539  0.5258440755333269  0.09295522108904675  1.0000
  H   H25       1.0  0.3189177193543691  0.4159890539785205  0.2624798303745728  1.0000
  H   H26       1.0  0.27322986001997407  0.2120526072869331  0.3841136525826452  1.0000
  H   H27       1.0  0.14985175465412026  0.11664154913735514  0.33437164296780786  1.0000
  H   H28       1.0  0.07214218879400836  0.22327841911022572  0.1641601730726816  1.0000
  Zn  Zn1       1.0  0.820025135243453  0.4410136785315699  0.5289022819137055  1.0000
  Zn  Zn2       1.0  0.9846574498852557  0.4450093241730624  0.5212578171413904  1.0000
  C   C41       1.0  0.9022967108015263  0.43788228546096253  0.7622800886856056  1.0000
  C   C42       1.0  0.9023876720467899  0.44814239961723334  0.2878800537238515  1.0000
  C   C43       1.0  0.9023369583598652  0.6802171175331797  0.5198130370493046  1.0000
  C   C44       1.0  0.9023473683307652  0.2058060057988529  0.5303471778138977  1.0000
  O   O3        1.0  0.9648539839823945  0.451398867466944  0.3333648341908333  1.0000
  O   O4        1.0  0.9647825164410463  0.43765744034923015  0.7109929628674296  1.0000
  O   O5        1.0  0.9648141743667717  0.633345861801824  0.515199141760105  1.0000
  O   O6        1.0  0.9648222698977486  0.25571045392345115  0.5291585605273177  1.0000
  O   O7        1.0  0.8398602590500321  0.6303125474190763  0.5210015411296274  1.0000
  O   O8        1.0  0.8398286011010645  0.4346256863505402  0.7167952923850558  1.0000
  O   O9        1.0  0.839900069000185  0.4483670679184435  0.33916560230532666  1.0000
  O   O10       1.0  0.8398683548935315  0.2526786451037446  0.5349594260145007  1.0000
