data_image0
_chemical_formula_structural       NC10NC3NCH9C7OC3FC3H9C7OC3OC4H12Zn2C4O8
_chemical_formula_sum              "N3 C45 H30 O11 F1 Zn2"
_cell_length_a       19.437513618241372
_cell_length_b       10.29937835083307
_cell_length_c       10.299374482448636
_cell_angle_alpha    85.53885586126866
_cell_angle_beta     90.32903884356655
_cell_angle_gamma    89.54280298698887

_space_group_name_H-M_alt    "P 1"
_space_group_IT_number       1

loop_
  _space_group_symop_operation_xyz
  'x, y, z'

loop_
  _atom_site_type_symbol
  _atom_site_label
  _atom_site_symmetry_multiplicity
  _atom_site_fract_x
  _atom_site_fract_y
  _atom_site_fract_z
  _atom_site_occupancy
  N   N1        1.0  0.6483510395117988  0.41086584454243535  0.5754935233701164  1.0000
  C   C1        1.0  0.5894213330714411  0.42787727861912694  0.5725163696698903  1.0000
  C   C2        1.0  0.5159853924248046  0.4491315008238992  0.5688209329235665  1.0000
  C   C3        1.0  0.474205108373372  0.34794186522163706  0.5571674322727587  1.0000
  C   C4        1.0  0.39831798413591335  0.35800906860678405  0.5499452223359707  1.0000
  C   C5        1.0  0.35875090080647964  0.43884063273920915  0.6156850401536134  1.0000
  C   C6        1.0  0.2825680866638754  0.43023461153017406  0.6072411749670144  1.0000
  C   C7        1.0  0.24940846532791713  0.30888486098671053  0.6118921282252927  1.0000
  C   C8        1.0  0.1776734546581557  0.30251503930987633  0.6047242142618188  1.0000
  C   C9        1.0  0.138127303910812  0.4170221605848692  0.5932676200448048  1.0000
  C   C10       1.0  0.06427777595972652  0.4103141988288457  0.5859316296211579  1.0000
  N   N2        1.0  0.0049078535728371  0.40492158752335294  0.5800339517057731  1.0000
  C   C11       1.0  0.1705701783974627  0.5380611063930099  0.5893619873596645  1.0000
  C   C12       1.0  0.242289635030323  0.5446849083205345  0.5965919093501184  1.0000
  C   C13       1.0  0.3874416119861913  0.5311010594548693  0.7056024171451056  1.0000
  N   N3        1.0  0.444441463193966  0.5943217084137302  0.685193662705629  1.0000
  C   C14       1.0  0.48829374381116825  0.5850949448475353  0.5720828147325472  1.0000
  H   H1        1.0  0.49657196887264476  0.25288652808138967  0.5450516211441943  1.0000
  H   H2        1.0  0.3735970979543964  0.28851269116323897  0.4916293476437128  1.0000
  H   H3        1.0  0.2788399264744282  0.21896698033552697  0.6229188421154845  1.0000
  H   H4        1.0  0.15306101481393622  0.20828481057068338  0.6086172730631012  1.0000
  H   H5        1.0  0.1404530342221799  0.627323348482645  0.5806475399861066  1.0000
  H   H6        1.0  0.2664206356267805  0.6393279535762082  0.5926833650205781  1.0000
  H   H7        1.0  0.35743244110428285  0.5514612760962592  0.7899706964917115  1.0000
  H   H8        1.0  0.5310594150076368  0.6554076799195954  0.5778421168285395  1.0000
  H   H9        1.0  0.4586428229321622  0.6132324354167635  0.4814324387618034  1.0000
  C   C15       1.0  0.826560217357696  0.02650985869334077  0.577826892214542  1.0000
  C   C16       1.0  0.7547801265212556  0.027718084189650494  0.5608874741643226  1.0000
  C   C17       1.0  0.7184886318490971  0.9110407691109748  0.5538199879565036  1.0000
  C   C18       1.0  0.754948353904274  0.7924712750121532  0.5608964918985642  1.0000
  C   C19       1.0  0.826705252502194  0.7892674422691595  0.5777119412734233  1.0000
  C   C20       1.0  0.8620747082619546  0.9068139862461587  0.5864215174048015  1.0000
  C   C21       1.0  0.6427790542843697  0.9122778601824977  0.5345609692859781  1.0000
  O   O1        1.0  0.6162159351166328  0.8280465103756318  0.4675593326247798  1.0000
  C   C22       1.0  0.5972037499078492  0.008971272955025977  0.5913215641889855  1.0000
  C   C23       1.0  0.5359283015069481  0.050006482095756644  0.5267581494733056  1.0000
  C   C24       1.0  0.4922152776126964  0.1399789586129907  0.5802643232198184  1.0000
  F   F1        1.0  0.4335228146753521  0.17966292152716679  0.5167951987759563  1.0000
  C   C25       1.0  0.5089408346471834  0.18896801588280776  0.6990866114019454  1.0000
  C   C26       1.0  0.569228371069149  0.14769663298585778  0.764852052082517  1.0000
  C   C27       1.0  0.6130835869806922  0.05779329534717714  0.7117524156170822  1.0000
  H   H10       1.0  0.9621381450267352  0.2317029753902904  0.6077989484817803  1.0000
  H   H11       1.0  0.7270992150573351  0.11969314416892529  0.5517215312397739  1.0000
  H   H12       1.0  0.7270970235613523  0.7024684820899274  0.5544893024101136  1.0000
  H   H13       1.0  0.9174118241510215  0.9050785310248358  0.5994798077661447  1.0000
  H   H14       1.0  0.8543359106591236  0.4606640313882352  0.583076391404616  1.0000
  H   H15       1.0  0.522236042576918  0.013255332943626241  0.43442213311650435  1.0000
  H   H16       1.0  0.4750832830025663  0.25851029121886304  0.7405359334415398  1.0000
  H   H17       1.0  0.581856958807897  0.1849526262215111  0.8573881013305116  1.0000
  H   H18       1.0  0.6589257123890201  0.025454196074714996  0.7654902368640724  1.0000
  C   C28       1.0  0.8266964927125506  0.40797506828686836  0.19638767617753516  1.0000
  C   C29       1.0  0.8985630961036283  0.4214418736641412  0.19492922001533652  1.0000
  C   C30       1.0  0.934723993809182  0.429707049579811  0.07690449891071394  1.0000
  C   C31       1.0  0.8983986326676435  0.4213807421054152  0.9596882847372998  1.0000
  C   C32       1.0  0.8265689810575637  0.4078021938478793  0.9591511066289766  1.0000
  C   C33       1.0  0.7911141304151612  0.40151929285294097  0.07801198809233933  1.0000
  C   C34       1.0  0.010690650213817099  0.44256715257706625  0.07533069689357541  1.0000
  O   O2        1.0  0.04443433270368846  0.38846038276077266  0.989921463684325  1.0000
  C   C35       1.0  0.048373890866577396  0.516823350313049  0.17056691818613356  1.0000
  C   C36       1.0  0.11549080727688255  0.4789850806207925  0.20959150305005592  1.0000
  C   C37       1.0  0.1522530631929604  0.5486391159617099  0.29825221923499945  1.0000
  O   O3        1.0  0.21881021642901954  0.5056356117239102  0.334399423760271  1.0000
  C   C38       1.0  0.2619281839286842  0.5667899812861321  0.4233313479697498  1.0000
  C   C39       1.0  0.12151830385654194  0.6585425629854187  0.3477587408915519  1.0000
  C   C40       1.0  0.055204916351034194  0.6977007037729086  0.30823362988105885  1.0000
  C   C41       1.0  0.018839708955927348  0.6278070303908394  0.21981903802202285  1.0000
  H   H19       1.0  0.6911926022964465  0.3805719868885167  0.40661768577257384  1.0000
  H   H20       1.0  0.9265847830473399  0.4240668227158606  0.2858768604445576  1.0000
  H   H21       1.0  0.9262621360929544  0.42677203480988535  0.8686485950257197  1.0000
  H   H22       1.0  0.7357102296994124  0.39113651834804997  0.07833263592531514  1.0000
  H   H23       1.0  0.7990399061751552  0.40150130482262925  0.6315728017248134  1.0000
  H   H24       1.0  0.13933451874414438  0.3942720646089233  0.17202953560138523  1.0000
  H   H25       1.0  0.3114416333031311  0.5126051588032283  0.4339287189245342  1.0000
  H   H26       1.0  0.23708412507617105  0.5654031569741029  0.5202499595791328  1.0000
  H   H27       1.0  0.27252490556591247  0.6686231930571773  0.3857891268520681  1.0000
  H   H28       1.0  0.14848960757982166  0.7145329250747208  0.4162845069314891  1.0000
  H   H29       1.0  0.03200744598470595  0.782892015547308  0.3458326828174627  1.0000
  H   H30       1.0  0.9679700690606615  0.6613832020875581  0.18894207283783326  1.0000
  Zn  Zn1       1.0  0.7512456375885821  0.40914696931614736  0.5768113026418422  1.0000
  Zn  Zn2       1.0  0.9020132578931682  0.40662979036696933  0.5787268442733862  1.0000
  C   C42       1.0  0.8265905712134854  0.40266102615021393  0.8149732819635598  1.0000
  C   C43       1.0  0.8266699709362996  0.4131173446999099  0.3405650130930922  1.0000
  C   C44       1.0  0.826675172212267  0.6450912328942693  0.5725582740351647  1.0000
  C   C45       1.0  0.8265853181827697  0.17068557843574284  0.5829800898439697  1.0000
  O   O4        1.0  0.8838765950819872  0.4138822173844654  0.3896791833583604  1.0000
  O   O5        1.0  0.8838130822298916  0.3999846932108504  0.7673125897630737  1.0000
  O   O6        1.0  0.8838806270879379  0.595750163676364  0.5715607457313581  1.0000
  O   O7        1.0  0.8838089987952094  0.21811675709054668  0.5854309293570894  1.0000
  O   O8        1.0  0.7694498452369528  0.5976600034529753  0.5701072168976276  1.0000
  O   O9        1.0  0.7693823006840671  0.40189609336797805  0.765858991446349  1.0000
  O   O10       1.0  0.769445813834325  0.41579357263696726  0.3882240235958516  1.0000
  O   O11       1.0  0.7693782175266907  0.22002810303185893  0.5839758669670561  1.0000
