data_image0
_chemical_formula_structural       NC11NC3H8C6SCOC6H10C7OC3NC3H11Zn2C4O8
_chemical_formula_sum              "N3 C44 H29 S1 O10 Zn2"
_cell_length_a       17.807433833752565
_cell_length_b       10.302038109246572
_cell_length_c       10.298749378158432
_cell_angle_alpha    85.56336078908824
_cell_angle_beta     88.5335258425568
_cell_angle_gamma    90.7032530140906

_space_group_name_H-M_alt    "P 1"
_space_group_IT_number       1

loop_
  _space_group_symop_operation_xyz
  'x, y, z'

loop_
  _atom_site_type_symbol
  _atom_site_label
  _atom_site_symmetry_multiplicity
  _atom_site_fract_x
  _atom_site_fract_y
  _atom_site_fract_z
  _atom_site_occupancy
  N   N1        1.0  0.7075464242954344  0.4382458183960978  0.5347269583762471  1.0000
  C   C1        1.0  0.6567266037610427  0.4035223687387872  0.6012898468664929  1.0000
  C   C2        1.0  0.5935016211425689  0.3603292597882488  0.6840855855958634  1.0000
  C   C3        1.0  0.6052281930889004  0.2967849741979902  0.8068050576907153  1.0000
  C   C4        1.0  0.5439107066878488  0.2552714129694136  0.8873169099641536  1.0000
  C   C5        1.0  0.47071230132126246  0.27698889535792914  0.8457500936160711  1.0000
  C   C6        1.0  0.45800892247245306  0.3406877298653872  0.7225704100370718  1.0000
  C   C7        1.0  0.3802422899692993  0.3637352230877118  0.678222905534787  1.0000
  C   C8        1.0  0.3614436139593333  0.3468764851578128  0.5486309341443232  1.0000
  C   C9        1.0  0.288215254772836  0.3685552519170945  0.5070200381969578  1.0000
  C   C10       1.0  0.2328424816934056  0.4074112693543679  0.5941808192693783  1.0000
  C   C11       1.0  0.1574773986381509  0.429748446081764  0.5512086116591348  1.0000
  N   N2        1.0  0.0968892452822281  0.4477058767062585  0.5166620842450274  1.0000
  C   C12       1.0  0.250949584598212  0.42448057365927827  0.7232416440215337  1.0000
  C   C13       1.0  0.3241251990839525  0.40276686638110415  0.7651079836339187  1.0000
  C   C14       1.0  0.5201837214190026  0.3821967260329855  0.6420749742235614  1.0000
  H   H1        1.0  0.6616938049344044  0.2793721546962127  0.8401708636844345  1.0000
  H   H2        1.0  0.5531082944764986  0.20582384529575948  0.9820538048228633  1.0000
  H   H3        1.0  0.4240724281972121  0.24243636213184194  0.9091894906855491  1.0000
  H   H4        1.0  0.4031097192085242  0.3152471839589517  0.47990542599494446  1.0000
  H   H5        1.0  0.2747619577186945  0.3546851544430152  0.4069764478574438  1.0000
  H   H6        1.0  0.2085664199144059  0.45488717556433333  0.7914521929044622  1.0000
  H   H7        1.0  0.3370503355922302  0.41818202048280906  0.8649689996294723  1.0000
  H   H8        1.0  0.5116848872269418  0.433006306420225  0.5475725830652187  1.0000
  C   C15       1.0  0.9021502673272336  0.06169576974673818  0.525657470246375  1.0000
  C   C16       1.0  0.8379193736043962  0.06491087493903391  0.4491117828833173  1.0000
  C   C17       1.0  0.8063140827432305  0.949560690150779  0.4105254751567191  1.0000
  C   C18       1.0  0.8381610056940594  0.8297841518560999  0.44904656106286645  1.0000
  C   C19       1.0  0.9022926057105114  0.8242461186168211  0.5257424476369383  1.0000
  C   C20       1.0  0.9339951602001755  0.9408480479567575  0.5635632914615445  1.0000
  S   S1        1.0  0.7247840322005153  0.9551226431886292  0.3116910898449572  1.0000
  C   C21       1.0  0.7800033073679138  0.9649702022264773  0.16269536227404702  1.0000
  O   O1        1.0  0.7981134429116835  0.8601461022870738  0.11550134047446026  1.0000
  C   C22       1.0  0.8047739069960432  0.0917433377175274  0.0960432726853857  1.0000
  C   C23       1.0  0.8578800143146803  0.095380839460242  0.9920646106163753  1.0000
  C   C24       1.0  0.8820191710228273  0.21430833571307017  0.9292165784531643  1.0000
  C   C25       1.0  0.853458500341207  0.33084830043853986  0.96904608590033  1.0000
  C   C26       1.0  0.8005782035079008  0.32868897374392536  0.07166111886423043  1.0000
  C   C27       1.0  0.7761886687313824  0.21005900670036692  0.13484096628122821  1.0000
  H   H9        1.0  0.02313098860851026  0.2629375736578896  0.6701099298429021  1.0000
  H   H10       1.0  0.8123571825573231  0.15681428548992926  0.41901954054138346  1.0000
  H   H11       1.0  0.8128407977304096  0.7414199465397903  0.4184545210989683  1.0000
  H   H12       1.0  0.9835129773053817  0.9374491221108986  0.622571582097718  1.0000
  H   H13       1.0  0.9268064135969838  0.49482924248738314  0.5545740086369852  1.0000
  H   H14       1.0  0.881116614164019  0.006383386649244427  0.9596863990088709  1.0000
  H   H15       1.0  0.9229927034433472  0.2160634765632412  0.8496116754769845  1.0000
  H   H16       1.0  0.8722323174276789  0.42281265492428055  0.9202969086944339  1.0000
  H   H17       1.0  0.7783260346890353  0.41909337219434817  0.10223286010108068  1.0000
  H   H18       1.0  0.7347749538054207  0.21168096818203752  0.21333386489648465  1.0000
  C   C28       1.0  0.9021867800234817  0.44299809411269986  0.14430050010329376  1.0000
  C   C29       1.0  0.9432447606983065  0.560832582337426  0.1323898169779525  1.0000
  C   C30       1.0  0.9632525189753377  0.621200231600358  0.009163350079438803  1.0000
  C   C31       1.0  0.9432477555495686  0.5608815048763687  0.897145654465985  1.0000
  C   C32       1.0  0.9022560458055886  0.44294375812328624  0.9070993892984212  1.0000
  C   C33       1.0  0.8818131404967378  0.3849268017493319  0.031095045735026527  1.0000
  C   C34       1.0  0.0072185427595103935  0.7450071692821574  0.9964579954772042  1.0000
  O   O2        1.0  0.054164111822073924  0.7644862534195918  0.9029350799818596  1.0000
  C   C35       1.0  0.9979289632434468  0.8467079517509275  0.08979094284524103  1.0000
  C   C36       1.0  0.9276501254477096  0.8675689766581127  0.14975875282566942  1.0000
  C   C37       1.0  0.9192648275877908  0.9648440072063171  0.2368597967741728  1.0000
  N   N3        1.0  0.8477432028139358  0.9849526313059929  0.2978530689762058  1.0000
  C   C38       1.0  0.9812705981831061  0.042583513624218305  0.2633896501183097  1.0000
  C   C39       1.0  0.050957792264373136  0.023658299186580578  0.2029901915522403  1.0000
  C   C40       1.0  0.05929985422693451  0.9266938142872194  0.11626799573261493  1.0000
  H   H19       1.0  0.8256028678034939  0.2193596676146896  0.3741999349689986  1.0000
  H   H20       1.0  0.9604098961254305  0.6050850014994018  0.21914479447813795  1.0000
  H   H21       1.0  0.9591000955929674  0.6067777809601771  0.8020092815549682  1.0000
  H   H22       1.0  0.8501684225370226  0.294095368978776  0.03952407676251157  1.0000
  H   H23       1.0  0.8250742511755607  0.21986965502630929  0.7186100205317563  1.0000
  H   H24       1.0  0.8791662224858151  0.809397313159125  0.12795849248016467  1.0000
  H   H25       1.0  0.8011477133526357  0.9275618528654079  0.27878027068971  1.0000
  H   H26       1.0  0.840873391140047  0.05728679642129153  0.36266824629036565  1.0000
  H   H27       1.0  0.9755120045810736  0.11803989873371101  0.3303989822548017  1.0000
  H   H28       1.0  0.09863958062956701  0.08426970262413702  0.22342132008576532  1.0000
  H   H29       1.0  0.11387452223966288  0.913378640561991  0.07073359288639303  1.0000
  Zn  Zn1       1.0  0.8199023519947565  0.4409723125127929  0.5295213106557701  1.0000
  Zn  Zn2       1.0  0.984533301802516  0.4449687647153844  0.5218783176437478  1.0000
  C   C41       1.0  0.9022403279874187  0.4377815330703472  0.7629135689473181  1.0000
  C   C42       1.0  0.9021971238920254  0.44816122602811403  0.28848610355011517  1.0000
  C   C43       1.0  0.9022613427082998  0.6801081355477834  0.5205509573132219  1.0000
  C   C44       1.0  0.9021760527092706  0.2058330622425879  0.5308487868626206  1.0000
  O   O3        1.0  0.9646771818023051  0.45140498862509015  0.33397563257131213  1.0000
  O   O4        1.0  0.9647113514635923  0.43757000575565796  0.7116228110917333  1.0000
  O   O5        1.0  0.964727479024857  0.6332517813532614  0.515913326692284  1.0000
  O   O6        1.0  0.964660998056537  0.2557232209587621  0.529685022197369  1.0000
  O   O7        1.0  0.8397745995602717  0.6302178549070363  0.5217146087034956  1.0000
  O   O8        1.0  0.8397584722804169  0.43453763925514344  0.7174240240258838  1.0000
  O   O9        1.0  0.8397243025188139  0.4483725769915372  0.3397752839724164  1.0000
  O   O10       1.0  0.8397081187770854  0.25269080003155486  0.5354847709732129  1.0000
