data_image0
_chemical_formula_structural       NC10NC3NCH9C7OC3FC3H9C7OC3NC3H11Zn2C4O8
_chemical_formula_sum              "N4 C44 H29 O10 F1 Zn2"
_cell_length_a       19.437513618241372
_cell_length_b       10.29937835083307
_cell_length_c       10.298749378158432
_cell_angle_alpha    85.54775683836141
_cell_angle_beta     90.35618214226261
_cell_angle_gamma    89.54280298698887

_space_group_name_H-M_alt    "P 1"
_space_group_IT_number       1

loop_
  _space_group_symop_operation_xyz
  'x, y, z'

loop_
  _atom_site_type_symbol
  _atom_site_label
  _atom_site_symmetry_multiplicity
  _atom_site_fract_x
  _atom_site_fract_y
  _atom_site_fract_z
  _atom_site_occupancy
  N   N1        1.0  0.6479944212346612  0.4106495931304206  0.5754198401975696  1.0000
  C   C1        1.0  0.5890639694783356  0.42766057525150347  0.572442532502867  1.0000
  C   C2        1.0  0.5156271036970594  0.4489142364595884  0.5687469046085853  1.0000
  C   C3        1.0  0.47384390224834405  0.34772283176324925  0.5570928011757523  1.0000
  C   C4        1.0  0.3979549699657082  0.3577889387594908  0.5498702176672401  1.0000
  C   C5        1.0  0.3584043442803456  0.43863048271907834  0.6156134359034966  1.0000
  C   C6        1.0  0.2822194162571064  0.4300231796641554  0.6071691339545624  1.0000
  C   C7        1.0  0.2490609592647053  0.30867413517238473  0.6118203277852758  1.0000
  C   C8        1.0  0.1773241541425  0.3023032253492053  0.604652043058558  1.0000
  C   C9        1.0  0.1377751352924424  0.4168086074220838  0.5931948562445837  1.0000
  C   C10       1.0  0.0639237708117877  0.4100995320043721  0.585858486363871  1.0000
  N   N2        1.0  0.004552371969879  0.40470602538446876  0.5799605033887154  1.0000
  C   C11       1.0  0.1702170320229213  0.537846960324122  0.5892890215390161  1.0000
  C   C12       1.0  0.2419382986316339  0.5444718598113032  0.5965193175001036  1.0000
  C   C13       1.0  0.3871175658386294  0.5309045596076636  0.7055354639076121  1.0000
  N   N3        1.0  0.4441123078138622  0.5941221103552934  0.6851256538170734  1.0000
  C   C14       1.0  0.4879362716796901  0.5848781756628239  0.5720089551397198  1.0000
  H   H1        1.0  0.4962077296131508  0.2526656553465172  0.5449763633519664  1.0000
  H   H2        1.0  0.3732194846882211  0.28828370850239127  0.49155132656282285  1.0000
  H   H3        1.0  0.2784951808954785  0.21875792846406328  0.6228476120366946  1.0000
  H   H4        1.0  0.1527126889066415  0.20807358760729944  0.6085453032298787  1.0000
  H   H5        1.0  0.1400977062280674  0.6271078794913412  0.5805741234071504  1.0000
  H   H6        1.0  0.2660683207430035  0.6391143117188638  0.59261057099953  1.0000
  H   H7        1.0  0.3571295161456514  0.5512775840248254  0.7899081072375245  1.0000
  H   H8        1.0  0.5307033846894637  0.6551917850427456  0.5777685551379372  1.0000
  H   H9        1.0  0.4582626569193778  0.6130019047840527  0.4813538902416845  1.0000
  C   C15       1.0  0.8262041832281146  0.0262939615052733  0.5777533297364408  1.0000
  C   C16       1.0  0.7544198516906455  0.027499615463206117  0.5608130354879846  1.0000
  C   C17       1.0  0.7181265877076438  0.9108212274839177  0.553745183711589  1.0000
  C   C18       1.0  0.7545880813312099  0.7922528076546729  0.5608220536886723  1.0000
  C   C19       1.0  0.8263491895952029  0.7890515276306247  0.5776383728494383  1.0000
  C   C20       1.0  0.8617208257550427  0.9065993937905468  0.5863483994871577  1.0000
  C   C21       1.0  0.6424121887411396  0.912055394883243  0.5344851688605479  1.0000
  O   O1        1.0  0.6158322960391133  0.827813873695079  0.4674800665126464  1.0000
  C   C22       1.0  0.5968510941038487  0.008757424365484656  0.5912486997282396  1.0000
  C   C23       1.0  0.5355594825656789  0.04978283226639957  0.5266819454438709  1.0000
  C   C24       1.0  0.49185985368212787  0.13976343144633452  0.5801908868188201  1.0000
  F   F1        1.0  0.433151501557769  0.17943775924266037  0.5167184794088748  1.0000
  C   C25       1.0  0.5086151572993032  0.18877052688447105  0.6990193211317692  1.0000
  C   C26       1.0  0.5689191577798992  0.14750912770443825  0.7647881635563085  1.0000
  C   C27       1.0  0.6127610804553753  0.05759772911865002  0.7116857804907419  1.0000
  H   H10       1.0  0.9617896142558564  0.23149162819872693  0.6077269363203885  1.0000
  H   H11       1.0  0.7267366455774358  0.11947328397945012  0.5516466184513382  1.0000
  H   H12       1.0  0.7267351469795214  0.7022490420701275  0.554414532785759  1.0000
  H   H13       1.0  0.9170612107236733  0.9048659209215509  0.5994073652938412  1.0000
  H   H14       1.0  0.8539811907161661  0.46044893111589297  0.5830031004589795  1.0000
  H   H15       1.0  0.5218441077624596  0.013017665772653286  0.4343411529693493  1.0000
  H   H16       1.0  0.47476798229112593  0.2583190945572513  0.7404707871542784  1.0000
  H   H17       1.0  0.5815709114690991  0.18477916864829136  0.8573289992688049  1.0000
  H   H18       1.0  0.6586166588662303  0.025266787674820712  0.7654263813482292  1.0000
  C   C28       1.0  0.8262449671280077  0.4077012655922838  0.1962943836020059  1.0000
  C   C29       1.0  0.8638478862759953  0.5239439757971707  0.18673567001095015  1.0000
  C   C30       1.0  0.8821720326403164  0.5835367660513577  0.06465452521969439  1.0000
  C   C31       1.0  0.8638506298850653  0.5239927934843553  0.9514916680468817  1.0000
  C   C32       1.0  0.8263083992633339  0.4076441735864278  0.9590973097289437  1.0000
  C   C33       1.0  0.8075857931791462  0.35041995111055946  0.08192173436962191  1.0000
  C   C34       1.0  0.9224382350459417  0.7056385212449134  0.0544683727577433  1.0000
  O   O2        1.0  0.9654310770239758  0.7232654033835613  0.963666156142398  1.0000
  C   C35       1.0  0.9139328538738218  0.8077352783918188  0.1472341320130457  1.0000
  C   C36       1.0  0.8495723234115927  0.8313830632807624  0.20311532318991588  1.0000
  C   C37       1.0  0.8418949926198636  0.9290170507691184  0.28970289673255656  1.0000
  N   N4        1.0  0.7763963109043456  0.9519614019989993  0.34653758987592354  1.0000
  C   C38       1.0  0.8986809979817473  0.004324683129878437  0.31981205357584575  1.0000
  C   C39       1.0  0.96249974202094  0.9826366603852161  0.2634643300009236  1.0000
  C   C40       1.0  0.9701374836234149  0.8853150160683319  0.17725300920270293  1.0000
  H   H19       1.0  0.7561055775582168  0.1870308494663726  0.42180782787510607  1.0000
  H   H20       1.0  0.8795684654576994  0.5675295208042628  0.2744753048068145  1.0000
  H   H21       1.0  0.8783689907052232  0.5692746016129235  0.8572632727735585  1.0000
  H   H22       1.0  0.7786040030062148  0.26081534980191123  0.08853802959149126  1.0000
  H   H23       1.0  0.7556214834893183  0.18756189660879574  0.7661870787095109  1.0000
  H   H24       1.0  0.805169939188704  0.7751136743295568  0.17851559974235642  1.0000
  H   H25       1.0  0.7337233393272984  0.8963983914306923  0.3247747709513309  1.0000
  H   H26       1.0  0.7701063726613325  0.024587594987005357  0.4109341063351488  1.0000
  H   H27       1.0  0.8934087666422229  0.08002999658803711  0.38646639825664164  1.0000
  H   H28       1.0  0.006167601574740944  0.04137820994493646  0.286647678710676  1.0000
  H   H29       1.0  0.020116376252396595  0.8698366033366183  0.13489126162084863  1.0000
  Zn  Zn1       1.0  0.7508893492110842  0.4089309179535061  0.5767376876319608  1.0000
  Zn  Zn2       1.0  0.9016574490622133  0.4064140297987813  0.578653328345669  1.0000
  C   C41       1.0  0.8262939055306815  0.4024811296700961  0.8149119859781992  1.0000
  C   C42       1.0  0.8262545394477376  0.41286542927168735  0.34047917814851614  1.0000
  C   C43       1.0  0.8263178191097156  0.6448745358880619  0.5724844390356616  1.0000
  C   C44       1.0  0.8262305741311842  0.17047046354405793  0.5829067939170962  1.0000
  O   O3        1.0  0.8834734590873877  0.41363775787788626  0.38959588886406715  1.0000
  O   O4        1.0  0.8835044849242983  0.39979756145861867  0.7672488285091699  1.0000
  O   O5        1.0  0.883523024259021  0.5955333152374267  0.5714868591343005  1.0000
  O   O6        1.0  0.8834548682993912  0.21790201425579103  0.585357760200879  1.0000
  O   O7        1.0  0.7690918785241528  0.5974429343568013  0.5700332551162046  1.0000
  O   O8        1.0  0.7690733394771959  0.40170874094796183  0.765795155004485  1.0000
  O   O9        1.0  0.769042313547547  0.41554889222556346  0.3881406538328327  1.0000
  O   O10       1.0  0.7690237227630711  0.21981313930706037  0.5839026225471564  1.0000
