data_image0
_chemical_formula_structural       NC10NC5H10C7OC6OCH12C7OC3NC3H11Zn2C4O8
_chemical_formula_sum              "N3 C46 H33 O11 Zn2"
_cell_length_a       19.4436361288709
_cell_length_b       10.299359160628079
_cell_length_c       10.298749378158432
_cell_angle_alpha    85.56206142688012
_cell_angle_beta     89.71352480550038
_cell_angle_gamma    89.44098980803524

_space_group_name_H-M_alt    "P 1"
_space_group_IT_number       1

loop_
  _space_group_symop_operation_xyz
  'x, y, z'

loop_
  _atom_site_type_symbol
  _atom_site_label
  _atom_site_symmetry_multiplicity
  _atom_site_fract_x
  _atom_site_fract_y
  _atom_site_fract_z
  _atom_site_occupancy
  N   N1        1.0  0.6478227147026958  0.4094565925363789  0.5621454840896327  1.0000
  C   C1        1.0  0.5889909022648826  0.4193548802891549  0.5765319180710544  1.0000
  C   C2        1.0  0.515666767834447  0.43169935796018977  0.5945273067323349  1.0000
  C   C3        1.0  0.4734628206378318  0.39972675465661367  0.49984149626940155  1.0000
  C   C4        1.0  0.3975610772895093  0.4101638126129097  0.5051713258705479  1.0000
  C   C5        1.0  0.3578317124716546  0.3853874474035508  0.6122498527974785  1.0000
  C   C6        1.0  0.2817101582188784  0.3893075265021102  0.5992898503954318  1.0000
  C   C7        1.0  0.2411723974918229  0.4469451746062618  0.6930757181025351  1.0000
  C   C8        1.0  0.1695082747833813  0.45058575042157223  0.6825313662492387  1.0000
  C   C9        1.0  0.13738711502365714  0.3961925852972781  0.5784876486703996  1.0000
  C   C10       1.0  0.06359373857281231  0.399894446065024  0.5677880091270886  1.0000
  N   N2        1.0  0.0042688690340001  0.40287054783343623  0.5591862083141426  1.0000
  C   C11       1.0  0.1771998915606562  0.33784773497793386  0.485084960863877  1.0000
  C   C12       1.0  0.2488803967595648  0.3341530003701467  0.49537750698996486  1.0000
  C   C13       1.0  0.3859744631400764  0.3448916475260779  0.7433506815415776  1.0000
  C   C14       1.0  0.4446536194073686  0.38800179973343085  0.790602584846217  1.0000
  C   C15       1.0  0.48887096034021027  0.485881035876951  0.7162409522489543  1.0000
  H   H1        1.0  0.4955431656607822  0.37063290614780686  0.4095233252193846  1.0000
  H   H2        1.0  0.3728543023022971  0.4326832761811763  0.4120077944526481  1.0000
  H   H3        1.0  0.2650631393786172  0.4902155140437694  0.7739363501155339  1.0000
  H   H4        1.0  0.13918306274346223  0.49588192855175106  0.7554641055759814  1.0000
  H   H5        1.0  0.1528373545266457  0.29477296826624966  0.4045588647882392  1.0000
  H   H6        1.0  0.27853962374118707  0.2866132154187109  0.423140881319755  1.0000
  H   H7        1.0  0.3550046301932632  0.2806567199296295  0.8075951063905031  1.0000
  H   H8        1.0  0.4598101586961827  0.3539083362511817  0.8885411719478447  1.0000
  H   H9        1.0  0.45877727734494406  0.5766033291412138  0.6909981621655108  1.0000
  H   H10       1.0  0.5321701830666347  0.5114508622227891  0.7793345160540661  1.0000
  C   C16       1.0  0.825968142660457  0.02478672007141447  0.5606350242398364  1.0000
  C   C17       1.0  0.7690730392155749  0.031125215597870515  0.47670377568039113  1.0000
  C   C18       1.0  0.740869662997353  0.9173285517509424  0.4332738343105731  1.0000
  C   C19       1.0  0.7692368903183825  0.7958606559505106  0.47695754171288485  1.0000
  C   C20       1.0  0.8261300248525858  0.7875302707163871  0.5607079325456534  1.0000
  C   C21       1.0  0.8542629731207445  0.9025839668143188  0.601852754945732  1.0000
  C   C22       1.0  0.6803164547956295  0.9261666074641539  0.3458361418008544  1.0000
  O   O1        1.0  0.6366097652386811  0.015845989674377003  0.3577664371470852  1.0000
  C   C23       1.0  0.6693442280319307  0.8333389879280867  0.24487179094385159  1.0000
  C   C24       1.0  0.7252817410297989  0.778961396540116  0.18034719036445734  1.0000
  C   C25       1.0  0.7142189512784143  0.692786368339495  0.08434967348846678  1.0000
  C   C26       1.0  0.6473995698490678  0.660109267926323  0.050138974823882076  1.0000
  C   C27       1.0  0.5912304423564656  0.7155260129835248  0.113353636191738  1.0000
  C   C28       1.0  0.6022303435985467  0.8017610890432697  0.20939810030923955  1.0000
  O   O2        1.0  0.6390612564784439  0.5730435709097785  0.953302281592995  1.0000
  C   C29       1.0  0.5742423921625174  0.5314001468493776  0.9089688025102123  1.0000
  H   H11       1.0  0.9331494183375096  0.22006716548684535  0.7194330358754584  1.0000
  H   H12       1.0  0.7469507437355597  0.12486449414867362  0.443900057807028  1.0000
  H   H13       1.0  0.7464018560393496  0.707647694985039  0.44669326499793116  1.0000
  H   H14       1.0  0.8981499613963517  0.8968900790971713  0.6664622405148781  1.0000
  H   H15       1.0  0.8477787815274331  0.45683241143246966  0.5932488952514015  1.0000
  H   H16       1.0  0.7775737998356512  0.8040814638158758  0.20304599880382468  1.0000
  H   H17       1.0  0.757864757817283  0.6515358587013589  0.03580227466276331  1.0000
  H   H18       1.0  0.5389095047713259  0.6926835933876959  0.08901032257677777  1.0000
  H   H19       1.0  0.5582000559194958  0.8429729879815274  0.25689784728016507  1.0000
  H   H20       1.0  0.5828216721763859  0.46285195275078767  0.8324167491316965  1.0000
  H   H21       1.0  0.5440169115861295  0.6163100662297175  0.8667063663361358  1.0000
  H   H22       1.0  0.5453773857447064  0.4803579757088483  0.9907505736553142  1.0000
  C   C30       1.0  0.8260173644790486  0.4061871082679216  0.1792706674770359  1.0000
  C   C31       1.0  0.8636110813631133  0.5223599721821197  0.16895025141004694  1.0000
  C   C32       1.0  0.8819308086992714  0.581918673017739  0.04649866153921289  1.0000
  C   C33       1.0  0.8636138251944776  0.5224087840495046  0.9337062039642863  1.0000
  C   C34       1.0  0.8260807754814963  0.4061299029808194  0.9420722453342063  1.0000
  C   C35       1.0  0.807362765708571  0.3489404454609186  0.06527608742527602  1.0000
  C   C36       1.0  0.9221871044765755  0.7039456775417072  0.03549626378111337  1.0000
  O   O3        1.0  0.9651668709921473  0.7214947698391696  0.9437943156324868  1.0000
  C   C37       1.0  0.9136866494376944  0.8060559298850172  0.12846644151516418  1.0000
  C   C38       1.0  0.8493468016308435  0.8298192689840769  0.18570705727141834  1.0000
  C   C39       1.0  0.8416740387344871  0.9274653395736212  0.2724805185251715  1.0000
  N   N3        1.0  0.7761963805749889  0.9505273085953441  0.3306983956191265  1.0000
  C   C40       1.0  0.8984439264144575  0.002669291862085199  0.3014143071762647  1.0000
  C   C41       1.0  0.9622422009157356  0.9808666560550652  0.2437190432604841  1.0000
  C   C42       1.0  0.9698753939432418  0.8835329943737911  0.15732274547851932  1.0000
  H   H23       1.0  0.755895054328461  0.1856470429623398  0.4062039256107439  1.0000
  H   H24       1.0  0.8793277023273527  0.5659164065978513  0.25637018852908033  1.0000
  H   H25       1.0  0.8781286419337543  0.5676636175678882  0.8391838182447544  1.0000
  H   H26       1.0  0.7783880677405485  0.2593896771808726  0.07247944831992714  1.0000
  H   H27       1.0  0.7554111236514192  0.1861789529211686  0.750593489873701  1.0000
  H   H28       1.0  0.8049570781736177  0.7736309031276452  0.1620270378596822  1.0000
  H   H29       1.0  0.7335355437361138  0.8950421920271308  0.309819087825137  1.0000
  H   H30       1.0  0.769910021586877  0.02316353322309528  0.3952453646284262  1.0000
  H   H31       1.0  0.893175023791367  0.07838274780091536  0.36819847250442916  1.0000
  H   H32       1.0  0.005897684542911064  0.03952846179204084  0.26599875370010473  1.0000
  H   H33       1.0  0.01983828947094901  0.8679647967584612  0.11390606461029829  1.0000
  Zn  Zn1       1.0  0.7506853763369227  0.4075525302971903  0.5612990134601863  1.0000
  Zn  Zn2       1.0  0.901406197551925  0.40476400136977064  0.5600433600027663  1.0000
  C   C43       1.0  0.8260661718929524  0.40096697780670465  0.7978859343375893  1.0000
  C   C44       1.0  0.8260270482209419  0.411351162053466  0.32345655304731835  1.0000
  C   C45       1.0  0.8260954485980255  0.6433559924259344  0.5555185433657692  1.0000
  C   C46       1.0  0.8259977197600009  0.16896058804578118  0.565824013542958  1.0000
  O   O4        1.0  0.8832280631336711  0.41202036762429906  0.37137013891455894  1.0000
  O   O5        1.0  0.8832587726009836  0.3981803635874246  0.7490189625791301  1.0000
  O   O6        1.0  0.8832816429696377  0.5939125724841654  0.553305586132619  1.0000
  O   O7        1.0  0.8832051413280844  0.21628816897680814  0.5670834184076201  1.0000
  O   O8        1.0  0.7688863811271437  0.5960283636431549  0.5542589554769946  1.0000
  O   O9        1.0  0.7688635110807377  0.4002977150878715  0.7499722628213468  1.0000
  O   O10       1.0  0.768832801519716  0.41413767398405676  0.3723218776208794  1.0000
  O   O11       1.0  0.7688098797174424  0.21840546604031896  0.5680352544890517  1.0000
