data_image0
_chemical_formula_structural       NC10NC5H10C7OC3NC3H11C7OC3NC3H11Zn2C4O8
_chemical_formula_sum              "N4 C45 H32 O10 Zn2"
_cell_length_a       19.4436361288709
_cell_length_b       10.298746005989749
_cell_length_c       10.298749378158432
_cell_angle_alpha    85.5599185525692
_cell_angle_beta     89.71352480550038
_cell_angle_gamma    89.42734808848358

_space_group_name_H-M_alt    "P 1"
_space_group_IT_number       1

loop_
  _space_group_symop_operation_xyz
  'x, y, z'

loop_
  _atom_site_type_symbol
  _atom_site_label
  _atom_site_symmetry_multiplicity
  _atom_site_fract_x
  _atom_site_fract_y
  _atom_site_fract_z
  _atom_site_occupancy
  N   N1        1.0  0.6476450622872698  0.4095478012066134  0.5620940374209344  1.0000
  C   C1        1.0  0.5888120022376201  0.4194467294967912  0.5764801101042976  1.0000
  C   C2        1.0  0.5154863118697495  0.43179200600292256  0.5944750481789789  1.0000
  C   C3        1.0  0.4732863946022818  0.3998173336901647  0.4997904047501618  1.0000
  C   C4        1.0  0.39738333573380374  0.4102550670487275  0.5051198533875629  1.0000
  C   C5        1.0  0.3576570938082382  0.3854770985127134  0.6121992846782454  1.0000
  C   C6        1.0  0.2815350454561587  0.3893974312871953  0.5992391391891314  1.0000
  C   C7        1.0  0.2409900198956494  0.4470388092353641  0.6930229030606125  1.0000
  C   C8        1.0  0.1693254383173919  0.4506796206393977  0.6824784183224166  1.0000
  C   C9        1.0  0.137211134446113  0.3962829356278741  0.5784366861521106  1.0000
  C   C10       1.0  0.06341729140090101  0.3999850359502113  0.567736911486934  1.0000
  N   N2        1.0  0.0040920467447062  0.40296133030794223  0.5591350020430994  1.0000
  C   C11       1.0  0.1770312649545944  0.33793430970008553  0.48503612799484475  1.0000
  C   C12       1.0  0.2487122358496661  0.3342393359988547  0.49532880898268594  1.0000
  C   C13       1.0  0.3858049486967552  0.34497867807347493  0.7433015915622254  1.0000
  C   C14       1.0  0.4444786712226256  0.38809162002240405  0.7905519213003358  1.0000
  C   C15       1.0  0.4886836751435912  0.48597719012116625  0.7161867160065736  1.0000
  H   H1        1.0  0.4953704067069209  0.37072160246198305  0.4094732956566416  1.0000
  H   H2        1.0  0.3726737223214011  0.43277598789516536  0.41195549998522685  1.0000
  H   H3        1.0  0.2648753078505112  0.4903119487804748  0.7738819556600778  1.0000
  H   H4        1.0  0.1389945170023543  0.4959787299731315  0.7554095042903533  1.0000
  H   H5        1.0  0.1526741572019046  0.2948567555366892  0.40451160419412724  1.0000
  H   H6        1.0  0.27837745489778415  0.286696474655715  0.42309391856532463  1.0000
  H   H7        1.0  0.3548432121255968  0.2807395937102557  0.8075483610545098  1.0000
  H   H8        1.0  0.4596395077605853  0.3539959502859966  0.8884917528497387  1.0000
  H   H9        1.0  0.4585785572204126  0.5767053542010134  0.6909406144626784  1.0000
  H   H10       1.0  0.5319796749673477  0.5115486711400683  0.7792793464857555  1.0000
  C   C16       1.0  0.8258389752656744  0.024853036008000595  0.5605976184317021  1.0000
  C   C17       1.0  0.8580031755800291  0.03277575655674081  0.4378170166471844  1.0000
  C   C18       1.0  0.8735436488810342  0.9196719226429834  0.3750501570695519  1.0000
  C   C19       1.0  0.8580036871733798  0.7975391510037039  0.43776787155874897  1.0000
  C   C20       1.0  0.8259047010689872  0.7876460097760396  0.5606426308980699  1.0000
  C   C21       1.0  0.8098604540765646  0.9018680594321913  0.621124716188086  1.0000
  C   C22       1.0  0.9080933890616675  0.9278358883642911  0.24593800870764482  1.0000
  O   O1        1.0  0.9500856324692378  0.8390842139309564  0.2203752414667579  1.0000
  C   C23       1.0  0.8950070372232972  0.03662423111082469  0.14583331408650002  1.0000
  C   C24       1.0  0.8298796809711588  0.09722082316121372  0.1342655883608197  1.0000
  C   C25       1.0  0.817819506690676  0.19912319462674377  0.038451600915527795  1.0000
  N   N3        1.0  0.7515912269201688  0.26058224434947297  0.02779645930303687  1.0000
  C   C26       1.0  0.8709291198077044  0.24003587637265067  0.9528700775149455  1.0000
  C   C27       1.0  0.9354285105783391  0.17928628788952516  0.9625868036375  1.0000
  C   C28       1.0  0.9474351610934674  0.0778094064378494  0.05809700436388621  1.0000
  H   H11       1.0  0.7660183407621831  0.21716046865007743  0.7934474554711664  1.0000
  H   H12       1.0  0.8716768754267754  0.12704397697241743  0.3914781994076131  1.0000
  H   H13       1.0  0.870404077494312  0.7101226532537017  0.3899634302706576  1.0000
  H   H14       1.0  0.7850710533485706  0.8950089328400869  0.7157681927991921  1.0000
  H   H15       1.0  0.7655124570838452  0.5616300712074243  0.793008650255425  1.0000
  H   H16       1.0  0.7882335915197834  0.06458061371477375  0.19857877736208085  1.0000
  H   H17       1.0  0.7116344627857087  0.23086095437092746  0.09108408629592146  1.0000
  H   H18       1.0  0.7420437916361412  0.3363803191126731  0.9566319230232381  1.0000
  H   H19       1.0  0.8622551837010874  0.31855429016929615  0.8784493006248666  1.0000
  H   H20       1.0  0.9762316979516987  0.21090667182064515  0.8959481252204529  1.0000
  H   H21       1.0  0.9978789515724658  0.03223479236061211  0.06420630160379681  1.0000
  C   C29       1.0  0.8258401241598734  0.4062781053634872  0.17921934014800045  1.0000
  C   C30       1.0  0.863419198244727  0.5224584870490667  0.16889468364758908  1.0000
  C   C31       1.0  0.8817314186118028  0.5820210420437522  0.04644091982066012  1.0000
  C   C32       1.0  0.8634219359236875  0.522507302075162  0.9336506344201441  1.0000
  C   C33       1.0  0.8259035423726585  0.40622089637451975  0.9420209200932255  1.0000
  C   C34       1.0  0.8071927409418128  0.34902773801388354  0.06522684966048153  1.0000
  C   C35       1.0  0.9219723337152956  0.7040559431718969  0.03543406794676396  1.0000
  O   O2        1.0  0.9649498882871639  0.721606171105164  0.9437314792375546  1.0000
  C   C36       1.0  0.9134590083737286  0.806172803267714  0.12840051854771173  1.0000
  C   C37       1.0  0.8491161653596382  0.8299376801385441  0.1856402669167474  1.0000
  C   C38       1.0  0.841431094840338  0.9275900695947346  0.2724101639847918  1.0000
  N   N4        1.0  0.7759505298765272  0.9506535310012096  0.33062719929228446  1.0000
  C   C39       1.0  0.8981915035737097  0.002798888476835071  0.30134120761142813  1.0000
  C   C40       1.0  0.9619925261489153  0.9809948417789585  0.2436467395151054  1.0000
  C   C41       1.0  0.9696379874223481  0.8836548814476246  0.1572539945155904  1.0000
  H   H22       1.0  0.7557456115842571  0.18572376848246508  0.4061606482292799  1.0000
  H   H23       1.0  0.8791303292167081  0.5660177400861621  0.2563130309103172  1.0000
  H   H24       1.0  0.8779310485990528  0.5677650641216105  0.8391265968509285  1.0000
  H   H25       1.0  0.7782293302389478  0.25947117472990766  0.07243347925367405  1.0000
  H   H26       1.0  0.7552616138635834  0.1862557128622191  0.7505501930769558  1.0000
  H   H27       1.0  0.8047335240636981  0.7737456782239611  0.16196229844028553  1.0000
  H   H28       1.0  0.7332966865591489  0.8951648238834704  0.3097499167642197  1.0000
  H   H29       1.0  0.769655015586421  0.02329445605996039  0.3951715170019243  1.0000
  H   H30       1.0  0.8929130577845513  0.07851724398027171  0.36812260931770857  1.0000
  H   H31       1.0  0.005640615854534348  0.039660443635178844  0.2659243087362584  1.0000
  H   H32       1.0  0.019602845215459297  0.8680856763840274  0.11383788190318422  1.0000
  Zn  Zn1       1.0  0.7505079639155892  0.4076436157518637  0.5612476362917906  1.0000
  Zn  Zn2       1.0  0.9012291366056933  0.404854906373328  0.5599920846186501  1.0000
  C   C42       1.0  0.825889589535711  0.40105763709750164  0.7978347975488822  1.0000
  C   C43       1.0  0.8258491570079164  0.4114424933249692  0.32340503722481273  1.0000
  C   C44       1.0  0.8258883147543831  0.6434623371800652  0.5554585591195402  1.0000
  C   C45       1.0  0.8258503802299271  0.16903623375303978  0.5657813452348932  1.0000
  O   O3        1.0  0.8830500875718359  0.4121117422013929  0.371318598665336  1.0000
  O   O4        1.0  0.8830825414775083  0.39827084255100975  0.7489679275048133  1.0000
  O   O5        1.0  0.883080741132732  0.5940157176586784  0.5532474066239459  1.0000
  O   O6        1.0  0.8830518364783877  0.21636687734363735  0.5670390225923803  1.0000
  O   O7        1.0  0.7686852126091553  0.5961316457346186  0.5542006987396872  1.0000
  O   O8        1.0  0.7686870130795093  0.40038833106937943  0.7499211504614425  1.0000
  O   O9        1.0  0.7686545590858174  0.41422918557615285  0.37227026008771635  1.0000
  O   O10       1.0  0.7686563079968541  0.21848431142154778  0.5679907813902114  1.0000
