data_image0
_chemical_formula_structural       NC8NC6H8C7OC6OCH12C7OC3OC4H12Zn2C4O8
_chemical_formula_sum              "N2 C46 H32 O12 Zn2"
_cell_length_a       17.457602349358154
_cell_length_b       10.299359160628079
_cell_length_c       10.299374482448636
_cell_angle_alpha    85.55316158380268
_cell_angle_beta     92.85818479457473
_cell_angle_gamma    91.71072845926622

_space_group_name_H-M_alt    "P 1"
_space_group_IT_number       1

loop_
  _space_group_symop_operation_xyz
  'x, y, z'

loop_
  _atom_site_type_symbol
  _atom_site_label
  _atom_site_symmetry_multiplicity
  _atom_site_fract_x
  _atom_site_fract_y
  _atom_site_fract_z
  _atom_site_occupancy
  N   N1        1.0  0.7230248688639428  0.4532036110568889  0.6266457558137193  1.0000
  C   C1        1.0  0.6619380442927485  0.4072796126107616  0.6160244476532739  1.0000
  C   C2        1.0  0.5859434510670943  0.3501558708018244  0.6028210831331589  1.0000
  C   C3        1.0  0.5274103681957943  0.3903009328189613  0.6777250556485852  1.0000
  C   C4        1.0  0.4528542445758172  0.3352953676367585  0.6651363894221747  1.0000
  C   C5        1.0  0.3907299721328685  0.3776825833685471  0.7444625222466659  1.0000
  C   C6        1.0  0.3161980736099397  0.396164885441856  0.6886999673297673  1.0000
  C   C7        1.0  0.2576649242399773  0.43612599079749725  0.7637118743992453  1.0000
  C   C8        1.0  0.1816954267405819  0.45521469448450946  0.7057338815375456  1.0000
  N   N2        1.0  0.1206288657201734  0.47055563233130737  0.6591197255837948  1.0000
  C   C9        1.0  0.2731714734569795  0.4578478206864487  0.8949948932724059  1.0000
  C   C10       1.0  0.3469186877958382  0.4397544236227182  0.9511451000012732  1.0000
  C   C11       1.0  0.4054401895490496  0.3999732680659178  0.8765909450810381  1.0000
  C   C12       1.0  0.4381199564032839  0.23946764491882422  0.5762107211804297  1.0000
  C   C13       1.0  0.4966413125331061  0.19960117505941266  0.501706793081609  1.0000
  C   C14       1.0  0.5704125945873891  0.2547189872622404  0.5148454340353865  1.0000
  H   H1        1.0  0.5397597870394513  0.46548146793010803  0.7443659685629507  1.0000
  H   H2        1.0  0.3038685456105276  0.3812186346288491  0.5866715479589801  1.0000
  H   H3        1.0  0.2283068449105258  0.48871737901473056  0.9538355957557667  1.0000
  H   H4        1.0  0.35873494303358633  0.45625846938315395  0.05280043247075494  1.0000
  H   H5        1.0  0.46191366155328006  0.38496997132818667  0.9226966405047712  1.0000
  H   H6        1.0  0.3816265561602773  0.1941333403252914  0.5655533641205279  1.0000
  H   H7        1.0  0.4848061911024697  0.125537421070669  0.4338676633788854  1.0000
  H   H8        1.0  0.6152769659205453  0.22297958330248968  0.45651576607354794  1.0000
  C   C15       1.0  0.9217402585390507  0.08049754236806783  0.6428441782103187  1.0000
  C   C16       1.0  0.8582991987161951  0.08302929872917741  0.5532631895054585  1.0000
  C   C17       1.0  0.8268514467744716  0.9673459094008469  0.5070327551554301  1.0000
  C   C18       1.0  0.8584818980266272  0.847775700009034  0.5535332252544665  1.0000
  C   C19       1.0  0.9219208120860249  0.8432519521277717  0.6429331734190504  1.0000
  C   C20       1.0  0.953290642024328  0.9601880282922209  0.6868716509161927  1.0000
  C   C21       1.0  0.7593308784158084  0.9721321515695058  0.41358193417948863  1.0000
  O   O1        1.0  0.7105742708952658  0.058874357430623414  0.42116665856016366  1.0000
  C   C22       1.0  0.7471199294847852  0.878584657726202  0.31153408126855875  1.0000
  C   C23       1.0  0.8095342729179885  0.8279744608391582  0.2525746261754742  1.0000
  C   C24       1.0  0.7972209176408203  0.741072641285209  0.15548425021436652  1.0000
  C   C25       1.0  0.7226957945727672  0.7039139653531481  0.11463372709959274  1.0000
  C   C26       1.0  0.6600234589809559  0.7555479818571493  0.17226031254086238  1.0000
  C   C27       1.0  0.6722666512292457  0.842505618029705  0.269391380879866  1.0000
  O   O2        1.0  0.7134217312685427  0.6163045832654341  0.016975064742931867  1.0000
  C   C28       1.0  0.6411309405978085  0.5703156327670625  0.9662013476763978  1.0000
  H   H9        1.0  0.04125287792943144  0.28294916038181417  0.8122853478307104  1.0000
  H   H10       1.0  0.8336317123985486  0.1752884465471518  0.5182627178383965  1.0000
  H   H11       1.0  0.8330186677151704  0.7580343165464438  0.5210011627832483  1.0000
  H   H12       1.0  0.0022270000072510676  0.9574305546526491  0.7558391673472797  1.0000
  H   H13       1.0  0.9460601558475349  0.5140024667468619  0.6776238359408624  1.0000
  H   H14       1.0  0.8678578914275885  0.8566024412616622  0.28046997359908166  1.0000
  H   H15       1.0  0.8459198341229822  0.7027613766230646  0.111278983698613  1.0000
  H   H16       1.0  0.6016680862784003  0.7291959862579851  0.14271770658406613  1.0000
  H   H17       1.0  0.6231391519957935  0.8807526279094948  0.3125108504754561  1.0000
  H   H18       1.0  0.6507221959815973  0.5023564620315898  0.890507592420823  1.0000
  H   H19       1.0  0.607427276350999  0.6532028337305896  0.9209373253192399  1.0000
  H   H20       1.0  0.6089102099908792  0.5173212488692506  0.04510791881851284  1.0000
  C   C29       1.0  0.9219016233328132  0.4619653638399408  0.2615119337971723  1.0000
  C   C30       1.0  0.002041940294895239  0.48012746493070124  0.26568737914293483  1.0000
  C   C31       1.0  0.04236593370057329  0.49075513378218294  0.15049782683165902  1.0000
  C   C32       1.0  0.0018585420966175104  0.4800555889024021  0.030433543286749742  1.0000
  C   C33       1.0  0.9217594281011937  0.46178416107733344  0.024265330508098648  1.0000
  C   C34       1.0  0.8822228117155883  0.4531848651489425  0.14034685993950546  1.0000
  C   C35       1.0  0.12707829243492452  0.508578425927517  0.1548789982689951  1.0000
  O   O3        1.0  0.16470526034259358  0.45667724524283515  0.07209980850620945  1.0000
  C   C36       1.0  0.16910150934294643  0.5852954928199887  0.2530863171061528  1.0000
  C   C37       1.0  0.24394408444571258  0.5518430367799978  0.29735973062199794  1.0000
  C   C38       1.0  0.2849401781738756  0.6238978431957027  0.3889182266106599  1.0000
  O   O4        1.0  0.35915842210261495  0.5852436647960508  0.430269100379413  1.0000
  C   C39       1.0  0.4072416961503533  0.6492142060630484  0.5225946070009277  1.0000
  C   C40       1.0  0.250669899881216  0.7317913735154538  0.43604452863269216  1.0000
  C   C41       1.0  0.17672338955812972  0.7666161787085353  0.3913338758863314  1.0000
  C   C42       1.0  0.13617004721385673  0.694347679995359  0.3000525511212806  1.0000
  H   H21       1.0  0.7707976643605975  0.42570937411689425  0.4611187605937508  1.0000
  H   H22       1.0  0.033289586859362785  0.4845832117810054  0.35883108531581986  1.0000
  H   H23       1.0  0.032929863016394334  0.48726729860782503  0.9415782245025279  1.0000
  H   H24       1.0  0.8204404822844591  0.4391823606963836  0.13632418110185496  1.0000
  H   H25       1.0  0.8910610131785481  0.4536847204701093  0.6945286263931818  1.0000
  H   H26       1.0  0.27053062883274626  0.4686892845044224  0.26164445175887785  1.0000
  H   H27       1.0  0.462453866152456  0.5982653165806313  0.5370575088771652  1.0000
  H   H28       1.0  0.37953752108292904  0.6462041788718831  0.6175664216801862  1.0000
  H   H29       1.0  0.4190608365623383  0.7517380917117875  0.48590830889819103  1.0000
  H   H30       1.0  0.2807475568661144  0.7895430247505617  0.506697537754198  1.0000
  H   H31       1.0  0.1508574942191203  0.8502904420388016  0.42713699175046327  1.0000
  H   H32       1.0  0.0794450522817236  0.7245996497648566  0.2651985998061428  1.0000
  Zn  Zn1       1.0  0.8377647914476721  0.45820754496714655  0.6360245402288494  1.0000
  Zn  Zn2       1.0  0.005888924384033212  0.4655410477039428  0.6497515726719589  1.0000
  C   C43       1.0  0.9217833770410002  0.456644488804959  0.8800878995501342  1.0000
  C   C44       1.0  0.9218721750651236  0.4671058225942155  0.40568849090960657  1.0000
  C   C45       1.0  0.9218836921299025  0.6990762244450446  0.6377407175282912  1.0000
  C   C46       1.0  0.9217718022249611  0.22467252407826255  0.6480357373054491  1.0000
  O   O5        1.0  0.9856645228794073  0.47160836764150926  0.4592847971580123  1.0000
  O   O6        1.0  0.9855933558355642  0.4577069229813209  0.8369097193361907  1.0000
  O   O7        1.0  0.9856735012021716  0.6534735776411364  0.641212585139143  1.0000
  O   O8        1.0  0.985584320163773  0.2758417197929435  0.6549818292953764  1.0000
  O   O9        1.0  0.8580693382954186  0.6479068703769966  0.630794278914238  1.0000
  O   O10       1.0  0.857989193307558  0.45214177609189865  0.8264913440460933  1.0000
  O   O11       1.0  0.8580603606827812  0.46604317586768285  0.4488648604341554  1.0000
  O   O12       1.0  0.8579801579436602  0.2702765187067182  0.6445619899400106  1.0000
