data_image0
_chemical_formula_structural       NC9NC5H8C6SCOC6H10C7OC4NC3H9Zn2C4O8
_chemical_formula_sum              "N3 C45 H27 S1 O10 Zn2"
_cell_length_a       17.807436237873137
_cell_length_b       10.302038109246572
_cell_length_c       10.299375074045738
_cell_angle_alpha    85.54623755187913
_cell_angle_beta     89.38493469783968
_cell_angle_gamma    88.4085403614985

_space_group_name_H-M_alt    "P 1"
_space_group_IT_number       1

loop_
  _space_group_symop_operation_xyz
  'x, y, z'

loop_
  _atom_site_type_symbol
  _atom_site_label
  _atom_site_symmetry_multiplicity
  _atom_site_fract_x
  _atom_site_fract_y
  _atom_site_fract_z
  _atom_site_occupancy
  N   N1        1.0  0.7077674980006459  0.3879546433653924  0.5572221811989411  1.0000
  C   C1        1.0  0.647174155643858  0.3527777852798555  0.5461935782021323  1.0000
  C   C2        1.0  0.5718026975258975  0.30902164770612406  0.5324751935534866  1.0000
  C   C3        1.0  0.553705077479714  0.23766380477278015  0.42745878377811386  1.0000
  C   C4        1.0  0.48052326578732335  0.1950685295633583  0.4140564709178034  1.0000
  C   C5        1.0  0.4243902874739823  0.22345367338778388  0.5056380701304377  1.0000
  C   C6        1.0  0.3466169024581514  0.17830072333497538  0.49147697429590886  1.0000
  C   C7        1.0  0.2844540319902106  0.26002687046563744  0.5174267882785044  1.0000
  C   C8        1.0  0.211129876671272  0.21722860232287355  0.504038133298959  1.0000
  C   C9        1.0  0.1479173934489184  0.30164529767294845  0.5303521850005888  1.0000
  N   N2        1.0  0.0971075441913252  0.36951048003891906  0.5515079553575126  1.0000
  C   C10       1.0  0.1993850006026393  0.09244628055720905  0.4646742829586865  1.0000
  C   C11       1.0  0.2606904992343445  0.010706287719702168  0.43871607723479245  1.0000
  C   C12       1.0  0.3338951627322106  0.053110188815096215  0.45190213741527874  1.0000
  C   C13       1.0  0.4431793893043672  0.29530567769418536  0.6108737785328984  1.0000
  C   C14       1.0  0.51641404738329  0.33771066427184815  0.6241204105595624  1.0000
  H   H1        1.0  0.596100660107811  0.21521114278995235  0.355739855719853  1.0000
  H   H2        1.0  0.467606319869474  0.1414307688245242  0.33112561855685985  1.0000
  H   H3        1.0  0.2929677069013653  0.3574567207841097  0.5463167094787391  1.0000
  H   H4        1.0  0.1429143496578417  0.05842265887203668  0.45407487629968113  1.0000
  H   H5        1.0  0.2514787137110622  0.9140967852754629  0.40862578222079815  1.0000
  H   H6        1.0  0.3805250328720636  0.9873886275679962  0.43284506854369686  1.0000
  H   H7        1.0  0.4015004989535034  0.31721893687637026  0.6838872051892879  1.0000
  H   H8        1.0  0.5298596407827184  0.3925690999933946  0.7060097285304339  1.0000
  C   C15       1.0  0.9023699587418905  0.9974573543599586  0.5543259207898545  1.0000
  C   C16       1.0  0.8381520771387182  0.005299128836186107  0.4757454993553163  1.0000
  C   C17       1.0  0.8065533344432677  0.8922258005207895  0.43615801797103826  1.0000
  C   C18       1.0  0.838393716030147  0.7701551037735488  0.47568794449320917  1.0000
  C   C19       1.0  0.9025122816526001  0.7599974750756039  0.5544154102171808  1.0000
  C   C20       1.0  0.9342084074046021  0.8743157994628691  0.593240539884158  1.0000
  S   S1        1.0  0.7250400646128617  0.9036610018053792  0.33474094729056403  1.0000
  C   C21       1.0  0.7802820614529282  0.9095937947995876  0.18750204109092117  1.0000
  O   O1        1.0  0.7983993850703451  0.8034852896655612  0.14088414100869273  1.0000
  C   C22       1.0  0.8050628244529272  0.03461076647067984  0.12163803063669487  1.0000
  C   C23       1.0  0.8581845777033498  0.034471824451616895  0.019347574797407896  1.0000
  C   C24       1.0  0.8823333064137154  0.15168730913915063  0.9572674582504743  1.0000
  C   C25       1.0  0.8537667613201021  0.27026296275696193  0.9961896082400772  1.0000
  C   C26       1.0  0.8008710305493458  0.2718642914760683  0.09712364577053867  1.0000
  C   C27       1.0  0.776471875011443  0.15496418700338443  0.15952762380275165  1.0000
  H   H9        1.0  0.02332612768100617  0.1899846138394763  0.7026108503429949  1.0000
  H   H10       1.0  0.8125950060189203  0.09904372256756266  0.44484347379730993  1.0000
  H   H11       1.0  0.8130787033916664  0.6836148815102268  0.4442938147027613  1.0000
  H   H12       1.0  0.9837161935577305  0.8673500152751716  0.6538174774987147  1.0000
  H   H13       1.0  0.9270211837799185  0.4288149360320302  0.5840235436950469  1.0000
  H   H14       1.0  0.8814259527054136  0.9438181531807958  0.987707576787304  1.0000
  H   H15       1.0  0.9233188126142878  0.15052858839089645  0.8789650535977698  1.0000
  H   H16       1.0  0.872548002376852  0.36089579153250884  0.948037659727464  1.0000
  H   H17       1.0  0.7786143575083747  0.3638548688654981  0.12698846352911186  1.0000
  H   H18       1.0  0.7350463682091108  0.1595318889243047  0.2367041004805146  1.0000
  C   C28       1.0  0.9024666711033588  0.3788685198775741  0.17298353300694735  1.0000
  C   C29       1.0  0.960311185077201  0.46921689117202514  0.16370224517647913  1.0000
  C   C30       1.0  0.9889029198664836  0.5158937158502797  0.04177228177012138  1.0000
  C   C31       1.0  0.9601895063072727  0.4689849767253227  0.9284786862613705  1.0000
  C   C32       1.0  0.902415519003813  0.37858632694162786  0.9357578056422957  1.0000
  C   C33       1.0  0.873753750332706  0.3343088039736737  0.058485358617710315  1.0000
  C   C34       1.0  0.05052198367554306  0.6102701961799017  0.03190205674163438  1.0000
  O   O2        1.0  0.09852972765819423  0.6033120376711532  0.9415619685187315  1.0000
  C   C35       1.0  0.057668103445532415  0.7125525751370314  0.12443599595118071  1.0000
  C   C36       1.0  0.12911716315921673  0.7557176984069538  0.1551495136639751  1.0000
  C   C37       1.0  0.13641531679815055  0.8533603008642974  0.24127089937283852  1.0000
  C   C38       1.0  0.20978795400553163  0.896225020743999  0.27298726938492757  1.0000
  N   N3        1.0  0.2687712871891921  0.930677810724295  0.2984798957080832  1.0000
  C   C39       1.0  0.07227160342273842  0.9092373838685237  0.29641208441467803  1.0000
  C   C40       1.0  0.0010731872649392127  0.868071555305532  0.26519417630829634  1.0000
  C   C41       1.0  0.9936256729919198  0.7707059483528005  0.17935057389061937  1.0000
  H   H19       1.0  0.7940970702984049  0.2068698590675322  0.39792153112295314  1.0000
  H   H20       1.0  0.9837717102884894  0.5022986189622731  0.2515452799485667  1.0000
  H   H21       1.0  0.9825578768958164  0.5041525031116127  0.834409583670618  1.0000
  H   H22       1.0  0.8291601061752597  0.2646561303321431  0.06483673081846009  1.0000
  H   H23       1.0  0.8806544291674366  0.3430392265665967  0.611152679104821  1.0000
  H   H24       1.0  0.17905321718647005  0.7126417199204715  0.1130310721206651  1.0000
  H   H25       1.0  0.07729729032471688  0.9848591228893842  0.363026625024788  1.0000
  H   H26       1.0  0.951511598583136  0.9121082578187225  0.3071584207760647  1.0000
  H   H27       1.0  0.9378190550944038  0.741963642968956  0.154862541257202  1.0000
  Zn  Zn1       1.0  0.8201226227804829  0.3826285890330101  0.5555806897995932  1.0000
  Zn  Zn2       1.0  0.9847523985236392  0.3748259468524724  0.553160122636766  1.0000
  C   C42       1.0  0.9024225653610303  0.3734673194071114  0.7915765245870938  1.0000
  C   C43       1.0  0.9024542539922857  0.38398876944285365  0.31716438908148126  1.0000
  C   C44       1.0  0.9024818386199783  0.6158632503565005  0.5492231109649339  1.0000
  C   C45       1.0  0.9023949242609651  0.1415912812118123  0.5595178725885337  1.0000
  O   O3        1.0  0.9649262275585987  0.3827404455804526  0.36463420820052805  1.0000
  O   O4        1.0  0.9649007821523425  0.3687926390523064  0.7422691770207774  1.0000
  O   O5        1.0  0.9649478037597607  0.5645304582257593  0.5465670933719082  1.0000
  O   O6        1.0  0.9648791497824502  0.18700263839347775  0.5603361952971471  1.0000
  O   O7        1.0  0.8399958153416096  0.5704519001560793  0.5484046179584017  1.0000
  O   O8        1.0  0.8399487940265015  0.3747156409283532  0.7441066325415675  1.0000
  O   O9        1.0  0.8399742395789436  0.3886634027870386  0.3664701022400576  1.0000
  O   O10       1.0  0.8399271617914633  0.19292558627766088  0.5621721867081166  1.0000
