data_image0
_chemical_formula_structural       NC10NC3NCH9C7OC6OCH12C7OC3OC4H12Zn2C4O8
_chemical_formula_sum              "N3 C46 H33 O12 Zn2"
_cell_length_a       19.437513618241372
_cell_length_b       10.299359160628079
_cell_length_c       10.299374482448636
_cell_angle_alpha    85.55316158380268
_cell_angle_beta     90.32903884356655
_cell_angle_gamma    89.54510135387923

_space_group_name_H-M_alt    "P 1"
_space_group_IT_number       1

loop_
  _space_group_symop_operation_xyz
  'x, y, z'

loop_
  _atom_site_type_symbol
  _atom_site_label
  _atom_site_symmetry_multiplicity
  _atom_site_fract_x
  _atom_site_fract_y
  _atom_site_fract_z
  _atom_site_occupancy
  N   N1        1.0  0.6483822207597948  0.41084053644651397  0.5758472314090795  1.0000
  C   C1        1.0  0.5894528902855479  0.42785166537228925  0.5728743425232652  1.0000
  C   C2        1.0  0.5160174193739867  0.44910550631905877  0.5691842342702809  1.0000
  C   C3        1.0  0.4742348989517932  0.3479176858553614  0.5575053650929682  1.0000
  C   C4        1.0  0.3983479972074699  0.3579847086551253  0.5502856790324093  1.0000
  C   C5        1.0  0.35878270031936  0.43881482283184625  0.6160457615507287  1.0000
  C   C6        1.0  0.282599695976899  0.4302089559975246  0.607599738810386  1.0000
  C   C7        1.0  0.24943739271573812  0.30886138222454496  0.6122202693445908  1.0000
  C   C8        1.0  0.1777022412678934  0.30249167480950145  0.6050507584488907  1.0000
  C   C9        1.0  0.1381586212182483  0.4169967420570191  0.5936228714895302  1.0000
  C   C10       1.0  0.0643089450159171  0.4102889006283392  0.5862851993609874  1.0000
  N   N2        1.0  0.0049389034480642  0.40489638605544886  0.5803861695027677  1.0000
  C   C11       1.0  0.1706041707610718  0.5380335166698877  0.5897475836088415  1.0000
  C   C12       1.0  0.2423237737851792  0.5446571997797263  0.5969791662050852  1.0000
  C   C13       1.0  0.3874754505272733  0.5310735945809921  0.7059862684909217  1.0000
  N   N3        1.0  0.44447669896125575  0.5942931094885511  0.6855933636461122  1.0000
  C   C14       1.0  0.4883287756597054  0.5850665114319384  0.5724802024974298  1.0000
  H   H1        1.0  0.4965996586531393  0.2528640538167004  0.5453657233237921  1.0000
  H   H2        1.0  0.3736255751011956  0.2884895778368306  0.4919523814026867  1.0000
  H   H3        1.0  0.2788668666061635  0.21894511451931042  0.6232244405689751  1.0000
  H   H4        1.0  0.1530877188612939  0.20826313637110982  0.6089201934665602  1.0000
  H   H5        1.0  0.1404889993517454  0.6272941575744104  0.5810555145306584  1.0000
  H   H6        1.0  0.2664568660675873  0.639298547329501  0.5930943491534204  1.0000
  H   H7        1.0  0.35746672962221177  0.551433446001041  0.7903596522011556  1.0000
  H   H8        1.0  0.5310960008230788  0.6553779852349348  0.5782571321940422  1.0000
  H   H9        1.0  0.45867847664143474  0.6132034972711722  0.4818368806747815  1.0000
  C   C15       1.0  0.8265829040352408  0.02649144517084423  0.57808424112585  1.0000
  C   C16       1.0  0.7696912851896397  0.03274030514259407  0.49296051573854505  1.0000
  C   C17       1.0  0.7414900930592556  0.9188994851631285  0.44893954812095793  1.0000
  C   C18       1.0  0.7698551232396579  0.7974760018051513  0.49321771533795533  1.0000
  C   C19       1.0  0.826744817843181  0.7892352760366387  0.5781605509427545  1.0000
  C   C20       1.0  0.8548761323748826  0.9043333484152993  0.6198950363777784  1.0000
  C   C21       1.0  0.6809401203755472  0.9276418552580746  0.3602326099453026  1.0000
  O   O1        1.0  0.6372169805192998  0.01724078139409424  0.3712428924549971  1.0000
  C   C22       1.0  0.6699897886145922  0.8348098186042883  0.25904267799115943  1.0000
  C   C23       1.0  0.72596068580665  0.7805426749074164  0.19569809496592971  1.0000
  C   C24       1.0  0.7149185197852251  0.694362312679175  0.09947283486111735  1.0000
  C   C25       1.0  0.6480871189882019  0.6615701716822675  0.06385832290717652  1.0000
  C   C26       1.0  0.5918848638775711  0.7168762511304578  0.12588816238043932  1.0000
  C   C27       1.0  0.6028641102645014  0.8031165409308222  0.22215904440082723  1.0000
  O   O2        1.0  0.6397704786904647  0.5745041704001344  0.9668512408092003  1.0000
  C   C28       1.0  0.5749427453523016  0.5327508420645789  0.9211565544264766  1.0000
  H   H10       1.0  0.9337574438140889  0.22194064566045846  0.7391286529385828  1.0000
  H   H11       1.0  0.7475703869357138  0.12644475672303335  0.4596931406213667  1.0000
  H   H12       1.0  0.7470206309171435  0.7092265458985249  0.46247465706576296  1.0000
  H   H13       1.0  0.8987604658622206  0.8987086226608064  0.685424365711407  1.0000
  H   H14       1.0  0.8483920971966069  0.458571431530819  0.6111552233320172  1.0000
  H   H15       1.0  0.7782631707148387  0.805753390020151  0.2194957219848679  1.0000
  H   H16       1.0  0.7585899244312551  0.6531977079436526  0.051846063492721806  1.0000
  H   H17       1.0  0.5395539029721745  0.6939433813652345  0.10044550782508033  1.0000
  H   H18       1.0  0.5588083683044625  0.8442420021683338  0.2687301303601404  1.0000
  H   H19       1.0  0.5835438318894585  0.4642297057800248  0.8447889335244128  1.0000
  H   H20       1.0  0.5447185336921616  0.6176127895473702  0.8782604954472002  1.0000
  H   H21       1.0  0.5460483742662148  0.48164431745554465  0.00232690049606199  1.0000
  C   C29       1.0  0.8267276100721113  0.4079498120456595  0.19674065949075326  1.0000
  C   C30       1.0  0.8985945110902097  0.4214163758555265  0.19528557949457248  1.0000
  C   C31       1.0  0.9347555914626704  0.42968140351056205  0.0772629304928194  1.0000
  C   C32       1.0  0.8984300463031692  0.42135524539337776  0.9600446288906821  1.0000
  C   C33       1.0  0.8266000945964628  0.4077769407076903  0.9595040466020865  1.0000
  C   C34       1.0  0.7911451050969927  0.40149415241536035  0.07836335292448227  1.0000
  C   C35       1.0  0.010722532085725156  0.4425412758234317  0.07569235253970463  1.0000
  O   O3        1.0  0.04446501877330644  0.3884354765737772  0.9902695546109457  1.0000
  C   C36       1.0  0.04840741385902536  0.516796141552561  0.17094719007007453  1.0000
  C   C37       1.0  0.11552349401372486  0.4789585506027676  0.20996228877326617  1.0000
  C   C38       1.0  0.152287289338924  0.5486113364903693  0.2986404674209535  1.0000
  O   O4        1.0  0.21884349216362042  0.5056086036489531  0.3347768908466535  1.0000
  C   C39       1.0  0.2619628112230885  0.5667618762247699  0.4237241466287376  1.0000
  C   C40       1.0  0.12155495895537238  0.6585128120672608  0.3481745421810645  1.0000
  C   C41       1.0  0.055242436875662326  0.697670250436454  0.3086592482267012  1.0000
  C   C42       1.0  0.01887568477524426  0.6277778308063249  0.22022713382698966  1.0000
  H   H22       1.0  0.6912231140262937  0.3805472222034787  0.4069637990561421  1.0000
  H   H23       1.0  0.9266162560473659  0.4240412778209388  0.28623387800591016  1.0000
  H   H24       1.0  0.9262936688803013  0.4267464413888986  0.86900629079136  1.0000
  H   H25       1.0  0.7357409749137376  0.3911115641565639  0.07868139776666072  1.0000
  H   H26       1.0  0.799070880459437  0.40147616470771785  0.6319241620473068  1.0000
  H   H27       1.0  0.1393653332565148  0.39424705417204264  0.17237908353300524  1.0000
  H   H28       1.0  0.3114750630702199  0.5125780257086126  0.4343079332959887  1.0000
  H   H29       1.0  0.23711872172066406  0.5653750767895795  0.5206424105573613  1.0000
  H   H30       1.0  0.2725617834546188  0.6685932613127885  0.38620745538391743  1.0000
  H   H31       1.0  0.1485275001098172  0.7145021698020662  0.41671434516239625  1.0000
  H   H32       1.0  0.03204684930451962  0.782860034050044  0.34627965886478873  1.0000
  H   H33       1.0  0.9680067869398569  0.6613534002140466  0.1893585862835656  1.0000
  Zn  Zn1       1.0  0.7512767808480797  0.40912169205339066  0.5771645797539473  1.0000
  Zn  Zn2       1.0  0.9020443455210255  0.40660455825734076  0.5790794903216425  1.0000
  C   C43       1.0  0.8266215711285233  0.4026358652322344  0.8153249330314538  1.0000
  C   C44       1.0  0.8267012019442248  0.41309199621660375  0.3409192855894829  1.0000
  C   C45       1.0  0.8267115300260925  0.6450617232659215  0.5729707030383566  1.0000
  C   C46       1.0  0.8266111912574404  0.1706645786907801  0.583273584014087  1.0000
  O   O5        1.0  0.8839078429942022  0.41385685518088144  0.390033647610486  1.0000
  O   O6        1.0  0.8838440229958604  0.39995958030090106  0.767663569866766  1.0000
  O   O7        1.0  0.8839158944252156  0.5957215391275701  0.5719608047895968  1.0000
  O   O8        1.0  0.8838359201363402  0.21809490652562546  0.585736314657219  1.0000
  O   O9        1.0  0.769485154783196  0.5976313446454964  0.5705077547580744  1.0000
  O   O10       1.0  0.7694132836934872  0.4018709461713541  0.7662104507434413  1.0000
  O   O11       1.0  0.7694771039889986  0.41576817614751405  0.38857896703012007  1.0000
  O   O12       1.0  0.7694051811100744  0.220006218181235  0.5842817314469939  1.0000
