data_image0
_chemical_formula_structural       NC9NC5H8C7OC3NC3H11C7OC3FC3H9Zn2C4O8
_chemical_formula_sum              "N3 C44 H28 O10 F1 Zn2"
_cell_length_a       17.807436237873137
_cell_length_b       10.298746005989749
_cell_length_c       10.29938172300155
_cell_angle_alpha    85.57926667056456
_cell_angle_beta     89.37614531969923
_cell_angle_gamma    88.3993582553778

_space_group_name_H-M_alt    "P 1"
_space_group_IT_number       1

loop_
  _space_group_symop_operation_xyz
  'x, y, z'

loop_
  _atom_site_type_symbol
  _atom_site_label
  _atom_site_symmetry_multiplicity
  _atom_site_fract_x
  _atom_site_fract_y
  _atom_site_fract_z
  _atom_site_occupancy
  N   N1        1.0  0.7077817380363391  0.3874828277182112  0.5572104614023856  1.0000
  C   C1        1.0  0.64719273754346  0.3522873151649042  0.5461844674175291  1.0000
  C   C2        1.0  0.5718266802277351  0.30850797347663783  0.5324693280932609  1.0000
  C   C3        1.0  0.553746033792549  0.23705913347016794  0.4274622253676603  1.0000
  C   C4        1.0  0.4805694843486348  0.1944412389615784  0.4140630740582436  1.0000
  C   C5        1.0  0.4244248327771544  0.2228946156158429  0.5056385515955528  1.0000
  C   C6        1.0  0.3466570214442333  0.17771771763447664  0.49148080491718016  1.0000
  C   C7        1.0  0.2844840312304571  0.259487414969388  0.5174245415095124  1.0000
  C   C8        1.0  0.211165155577451  0.21666646959745228  0.5040390593815864  1.0000
  C   C9        1.0  0.1479422678748175  0.3011278336849612  0.5303468574217982  1.0000
  N   N2        1.0  0.0971240540269136  0.3690289273285263  0.5514976002145107  1.0000
  C   C10       1.0  0.1994357052722737  0.09181781931130129  0.4646844757168447  1.0000
  C   C11       1.0  0.2607513257590415  0.010034266321647056  0.4387323486069026  1.0000
  C   C12       1.0  0.3339507660687632  0.052460584729728144  0.4519152690206045  1.0000
  C   C13       1.0  0.4431968936421599  0.2948379204533682  0.6108649131702328  1.0000
  C   C14       1.0  0.5164263224475883  0.33726536365937676  0.6241084024237851  1.0000
  H   H1        1.0  0.596150778617977  0.2145529637694623  0.3557481044776567  1.0000
  H   H2        1.0  0.46766569156220583  0.14073251003739973  0.3311394115127866  1.0000
  H   H3        1.0  0.2929858440607643  0.35696786761877974  0.5463073169417216  1.0000
  H   H4        1.0  0.1429692471650217  0.05777619822744695  0.45408758925061155  1.0000
  H   H5        1.0  0.2515514450811389  0.9133736590949508  0.4086492093201708  1.0000
  H   H6        1.0  0.3805885952493636  0.986705166569455  0.43286299942366546  1.0000
  H   H7        1.0  0.4015087630553851  0.316805342678506  0.6838735015683193  1.0000
  H   H8        1.0  0.5298587527747151  0.39219449884720925  0.7059905092277614  1.0000
  C   C15       1.0  0.9024205869465777  0.996855337172697  0.5543373571509718  1.0000
  C   C16       1.0  0.9375845571141485  0.0036642177021841693  0.4313185234122612  1.0000
  C   C17       1.0  0.9545752848042409  0.890021012022534  0.36843684802148613  1.0000
  C   C18       1.0  0.9375851285320584  0.7684275778778344  0.43126937848732294  1.0000
  C   C19       1.0  0.9024923666767902  0.7596461386729167  0.5543818580184738  1.0000
  C   C20       1.0  0.884951961101909  0.8744235295798325  0.6149828428847133  1.0000
  C   C21       1.0  0.9923465683025642  0.8969895003329839  0.23906856621381056  1.0000
  O   O1        1.0  0.03822060892017287  0.806830907275652  0.21318348809889454  1.0000
  C   C22       1.0  0.9780782382972237  0.006178380363349056  0.13907336754819566  1.0000
  C   C23       1.0  0.906943599475849  0.06893904986674548  0.12800981552743806  1.0000
  C   C24       1.0  0.8937950462537938  0.1712093016176881  0.03229703592124289  1.0000
  N   N3        1.0  0.8214576514388642  0.23486939944280527  0.022154497833882125  1.0000
  C   C25       1.0  0.9518278214149031  0.21032390522593336  0.9463123306509758  1.0000
  C   C26       1.0  0.022277018251172898  0.14743049537391317  0.9555298900640632  1.0000
  C   C27       1.0  0.03536718625169977  0.045587408912682204  0.05093932194598705  1.0000
  H   H9        1.0  0.8370196722664186  0.19123592403061496  0.787629893644656  1.0000
  H   H10       1.0  0.952532020910376  0.09746097547874788  0.38487793795052183  1.0000
  H   H11       1.0  0.9511421520883541  0.6805814927179898  0.3833731299279588  1.0000
  H   H12       1.0  0.85785059185136  0.8684228602993702  0.7098099269725395  1.0000
  H   H13       1.0  0.8364672159341197  0.5357222138785012  0.787195033879488  1.0000
  H   H14       1.0  0.8614377127534008  0.037707828916401454  0.19263939518307427  1.0000
  H   H15       1.0  0.7777972519203996  0.20650049936975878  0.08574554885269237  1.0000
  H   H16       1.0  0.8110473983712472  0.3109603506313543  0.9510696901845712  1.0000
  H   H17       1.0  0.9423725137038161  0.2891049737638445  0.8719648060601157  1.0000
  H   H18       1.0  0.06686281282764428  0.17766913583297606  0.8885815284325442  1.0000
  H   H19       1.0  0.0904645933046011  0.9983356287836451  0.05665835485598736  1.0000
  C   C28       1.0  0.902519717095827  0.37814658144744695  0.17299101359380353  1.0000
  C   C29       1.0  0.9262816425175607  0.24655479138604552  0.18149580348369843  1.0000
  C   C30       1.0  0.9390827110779028  0.1806011149571134  0.0685646640693014  1.0000
  C   C31       1.0  0.9262098163765986  0.24685135474957898  0.9462308248825924  1.0000
  C   C32       1.0  0.9023932211298978  0.3783548398883674  0.9357282373091866  1.0000
  C   C33       1.0  0.8908753591567016  0.44333648688740035  0.0496931831395917  1.0000
  C   C34       1.0  0.9634132506195364  0.04126774006318312  0.07744470215586241  1.0000
  O   O2        1.0  0.9402674510561205  0.9691144759246213  0.993598687070762  1.0000
  C   C35       1.0  0.014006668032924718  0.9837919583576944  0.18134427016095533  1.0000
  C   C36       1.0  0.00794222287822044  0.8521073533440243  0.2266985184182697  1.0000
  C   C37       1.0  0.05597656482459157  0.7966190007869178  0.32354700171327844  1.0000
  F   F1        1.0  0.04931197437287893  0.6698569308693709  0.3673059991373613  1.0000
  C   C38       1.0  0.11085218793605822  0.8716481980342706  0.37521437381002865  1.0000
  C   C39       1.0  0.11799840263057804  0.0020759795967602024  0.32977912231740514  1.0000
  C   C40       1.0  0.0701130743157159  0.057969074540429544  0.23299945300807923  1.0000
  H   H20       1.0  0.8565744184740969  0.6259152881040562  0.364325226171035  1.0000
  H   H21       1.0  0.9340600721285733  0.19479128299957593  0.2761841903504363  1.0000
  H   H22       1.0  0.9355166517207346  0.19585646120364175  0.8590654393910508  1.0000
  H   H23       1.0  0.8725563326755893  0.5447836668626798  0.04233257366675458  1.0000
  H   H24       1.0  0.8926384645987745  0.42856261651731375  0.6042721781453491  1.0000
  H   H25       1.0  0.9656151002071334  0.7925920709418045  0.1879429623968516  1.0000
  H   H26       1.0  0.1480601895887388  0.8286727056844488  0.450082642793435  1.0000
  H   H27       1.0  0.16091485397656857  0.059815443433681725  0.36916485068757066  1.0000
  H   H28       1.0  0.0775088157363788  0.15858601037682862  0.19763624335453955  1.0000
  Zn  Zn1       1.0  0.8201375174098207  0.3821539671710019  0.5555693636520853  1.0000
  Zn  Zn2       1.0  0.9847682536895488  0.3743472037438369  0.553149373950139  1.0000
  C   C41       1.0  0.9024149886362497  0.37314147566529443  0.7915542746110293  1.0000
  C   C42       1.0  0.9024925803587377  0.3833612487895275  0.3171645641269629  1.0000
  C   C43       1.0  0.9024757985750776  0.6154611930255383  0.5491983470575121  1.0000
  C   C44       1.0  0.9024317140846051  0.14103997368077237  0.5595205616537631  1.0000
  O   O3        1.0  0.9649599789264592  0.38214304654188047  0.3646321509168653  1.0000
  O   O4        1.0  0.9648985095786796  0.36843354520250116  0.7422495977291932  1.0000
  O   O5        1.0  0.9649467719362319  0.5641098218283724  0.5465454839804349  1.0000
  O   O6        1.0  0.9649116604086087  0.18646678184432597  0.5603361681173564  1.0000
  O   O7        1.0  0.8399940545103713  0.5700343917359902  0.5483825703038605  1.0000
  O   O8        1.0  0.8399457923077343  0.3743596755241074  0.7440866148983285  1.0000
  O   O9        1.0  0.8400072619601169  0.3880691311750235  0.36646760668322353  1.0000
  O   O10       1.0  0.8399589434221753  0.19239285721462962  0.5621717212509747  1.0000
