data_image0
_chemical_formula_structural       NC10NC3NCH9C7OC3FC3H9C7OC6H10Zn2C4O8
_chemical_formula_sum              "N3 C44 H28 O10 F1 Zn2"
_cell_length_a       19.437513618241372
_cell_length_b       10.29937835083307
_cell_length_c       10.299382801718286
_cell_angle_alpha    85.56292937340861
_cell_angle_beta     90.32786270847616
_cell_angle_gamma    89.54280298698887

_space_group_name_H-M_alt    "P 1"
_space_group_IT_number       1

loop_
  _space_group_symop_operation_xyz
  'x, y, z'

loop_
  _atom_site_type_symbol
  _atom_site_label
  _atom_site_symmetry_multiplicity
  _atom_site_fract_x
  _atom_site_fract_y
  _atom_site_fract_z
  _atom_site_occupancy
  N   N1        1.0  0.6483692147812244  0.4102652313369892  0.5755414623250505  1.0000
  C   C1        1.0  0.5894395463263525  0.42727541015941783  0.5725644088150583  1.0000
  C   C2        1.0  0.5160036528297709  0.4485280742609832  0.5688690964313667  1.0000
  C   C3        1.0  0.47422351746528196  0.3473335252051879  0.5572159879561314  1.0000
  C   C4        1.0  0.3983364853759557  0.3573976834973631  0.5499940210685696  1.0000
  C   C5        1.0  0.3587685632725883  0.4382569654417827  0.6157316265423469  1.0000
  C   C6        1.0  0.2825858568652084  0.4296473840545252  0.6072880455173713  1.0000
  C   C7        1.0  0.2494261761877659  0.30829959448771627  0.6119388422569942  1.0000
  C   C8        1.0  0.177691256973375  0.3019267506106651  0.604771169515522  1.0000
  C   C9        1.0  0.13814525240064693  0.4164290414535834  0.593314960847583  1.0000
  C   C10       1.0  0.0642958180494183  0.40971798663143777  0.5859792173022205  1.0000
  N   N2        1.0  0.0049259709109653  0.40432288869405153  0.5800817378615497  1.0000
  C   C11       1.0  0.1705881767192411  0.5374663405338187  0.5894094595988051  1.0000
  C   C12       1.0  0.2423075411055709  0.5440931908059403  0.596639138280499  1.0000
  C   C13       1.0  0.3874581271970368  0.5305553039289275  0.7056459775419235  1.0000
  N   N3        1.0  0.4444582387999846  0.5937673479655758  0.6852379099188113  1.0000
  C   C14       1.0  0.4883119625978045  0.5844928935885023  0.5721308684681512  1.0000
  H   H1        1.0  0.4965905325501146  0.2522730796879147  0.5451005845612862  1.0000
  H   H2        1.0  0.3736163432463275  0.2878767183913522  0.49168010888201774  1.0000
  H   H3        1.0  0.278857496644502  0.21838636301860648  0.6229651850648856  1.0000
  H   H4        1.0  0.153078767457642  0.20769816329786406  0.6086640973035917  1.0000
  H   H5        1.0  0.1404711437315391  0.6267249083599411  0.5806953054927801  1.0000
  H   H6        1.0  0.2664385915711216  0.6387345881060751  0.5927307254853063  1.0000
  H   H7        1.0  0.3574478798607679  0.5509510926814503  0.7900114176405453  1.0000
  H   H8        1.0  0.5310775603113728  0.6548080569492016  0.577889976746194  1.0000
  H   H9        1.0  0.45866219832639127  0.6125921633326379  0.48148354315695774  1.0000
  C   C15       1.0  0.8265783628556826  0.025910229303808263  0.5778747526445516  1.0000
  C   C16       1.0  0.7547984881491737  0.027111312650650365  0.5609359046570246  1.0000
  C   C17       1.0  0.7185070836510284  0.9104310177150101  0.5538686562915105  1.0000
  C   C18       1.0  0.7549667154171348  0.7918645072752911  0.5609449220877922  1.0000
  C   C19       1.0  0.8267233994668393  0.7886677644129794  0.5777598055718796  1.0000
  C   C20       1.0  0.862092744101171  0.9062179805996348  0.5864690885996569  1.0000
  C   C21       1.0  0.6427977518120027  0.911659988626234  0.5346102857452601  1.0000
  O   O1        1.0  0.616235487517738  0.8274003889879872  0.46761090389195026  1.0000
  C   C22       1.0  0.5972217232273987  0.008377333310204405  0.5913689704824341  1.0000
  C   C23       1.0  0.5359470985907114  0.049385320644573794  0.5268077285210935  1.0000
  C   C24       1.0  0.4922333920115158  0.1393803569149945  0.5803121016228963  1.0000
  F   F1        1.0  0.4335417388763423  0.17903755940729482  0.5168451131071932  1.0000
  C   C25       1.0  0.5089574329931544  0.18841951310437044  0.6991303910753495  1.0000
  C   C26       1.0  0.5692441303142645  0.14717585882275652  0.7648936185497697  1.0000
  C   C27       1.0  0.6131000237237448  0.057250132838787104  0.7117957690478349  1.0000
  H   H10       1.0  0.9621559081114391  0.23111598308811687  0.6078458002613703  1.0000
  H   H11       1.0  0.727117693633463  0.11908250800280618  0.5517702701942009  1.0000
  H   H12       1.0  0.7271154668235045  0.7018590128963296  0.5545379482206629  1.0000
  H   H13       1.0  0.9174296933795912  0.9044880311318905  0.599526939510002  1.0000
  H   H14       1.0  0.8543539891787821  0.4600666153396649  0.5831240751730871  1.0000
  H   H15       1.0  0.5222560177753494  0.012595239952522874  0.43447481955074463  1.0000
  H   H16       1.0  0.4750993524968909  0.2579792646755863  0.7405783182197898  1.0000
  H   H17       1.0  0.581871537386126  0.1844708679379934  0.8574265536795995  1.0000
  H   H18       1.0  0.6589414634915398  0.024933690988809154  0.7655317818544753  1.0000
  C   C28       1.0  0.8267195049911628  0.4072146130717005  0.19644837319178454  1.0000
  C   C29       1.0  0.8989988317906108  0.40687350195341865  0.1960649761315294  1.0000
  C   C30       1.0  0.9354541915586226  0.4052133215320304  0.07881371024678496  1.0000
  C   C31       1.0  0.8988311831408368  0.4069043338856151  0.9608172683472893  1.0000
  C   C32       1.0  0.8265822435800765  0.40736336221932157  0.9591861370639645  1.0000
  C   C33       1.0  0.790945433731797  0.40717110438327553  0.0775729013104336  1.0000
  C   C34       1.0  0.011772028662771161  0.40623715769404223  0.07815668266901432  1.0000
  O   O2        1.0  0.042097327359959635  0.4664431183535258  0.9840066884162764  1.0000
  C   C35       1.0  0.053687500030037416  0.3389526667214713  0.18420678469010476  1.0000
  C   C36       1.0  0.11836388502423123  0.38833662619135456  0.21612405231515774  1.0000
  C   C37       1.0  0.15860208648034457  0.3247295535168908  0.31490048276885485  1.0000
  C   C38       1.0  0.13500627858229675  0.2108145416457059  0.38198145861545885  1.0000
  C   C39       1.0  0.07124193199191442  0.15996835982679491  0.350053007310434  1.0000
  C   C40       1.0  0.030807666965074754  0.22319997222480636  0.2513761989177732  1.0000
  H   H19       1.0  0.6903179781318324  0.4098701110967511  0.40433614117698724  1.0000
  H   H20       1.0  0.9270278117225088  0.40935696456062787  0.2870202841219518  1.0000
  H   H21       1.0  0.9268666972677674  0.40660844904813964  0.8702227580909412  1.0000
  H   H22       1.0  0.7352235188191173  0.4074348740930944  0.07706423613669933  1.0000
  H   H23       1.0  0.7988275977509309  0.40864472021063225  0.6310175511091534  1.0000
  H   H24       1.0  0.13748168189550292  0.4766946866948749  0.16541843967111913  1.0000
  H   H25       1.0  0.20813372007614217  0.3637894375411477  0.33939779398153935  1.0000
  H   H26       1.0  0.16625097321709448  0.1616645580393008  0.4583301621297895  1.0000
  H   H27       1.0  0.053243924344178906  0.07113570945491587  0.40140171092140364  1.0000
  H   H28       1.0  0.9821015334773185  0.18084402684252043  0.22670368079080627  1.0000
  Zn  Zn1       1.0  0.7512637960444699  0.40854691172462454  0.5768591972495152  1.0000
  Zn  Zn2       1.0  0.9020313919086722  0.40603054042330067  0.5787746744172846  1.0000
  C   C41       1.0  0.8266056909621353  0.40216138454988704  0.8150131616997092  1.0000
  C   C42       1.0  0.8266911436571514  0.412417678827506  0.34062085810352793  1.0000
  C   C43       1.0  0.8266933849325208  0.6444893821026549  0.5726063117701237  1.0000
  C   C44       1.0  0.8266033979311393  0.1700881217836443  0.5830277768532797  1.0000
  O   O3        1.0  0.883897141155441  0.41320325946932246  0.38973337552829723  1.0000
  O   O4        1.0  0.8838288100810218  0.39946495648172897  0.7673540734257851  1.0000
  O   O5        1.0  0.8838988525356493  0.5951478922979132  0.571608817036164  1.0000
  O   O6        1.0  0.8838270472733326  0.21752033378339974  0.5854785338882311  1.0000
  O   O7        1.0  0.7694680892302298  0.5970571192246528  0.5701553371180788  1.0000
  O   O8        1.0  0.7693980470816495  0.4013757437596883  0.7659005240270436  1.0000
  O   O9        1.0  0.7694663784741531  0.41511400118430597  0.38827826473631943  1.0000
  O   O10       1.0  0.7693962845699461  0.2194310662282477  0.5840235204654518  1.0000
