data_image0
_chemical_formula_structural       NC10NC3NH7C7OC6OCH12C7OC3FC3H9Zn2C4O8
_chemical_formula_sum              "N3 C44 H28 O11 F1 Zn2"
_cell_length_a       19.210446455230148
_cell_length_b       10.299359160628079
_cell_length_c       10.29938172300155
_cell_angle_alpha    85.58141560917656
_cell_angle_beta     89.97418890370308
_cell_angle_gamma    89.96984927250973

_space_group_name_H-M_alt    "P 1"
_space_group_IT_number       1

loop_
  _space_group_symop_operation_xyz
  'x, y, z'

loop_
  _atom_site_type_symbol
  _atom_site_label
  _atom_site_symmetry_multiplicity
  _atom_site_fract_x
  _atom_site_fract_y
  _atom_site_fract_z
  _atom_site_occupancy
  N   N1        1.0  0.6559899692817319  0.4198520748382035  0.5675352019608517  1.0000
  C   C1        1.0  0.595761679341498  0.4220596637592333  0.5677666678350248  1.0000
  C   C2        1.0  0.5209575614149979  0.4247966697164576  0.5680534254721019  1.0000
  C   C3        1.0  0.48535987692948457  0.5410317497049804  0.583181911726701  1.0000
  C   C4        1.0  0.4126944240320473  0.5411832754664043  0.5831293367031882  1.0000
  C   C5        1.0  0.3757908878974733  0.425505663081867  0.5681400105464771  1.0000
  C   C6        1.0  0.298468603212235  0.42414914010340854  0.5679892234336608  1.0000
  C   C7        1.0  0.2607362302421697  0.5277053240292056  0.504642944815197  1.0000
  C   C8        1.0  0.1879577080012401  0.5263030555096084  0.5045336684946145  1.0000
  C   C9        1.0  0.1519101877865841  0.4216021026767849  0.5677197116573875  1.0000
  C   C10       1.0  0.0769805175625663  0.42029997748046966  0.5675826955938876  1.0000
  N   N2        1.0  0.0167425444981387  0.41925302462188063  0.5674725695480449  1.0000
  C   C11       1.0  0.1889189228411849  0.31817160628026686  0.6310410002054156  1.0000
  C   C12       1.0  0.2616992518765746  0.31929961661733275  0.631200482280089  1.0000
  C   C13       1.0  0.4139986314533037  0.31109092286840223  0.5532999499295752  1.0000
  N   N3        1.0  0.4847688724031701  0.31353595703808157  0.5534658651317581  1.0000
  H   H1        1.0  0.5134707829706976  0.6304689597950697  0.5952431797141955  1.0000
  H   H2        1.0  0.3854354042217233  0.6312026882966926  0.5965854006870477  1.0000
  H   H3        1.0  0.2874805138971619  0.6089471594049976  0.45366449536079734  1.0000
  H   H4        1.0  0.1598280202161085  0.6067174967298865  0.4548854816771506  1.0000
  H   H5        1.0  0.1615351680943792  0.2367937367248516  0.6805895638136674  1.0000
  H   H6        1.0  0.2891838958317575  0.23900470522716644  0.682286400657319  1.0000
  H   H7        1.0  0.3877233525778788  0.22020857126666948  0.5397975144591394  1.0000
  C   C14       1.0  0.8362876733720691  0.038174397353634815  0.5674724128763864  1.0000
  C   C15       1.0  0.778725256982479  0.04352864526019906  0.48308619887609794  1.0000
  C   C16       1.0  0.7501915219602765  0.9292434631499623  0.4394308869422825  1.0000
  C   C17       1.0  0.7788910270010471  0.8082669242148568  0.483341274100356  1.0000
  C   C18       1.0  0.8364514936948538  0.8009206922122133  0.5675466301950003  1.0000
  C   C19       1.0  0.8649144933099829  0.9164609487640918  0.6089164507688907  1.0000
  C   C20       1.0  0.6889276461938397  0.9370346291665749  0.3515088114009568  1.0000
  O   O1        1.0  0.6446901629951813  0.0259838168616231  0.36308292008997234  1.0000
  C   C21       1.0  0.6778468838546496  0.8439884568832982  0.2504641359545994  1.0000
  C   C22       1.0  0.7344754375258631  0.7905286986060714  0.18639970524298644  1.0000
  C   C23       1.0  0.7233018373867558  0.7041352800657499  0.0903206934502625  1.0000
  C   C24       1.0  0.6556834412455455  0.6703240674118918  0.05557003956926665  1.0000
  C   C25       1.0  0.5988207867148272  0.7248186443319731  0.118322763642708  1.0000
  C   C26       1.0  0.6099307275180053  0.8112710701680169  0.21444820756354477  1.0000
  O   O2        1.0  0.6472674274542923  0.583085464689103  0.9586740628320203  1.0000
  C   C27       1.0  0.581676120442475  0.5403381038429733  0.9138177693754654  1.0000
  H   H8        1.0  0.9447258970657945  0.23530924008233245  0.7271274467264741  1.0000
  H   H9        1.0  0.7563435330746252  0.13688516543135032  0.4501055933985445  1.0000
  H   H10       1.0  0.7557873509829938  0.71966009229352  0.4528940962254273  1.0000
  H   H11       1.0  0.9093162560209799  0.9115262320413553  0.673876893100378  1.0000
  H   H12       1.0  0.8583540211301066  0.47059754714182733  0.6002606557007881  1.0000
  H   H13       1.0  0.7873937644113048  0.8165349275822897  0.20952143261771394  1.0000
  H   H14       1.0  0.7674864077489846  0.6636015286633552  0.042132189466635994  1.0000
  H   H15       1.0  0.545873623184206  0.7010890203938432  0.0935564402797282  1.0000
  H   H16       1.0  0.5653572807320381  0.8517593967188587  0.2615860271901522  1.0000
  H   H17       1.0  0.5903772343703594  0.4719080833327019  0.8373421238059193  1.0000
  H   H18       1.0  0.551095577375307  0.624725930945831  0.8713134297028344  1.0000
  H   H19       1.0  0.552442994264579  0.48883874733051874  0.9953578415522406  1.0000
  C   C28       1.0  0.8364281581535827  0.4194463268686721  0.1861418139891189  1.0000
  C   C29       1.0  0.8584285843093643  0.28895239955531493  0.19498654512831837  1.0000
  C   C30       1.0  0.8702813245135499  0.223589856791786  0.08223872475513105  1.0000
  C   C31       1.0  0.8583620698155513  0.2892456506975347  0.9597205351757814  1.0000
  C   C32       1.0  0.8363109766931955  0.41964877167213  0.9488772095668074  1.0000
  C   C33       1.0  0.8256470998934697  0.48409818861597165  0.06267742423487932  1.0000
  C   C34       1.0  0.8928076269748507  0.08538090349567273  0.09146666644565049  1.0000
  O   O3        1.0  0.8713521003131546  0.012170779681493826  0.007282008070983892  1.0000
  C   C35       1.0  0.939678901295296  0.030228732676865544  0.19609838645110655  1.0000
  C   C36       1.0  0.9340429406667978  0.8982742767475433  0.24135967512104162  1.0000
  C   C37       1.0  0.9785432926476548  0.8449920616209203  0.3389032427847456  1.0000
  F   F1        1.0  0.972351880140816  0.7179323124535267  0.3825607548563452  1.0000
  C   C38       1.0  0.029399253373442846  0.9225329428756391  0.3913698899805429  1.0000
  C   C39       1.0  0.03603739451111654  0.05328025967900607  0.3460432516289853  1.0000
  C   C40       1.0  0.9916751664884075  0.10697402504038211  0.24857067590766269  1.0000
  H   H20       1.0  0.7938879870160094  0.6650926588284587  0.3768184766774725  1.0000
  H   H21       1.0  0.8656292818202359  0.23754881846943987  0.2897858853001518  1.0000
  H   H22       1.0  0.8669790481929491  0.23868072299994902  0.8726883149756541  1.0000
  H   H23       1.0  0.8086860839416378  0.5846989820686808  0.055054740261254675  1.0000
  H   H24       1.0  0.8272788652616044  0.46940609181367887  0.6172814544899876  1.0000
  H   H25       1.0  0.894816087886158  0.8368217641416094  0.2019875539232736  1.0000
  H   H26       1.0  0.06386978305391189  0.8812663517485226  0.46677658024688995  1.0000
  H   H27       1.0  0.0758100781163793  0.11298408913079805  0.38605403201270594  1.0000
  H   H28       1.0  0.998540710561528  0.2079238039328053  0.21331858251276348  1.0000
  Zn  Zn1       1.0  0.7600953670692285  0.41967573973924166  0.5675246263056406  1.0000
  Zn  Zn2       1.0  0.9126371268641534  0.4194187797401676  0.5674937799170743  1.0000
  C   C41       1.0  0.8363304809660947  0.41443673186322494  0.8047033671968913  1.0000
  C   C42       1.0  0.8364036790509108  0.42465942350333674  0.3303151663143806  1.0000
  C   C43       1.0  0.8364177335384161  0.6567440738226276  0.5623574139778496  1.0000
  C   C44       1.0  0.8363163740810051  0.18235052130958973  0.5726611886306139  1.0000
  O   O4        1.0  0.8942842652877059  0.426305805496888  0.37868935379987145  1.0000
  O   O5        1.0  0.8942255606845942  0.4125943433305288  0.7563053940761053  1.0000
  O   O6        1.0  0.8942952376640311  0.6082605880303547  0.5606093225030322  1.0000
  O   O7        1.0  0.8942145362730516  0.23063957014934355  0.5743853280100188  1.0000
  O   O8        1.0  0.7785179056053155  0.6084549494191658  0.5606330782163913  1.0000
  O   O9        1.0  0.7784482289684481  0.4127902650427846  0.756329080695969  1.0000
  O   O10       1.0  0.7785069338479699  0.4265016815375078  0.3787114790196642  1.0000
  O   O11       1.0  0.7784372048135181  0.230835436926782  0.574407550596433  1.0000
