data_image0
_chemical_formula_structural       NC12NC2H8C7OC6H10C7OC3FC3H9Zn2C4O8
_chemical_formula_sum              "N2 C44 H27 O10 F1 Zn2"
_cell_length_a       19.240039667572717
_cell_length_b       10.299379429549807
_cell_length_c       10.29938172300155
_cell_angle_alpha    85.55361563187328
_cell_angle_beta     89.98344622294188
_cell_angle_gamma    89.99618039744932

_space_group_name_H-M_alt    "P 1"
_space_group_IT_number       1

loop_
  _space_group_symop_operation_xyz
  'x, y, z'

loop_
  _atom_site_type_symbol
  _atom_site_label
  _atom_site_symmetry_multiplicity
  _atom_site_fract_x
  _atom_site_fract_y
  _atom_site_fract_z
  _atom_site_occupancy
  N   N1        1.0  0.6546480451727086  0.42099177727437076  0.56695764705266  1.0000
  C   C1        1.0  0.5944996763651079  0.4209918612396437  0.5669575650865843  1.0000
  C   C2        1.0  0.5196816392410019  0.4209919784971736  0.5669574277413043  1.0000
  C   C3        1.0  0.48319422842585774  0.35654929174458805  0.6703916026559642  1.0000
  C   C4        1.0  0.4105234708915985  0.3564384260146165  0.6704781833647957  1.0000
  C   C5        1.0  0.3733494043355861  0.42099207100963154  0.5669572000280951  1.0000
  C   C6        1.0  0.4105510161300365  0.4855459030518292  0.4634364111658775  1.0000
  C   C7        1.0  0.4832216951489449  0.48543480183970944  0.4635231144571579  1.0000
  C   C8        1.0  0.2961443139135191  0.42099199231940676  0.5669571046403994  1.0000
  C   C9        1.0  0.2589540648937227  0.3077351743586798  0.6088670990960683  1.0000
  C   C10       1.0  0.18628338682510648  0.3078420576094407  0.6087757368063407  1.0000
  C   C11       1.0  0.1498120269855044  0.4209918631544103  0.5669571655954104  1.0000
  C   C12       1.0  0.07499398979614609  0.4209917494682709  0.5669574142948091  1.0000
  N   N2        1.0  0.014845672913266598  0.42099170869549485  0.566957622727531  1.0000
  C   C13       1.0  0.1862881780079934  0.5341417445179983  0.5251385414675398  1.0000
  C   C14       1.0  0.2589588845601211  0.5342488078589036  0.5250470165211891  1.0000
  H   H1        1.0  0.5108983851554196  0.30665653479581567  0.7511499210538481  1.0000
  H   H2        1.0  0.3834192539276988  0.30734408603055297  0.7523517263248174  1.0000
  H   H3        1.0  0.3834687023127083  0.5346402700769557  0.38156281734821484  1.0000
  H   H4        1.0  0.5109473098433822  0.5353274585903778  0.3827650718884872  1.0000
  H   H5        1.0  0.2860456960471849  0.21858244269734195  0.6400656149177353  1.0000
  H   H6        1.0  0.1585667090164151  0.219588822833096  0.6410069022855958  1.0000
  H   H7        1.0  0.1585750323675189  0.6223949547597407  0.4929073905471997  1.0000
  H   H8        1.0  0.2860537322279721  0.623401618690141  0.49384845590061355  1.0000
  C   C15       1.0  0.8347577567251543  0.039599890293436024  0.5671116828253608  1.0000
  C   C16       1.0  0.8768719690719269  0.02974120390954127  0.6788562655214532  1.0000
  C   C17       1.0  0.8974615463335083  0.9075297364167154  0.7360681654142078  1.0000
  C   C18       1.0  0.8767874134597481  0.7945190574444727  0.6785799856919883  1.0000
  C   C19       1.0  0.8347426380116094  0.8023736383390726  0.5668147780247774  1.0000
  C   C20       1.0  0.8138207051087557  0.9253883032832256  0.5119260505621952  1.0000
  C   C21       1.0  0.9425347492454096  0.8970363133458916  0.8532645602506748  1.0000
  O   O1        1.0  0.9866258800153358  0.8062531837700558  0.8656206360215344  1.0000
  C   C22       1.0  0.9375855143937211  0.989429648333611  0.9564483643376629  1.0000
  C   C23       1.0  0.9970245785015109  0.018913566926608727  0.02801034005864156  1.0000
  C   C24       1.0  0.9927046287233252  0.1046995405868163  0.12650169584197046  1.0000
  C   C25       1.0  0.9290337417068584  0.16100086762686194  0.15525966713368866  1.0000
  C   C26       1.0  0.8694877775923737  0.13120868206886116  0.08594176945561338  1.0000
  C   C27       1.0  0.8735286361025839  0.04550233781265889  0.9873627476029869  1.0000
  H   H9        1.0  0.7561629184356463  0.26561385960225947  0.35508226362248774  1.0000
  H   H10       1.0  0.8943485227253081  0.11734038109108402  0.7206928699258235  1.0000
  H   H11       1.0  0.893051012001382  0.7002292813813982  0.7220167751947768  1.0000
  H   H12       1.0  0.7813541484400793  0.9321845145202816  0.42577879368003213  1.0000
  H   H13       1.0  0.8190747587349407  0.4779833296466047  0.5232476029259097  1.0000
  H   H14       1.0  0.04688783638330429  0.9764627749804009  0.00696319853267191  1.0000
  H   H15       1.0  0.03876812110362615  0.12748419411504353  0.1805972381216081  1.0000
  H   H16       1.0  0.925784615043366  0.22729173425848592  0.23159994602504919  1.0000
  H   H17       1.0  0.8200714400538313  0.17409875448143564  0.10898871752396289  1.0000
  H   H18       1.0  0.8265048122805281  0.02203363910640821  0.9364269212214027  1.0000
  C   C28       1.0  0.8348087072958251  0.4208856136678356  0.18559560705702927  1.0000
  C   C29       1.0  0.8568058535963271  0.2904235745242183  0.19450762583464076  1.0000
  C   C30       1.0  0.8686556692524665  0.2250783872671671  0.08179365269258487  1.0000
  C   C31       1.0  0.8567393727435564  0.29071672565604456  0.9592414617229732  1.0000
  C   C32       1.0  0.8346916587051657  0.4210878711040018  0.9483308839087448  1.0000
  C   C33       1.0  0.8240290911828321  0.48552187404814995  0.06209790085446887  1.0000
  C   C34       1.0  0.8911796900946337  0.08690192090524129  0.09109272641782784  1.0000
  O   O2        1.0  0.8697743253121253  0.013653568581374564  0.006939983089400137  1.0000
  C   C35       1.0  0.9379917685109229  0.03182561336624379  0.19575937152292444  1.0000
  C   C36       1.0  0.9323953914594924  0.8998571063224555  0.24108388732314534  1.0000
  C   C37       1.0  0.9768397573698999  0.8466468843145939  0.33866106098019877  1.0000
  F   F1        1.0  0.970687636406484  0.719572335851576  0.3823793228564776  1.0000
  C   C38       1.0  0.02759930623530349  0.9242749644644127  0.3910987617210224  1.0000
  C   C39       1.0  0.034196604631706595  0.05503795346445828  0.3457096565663096  1.0000
  C   C40       1.0  0.9898900537510685  0.10865996968499991  0.2482032984646314  1.0000
  H   H19       1.0  0.7922764424253393  0.6664700489489688  0.37614541078559927  1.0000
  H   H20       1.0  0.8640075141078882  0.2390301211878465  0.28933321862957584  1.0000
  H   H21       1.0  0.8653549385692162  0.24016430712279835  0.8722353306184427  1.0000
  H   H22       1.0  0.80707060432821  0.5860980835449103  0.05442334321548259  1.0000
  H   H23       1.0  0.8256617877410146  0.4708319640721037  0.6167093609956225  1.0000
  H   H24       1.0  0.8932432891032681  0.8383372759531278  0.20173489269927836  1.0000
  H   H25       1.0  0.06202646688684266  0.8830641403387282  0.46653148045791193  1.0000
  H   H26       1.0  0.07389410765092141  0.11480994477984519  0.3856982553984616  1.0000
  H   H27       1.0  0.9967213856740182  0.2096247385517198  0.21290327499169837  1.0000
  Zn  Zn1       1.0  0.7585933079329459  0.4209882920592758  0.5669651297831546  1.0000
  Zn  Zn2       1.0  0.9109004275079964  0.4209846026040296  0.566960742984663  1.0000
  C   C41       1.0  0.8347123539590374  0.41587567830465044  0.804159580732078  1.0000
  C   C42       1.0  0.8347830446188673  0.42609885507034884  0.32976641881601476  1.0000
  C   C43       1.0  0.8347427085412329  0.6581917832197304  0.5616957522116861  1.0000
  C   C44       1.0  0.8347526380852118  0.18378118977843116  0.5722303171836565  1.0000
  O   O3        1.0  0.8925741902258958  0.4278414002972273  0.37814979769721546  1.0000
  O   O4        1.0  0.8925187880394014  0.41412935298600706  0.7557724989089147  1.0000
  O   O5        1.0  0.8925425203728394  0.6098026725873589  0.5599812414036935  1.0000
  O   O6        1.0  0.8925504059351107  0.23216808996208993  0.5739409578259782  1.0000
  O   O7        1.0  0.7769432775308875  0.6098048047038869  0.5599849149365048  1.0000
  O   O8        1.0  0.7769195451739656  0.41413304548204377  0.7557761025891416  1.0000
  O   O9        1.0  0.7769749476471435  0.42784504712046245  0.37815183999964064  1.0000
  O   O10       1.0  0.7769511633387617  0.2321717275217814  0.5739430974995274  1.0000
