data_image0
_chemical_formula_structural       NC11NC3H8C6NCOC6H11C7OC3OC4H12Zn2C4O8
_chemical_formula_sum              "N3 C45 H31 O11 Zn2"
_cell_length_a       17.807433833752565
_cell_length_b       10.29965916528486
_cell_length_c       10.299374482448636
_cell_angle_alpha    85.56574019764442
_cell_angle_beta     88.50658755346606
_cell_angle_gamma    90.70223866869796

_space_group_name_H-M_alt    "P 1"
_space_group_IT_number       1

loop_
  _space_group_symop_operation_xyz
  'x, y, z'

loop_
  _atom_site_type_symbol
  _atom_site_label
  _atom_site_symmetry_multiplicity
  _atom_site_fract_x
  _atom_site_fract_y
  _atom_site_fract_z
  _atom_site_occupancy
  N   N1        1.0  0.7079277698612396  0.43879381061964384  0.5350646131693539  1.0000
  C   C1        1.0  0.6570902176289563  0.4040520595681918  0.6016182292253747  1.0000
  C   C2        1.0  0.5938431790620976  0.3608361856810518  0.6844024339189911  1.0000
  C   C3        1.0  0.6055370534267733  0.29725826058519855  0.8071049047135452  1.0000
  C   C4        1.0  0.5441981129710389  0.25572266749021444  0.8876056378344472  1.0000
  C   C5        1.0  0.471010780147011  0.2774515858610902  0.8460446185378585  1.0000
  C   C6        1.0  0.45834022261651064  0.34118416799061024  0.7228819834196667  1.0000
  C   C7        1.0  0.3805854050121896  0.3642438357769906  0.6785406394345099  1.0000
  C   C8        1.0  0.3618223776734113  0.34740254009374527  0.5489499831070068  1.0000
  C   C9        1.0  0.288605103595002  0.3690927416657026  0.5073448781226739  1.0000
  C   C10       1.0  0.2332079869301748  0.40794295364765776  0.5945102276845504  1.0000
  C   C11       1.0  0.1578543523131508  0.43029192833732655  0.5515439904201063  1.0000
  N   N2        1.0  0.097275402668802  0.44825884365756274  0.5170022627228095  1.0000
  C   C12       1.0  0.2512795835432556  0.4249949474204071  0.7235697981835219  1.0000
  C   C13       1.0  0.3244440435617991  0.4032697562677696  0.7654303307314441  1.0000
  C   C14       1.0  0.5205364711912195  0.38271519237207197  0.6423976652642527  1.0000
  H   H1        1.0  0.6619937770447158  0.2798362656651652  0.8404660613340318  1.0000
  H   H2        1.0  0.5533704641409319  0.20624904624738738  0.9823293302224347  1.0000
  H   H3        1.0  0.4243540268473904  0.24288129595441532  0.9094748892616147  1.0000
  H   H4        1.0  0.4035076908532643  0.3157776028883901  0.480220676227894  1.0000
  H   H5        1.0  0.27517933833609  0.35523592521961445  0.40730213349901767  1.0000
  H   H6        1.0  0.2088773680018757  0.45539700576055875  0.7917839219998275  1.0000
  H   H7        1.0  0.33734167757168987  0.4186719917575117  0.8652908137482815  1.0000
  H   H8        1.0  0.512062791348669  0.433551081505519  0.5479087380561924  1.0000
  C   C15       1.0  0.902539114850639  0.06216414671496251  0.5259208314543844  1.0000
  C   C16       1.0  0.9030748139419437  0.07149040905272264  0.38907711214462437  1.0000
  C   C17       1.0  0.9044524870140447  0.9593795873054923  0.3201761583739853  1.0000
  C   C18       1.0  0.9032163091676823  0.836303486034333  0.3893669385056848  1.0000
  C   C19       1.0  0.9026712204937456  0.824878649838581  0.5261568686691616  1.0000
  C   C20       1.0  0.9026000614954434  0.9384235242418273  0.593649453859918  1.0000
  N   N3        1.0  0.9038460712874256  0.9724707034011594  0.1801352169184285  1.0000
  C   C21       1.0  0.9390764925908741  0.8822171113715691  0.09877304163843403  1.0000
  O   O1        1.0  0.9908943286561237  0.8106470549954508  0.14334816467620515  1.0000
  C   C22       1.0  0.9172650219988973  0.8755229576242686  0.9614157788136706  1.0000
  C   C23       1.0  0.8478047987927944  0.9237026332439101  0.9182914018044386  1.0000
  C   C24       1.0  0.8276973924520125  0.9162313109982219  0.7886988575121632  1.0000
  C   C25       1.0  0.8763506545159353  0.8603472962561756  0.7009833634058333  1.0000
  C   C26       1.0  0.9451497869589993  0.8113643537809455  0.7427621615135651  1.0000
  C   C27       1.0  0.965544016234527  0.8184863408651827  0.8722369229253228  1.0000
  H   H9        1.0  0.9008115499820942  0.25181824470830105  0.7840852177927113  1.0000
  H   H10       1.0  0.9029982480252774  0.166110577805755  0.3352565639478531  1.0000
  H   H11       1.0  0.901360275655429  0.7494802530350634  0.33664662396234357  1.0000
  H   H12       1.0  0.9021971435575369  0.9303688846339259  0.6991400530872154  1.0000
  H   H13       1.0  0.9014626309692104  0.49302270348849225  0.5786754991968373  1.0000
  H   H14       1.0  0.8824186603837866  0.05809361062305096  0.13518790139193282  1.0000
  H   H15       1.0  0.8084247195454433  0.9654268634137039  0.9846019666172836  1.0000
  H   H16       1.0  0.7741628071860889  0.953371437200512  0.756395954519788  1.0000
  H   H17       1.0  0.8606362305671181  0.8546318734873216  0.6007528323095275  1.0000
  H   H18       1.0  0.9827526487455278  0.7678015628790821  0.6747702893332632  1.0000
  H   H19       1.0  0.01926713904879951  0.7801652034459721  0.9023123262061512  1.0000
  C   C28       1.0  0.9026747847466025  0.44361059645615475  0.14465312361190863  1.0000
  C   C29       1.0  0.981150105289732  0.46018231805337906  0.13864582263694403  1.0000
  C   C30       1.0  0.02063623958401828  0.4700096888873402  0.018332976519117583  1.0000
  C   C31       1.0  0.9809705191507246  0.460114082994606  0.9034152828668645  1.0000
  C   C32       1.0  0.9025355524915923  0.4434322226453984  0.9074245546433457  1.0000
  C   C33       1.0  0.8638203283007758  0.4356175111662943  0.0285297450419284  1.0000
  C   C34       1.0  0.10358869363019663  0.48615193515731714  0.01195016474882693  1.0000
  O   O2        1.0  0.14043746270062152  0.4335069281972992  0.9243765647091786  1.0000
  C   C35       1.0  0.14473489969662823  0.562031853228981  0.10483293267345206  1.0000
  C   C36       1.0  0.21802549734648324  0.5270965525108176  0.13958549897618533  1.0000
  C   C37       1.0  0.2581661792171346  0.5983348042981629  0.22594896428098665  1.0000
  O   O3        1.0  0.3308457132103575  0.5582104120766036  0.25785719109734395  1.0000
  C   C38       1.0  0.3779268996544265  0.62122421567533  0.34408499902652356  1.0000
  C   C39       1.0  0.22460112592921488  0.7069029166457979  0.27745548452056035  1.0000
  C   C40       1.0  0.15218790791340298  0.7431927284701303  0.24215208436999136  1.0000
  C   C41       1.0  0.11248079721178494  0.6717320129711788  0.15600946363468204  1.0000
  H   H20       1.0  0.75471028169983  0.41035335100638326  0.363458992799671  1.0000
  H   H21       1.0  0.011748704094288076  0.46401808242793696  0.22781857152969454  1.0000
  H   H22       1.0  0.011396291883273735  0.4667091762118354  0.8106120343468293  1.0000
  H   H23       1.0  0.8033215895160721  0.422841073152765  0.03235721948962356  1.0000
  H   H24       1.0  0.8724749952048204  0.43594204454327046  0.5815881815201429  1.0000
  H   H25       1.0  0.24406490296336392  0.4434194399907456  0.10047221235469395  1.0000
  H   H26       1.0  0.4319956980582145  0.5691826671781628  0.3515184128224558  1.0000
  H   H27       1.0  0.35079811548600826  0.6187638203799899  0.44257767557777394  1.0000
  H   H28       1.0  0.3894946369772956  0.7235087951075307  0.30591920403518524  1.0000
  H   H29       1.0  0.25405090552987897  0.7640552523959356  0.3442981383540715  1.0000
  H   H30       1.0  0.12685415820667045  0.8273760337955804  0.2812617209020549  1.0000
  H   H31       1.0  0.05693179659329628  0.7031076332349568  0.12837268423129622  1.0000
  Zn  Zn1       1.0  0.8202850841484982  0.4415217383700236  0.5298596927723518  1.0000
  Zn  Zn2       1.0  0.9849180698492054  0.44552029402512217  0.5222177663136369  1.0000
  C   C42       1.0  0.9025593052426943  0.4382923201943807  0.7632429336017004  1.0000
  C   C43       1.0  0.9026456468026648  0.4487513944260526  0.2888345700139061  1.0000
  C   C44       1.0  0.9026433370480389  0.6807105179485107  0.520937050306757  1.0000
  C   C45       1.0  0.90256155853668  0.2063316350159501  0.5311405246752847  1.0000
  O   O4        1.0  0.965113226942499  0.4519884585764238  0.33432310752183314  1.0000
  O   O5        1.0  0.9650443518002467  0.4380890876479635  0.7119539765680059  1.0000
  O   O6        1.0  0.9651113660746073  0.6338448273594943  0.5162903009658562  1.0000
  O   O7        1.0  0.9650461565094357  0.2562327268132871  0.5299866883555673  1.0000
  O   O8        1.0  0.8401569413071114  0.6308093042187632  0.5220907733314049  1.0000
  O   O9        1.0  0.8400899273122346  0.43505512480010977  0.7177543801681037  1.0000
  O   O10       1.0  0.8401588027816159  0.4489544508397314  0.3401219496360428  1.0000
  O   O11       1.0  0.8400917323260989  0.25319870976510517  0.5357856278391768  1.0000
