data_image0
_chemical_formula_structural       NC8NC6H8C7OC3OC4H12C7OC6OCH12Zn2C4O8
_chemical_formula_sum              "N2 C46 H32 O12 Zn2"
_cell_length_a       17.457602349358154
_cell_length_b       10.299371110280156
_cell_length_c       10.299362532796529
_cell_angle_alpha    85.59679077391144
_cell_angle_beta     92.89066602148195
_cell_angle_gamma    91.70033728131911

_space_group_name_H-M_alt    "P 1"
_space_group_IT_number       1

loop_
  _space_group_symop_operation_xyz
  'x, y, z'

loop_
  _atom_site_type_symbol
  _atom_site_label
  _atom_site_symmetry_multiplicity
  _atom_site_fract_x
  _atom_site_fract_y
  _atom_site_fract_z
  _atom_site_occupancy
  N   N1        1.0  0.7224063500232857  0.45240133017344797  0.6269688356500616  1.0000
  C   C1        1.0  0.6613205191999326  0.4064724085839151  0.6163380105976508  1.0000
  C   C2        1.0  0.5853271648965457  0.3493425476048242  0.6031228081422144  1.0000
  C   C3        1.0  0.526815748787192  0.38952868974081856  0.678034258145968  1.0000
  C   C4        1.0  0.452260861116219  0.3345173024091588  0.6654341913356934  1.0000
  C   C5        1.0  0.3901595475200397  0.37694802640457525  0.7447682162139488  1.0000
  C   C6        1.0  0.3156066306384889  0.39539866181826944  0.6890102616239924  1.0000
  C   C7        1.0  0.2570952036901363  0.43540091190926256  0.7640296061297072  1.0000
  C   C8        1.0  0.1811038657020938  0.4544566936924408  0.7060563694814004  1.0000
  N   N2        1.0  0.1200197456252316  0.4697711625558316  0.6594460361802408  1.0000
  C   C9        1.0  0.2726446437779487  0.4571958327668497  0.8953155066717136  1.0000
  C   C10       1.0  0.3464129703003617  0.4391343109042427  0.9514611898476881  1.0000
  C   C11       1.0  0.4049128886497672  0.39931226312625134  0.8768996294438938  1.0000
  C   C12       1.0  0.4375057184206583  0.23864188945745202  0.5764895210816323  1.0000
  C   C13       1.0  0.4960055170184168  0.19873455743934199  0.5019781689219613  1.0000
  C   C14       1.0  0.5697757406558065  0.2538584975100848  0.5151282269981421  1.0000
  H   H1        1.0  0.5391804556995515  0.46474488843035555  0.7446901189566448  1.0000
  H   H2        1.0  0.3032435738219679  0.38039556395912966  0.5869800094941129  1.0000
  H   H3        1.0  0.2277971028680335  0.4880976764594569  0.9541619430222685  1.0000
  H   H4        1.0  0.3582624687852008  0.45569495968788076  0.053118687308635004  1.0000
  H   H5        1.0  0.4614037109666341  0.3843351428338835  0.9230015797096911  1.0000
  H   H6        1.0  0.3810132399467257  0.19330262829605815  0.5658227715449582  1.0000
  H   H7        1.0  0.4841545831485018  0.1246344432901223  0.434124341440451  1.0000
  H   H8        1.0  0.6146232877685234  0.2220871140985028  0.4567926357728769  1.0000
  C   C15       1.0  0.9211649709617111  0.07971269588633034  0.6430887080069663  1.0000
  C   C16       1.0  0.9123038836010438  0.08857273226304496  0.5063824984365226  1.0000
  C   C17       1.0  0.9069679893570856  0.9758167625323522  0.43752907016574705  1.0000
  C   C18       1.0  0.9123420142942676  0.8533066093493089  0.5066966928241896  1.0000
  C   C19       1.0  0.9212684648155582  0.8424501093577725  0.6433380089418306  1.0000
  C   C20       1.0  0.9254274263329633  0.9562390318175108  0.7107646280953634  1.0000
  C   C21       1.0  0.8984113886616606  0.9850792172303683  0.2930859683517333  1.0000
  O   O1        1.0  0.9298514404663547  0.9013949944807076  0.23163231909927195  1.0000
  C   C22       1.0  0.8541790981576058  0.08919501767834248  0.21836362067704806  1.0000
  C   C23       1.0  0.8756042826099408  0.1352534491098354  0.0929735815997974  1.0000
  C   C24       1.0  0.8340951009873642  0.23243289658518784  0.020203663148166795  1.0000
  O   O2        1.0  0.8585704271065107  0.2752722396804681  0.8961074507147155  1.0000
  C   C25       1.0  0.8219865591391975  0.3731351117020878  0.8116858811742484  1.0000
  C   C26       1.0  0.7697452405102099  0.28349784076049156  0.07343448351011528  1.0000
  C   C27       1.0  0.7475321431044825  0.2371147028663978  0.19724313646927238  1.0000
  C   C28       1.0  0.7891773590473848  0.14022227661770148  0.269272003438767  1.0000
  H   H9        1.0  0.9390575152259616  0.2703834098158031  0.9009380982773056  1.0000
  H   H10       1.0  0.910395874751818  0.1834081659390001  0.45319797787614147  1.0000
  H   H11       1.0  0.9088062840721354  0.7662762434203839  0.4536864816848347  1.0000
  H   H12       1.0  0.9322591692248389  0.9486048133106992  0.8161551392318267  1.0000
  H   H13       1.0  0.9253357533592887  0.5108600731624447  0.6957560677286809  1.0000
  H   H14       1.0  0.9252028768224208  0.09651074964523776  0.05165286207345132  1.0000
  H   H15       1.0  0.8532690582478321  0.38756516088281634  0.7203720070454014  1.0000
  H   H16       1.0  0.823124222024281  0.4666553796749682  0.8587969405623692  1.0000
  H   H17       1.0  0.7618576050317748  0.34226920883489154  0.7870106971082036  1.0000
  H   H18       1.0  0.736411969812477  0.35852588815163977  0.01982434260247712  1.0000
  H   H19       1.0  0.6976433932023728  0.27600577106844404  0.2373184478173629  1.0000
  H   H20       1.0  0.7700533996344072  0.10426702577710056  0.36408673329215313  1.0000
  C   C29       1.0  0.9211568218849324  0.46095824616630576  0.2618415396304672  1.0000
  C   C30       1.0  0.8483205846066411  0.3990955413691142  0.25916137858590216  1.0000
  C   C31       1.0  0.811253473856344  0.36920262639772683  0.14061148525605915  1.0000
  C   C32       1.0  0.8485366641162481  0.3992685392871078  0.023924779819266107  1.0000
  C   C33       1.0  0.921276617417527  0.4612045347125404  0.024585175766424383  1.0000
  C   C34       1.0  0.9571040085832262  0.49194489431031396  0.14404293925226153  1.0000
  C   C35       1.0  0.7347302098828773  0.3025617816079198  0.1401438639828836  1.0000
  O   O3        1.0  0.7190445238479389  0.22266965179510412  0.23473420509685905  1.0000
  C   C36       1.0  0.6760046030050979  0.32654766733793816  0.03244070960700429  1.0000
  C   C37       1.0  0.6701214094701499  0.44966368399173406  0.9641457247941623  1.0000
  C   C38       1.0  0.6139678274135395  0.47139030444585805  0.8638711281852949  1.0000
  C   C39       1.0  0.5623455899765488  0.371470508462328  0.8305749588864706  1.0000
  C   C40       1.0  0.5674219598057642  0.2485128008353119  0.8997223191986365  1.0000
  C   C41       1.0  0.6235686492181786  0.22665867967387698  6.871766033289539e-05  1.0000
  O   O4        1.0  0.5071194944861352  0.39821764614804556  0.7290887304489875  1.0000
  C   C42       1.0  0.4511680995741877  0.30601180920035187  0.6851176405476034  1.0000
  H   H21       1.0  0.05872965613148118  0.5772074368896991  0.47421765398609605  1.0000
  H   H22       1.0  0.8199108430253909  0.37511343347098336  0.349367761254477  1.0000
  H   H23       1.0  0.8211069140111805  0.3729900994415556  0.9326223163757943  1.0000
  H   H24       1.0  0.013217777462911195  0.539719831781053  0.14528518450008288  1.0000
  H   H25       1.0  0.9493098471598551  0.484487277036457  0.6974127074916665  1.0000
  H   H26       1.0  0.708373278281708  0.5295857405197144  0.9891190645985088  1.0000
  H   H27       1.0  0.6103252622283482  0.5666909262393336  0.812040107849473  1.0000
  H   H28       1.0  0.5282888928733729  0.1692380400633402  0.8767739950987616  1.0000
  H   H29       1.0  0.626465774971786  0.1311436242191606  0.05172560066180987  1.0000
  H   H30       1.0  0.4151374044503121  0.3531330613902721  0.604106618598506  1.0000
  H   H31       1.0  0.4136996963054497  0.272161865924031  0.7655967099412204  1.0000
  H   H32       1.0  0.47975651791943036  0.22194042286558435  0.6487699850893205  1.0000
  Zn  Zn1       1.0  0.8371489878092783  0.4574104082652446  0.6363485515641154  1.0000
  Zn  Zn2       1.0  0.0052770938144171  0.4647514399441719  0.6500769493943246  1.0000
  C   C43       1.0  0.9212515495039184  0.45598417319395756  0.8804084512523207  1.0000
  C   C44       1.0  0.9211763683158104  0.4661793938605694  0.40601732762276543  1.0000
  C   C45       1.0  0.9212441340050809  0.6982746493837051  0.638115337065136  1.0000
  C   C46       1.0  0.9211837262434506  0.22388735486607225  0.6483105058546097  1.0000
  O   O5        1.0  0.9849866675298131  0.47071187617418553  0.45961389271375297  1.0000
  O   O6        1.0  0.9850465923366161  0.45702238420923913  0.8372310482918841  1.0000
  O   O7        1.0  0.9850397443346591  0.6526749707947685  0.6415775745307271  1.0000
  O   O8        1.0  0.9849934581470048  0.275059296342554  0.6552672644179671  1.0000
  O   O9        1.0  0.8574325661028187  0.6471025493631406  0.6311582318488143  1.0000
  O   O10       1.0  0.8574394143021009  0.45145152307863823  0.8268116368736527  1.0000
  O   O11       1.0  0.8573794892949751  0.46514096928507653  0.44919291987235965  1.0000
  O   O12       1.0  0.8573862799230599  0.2694883801958248  0.6448463889418579  1.0000
