data_image0
_chemical_formula_structural       NC10NC3NCH9C7OC6OCH12C7OC3NC3H11Zn2C4O8
_chemical_formula_sum              "N4 C45 H32 O11 Zn2"
_cell_length_a       19.437513618241372
_cell_length_b       10.299359160628079
_cell_length_c       10.298749378158432
_cell_angle_alpha    85.56206142688012
_cell_angle_beta     90.35618214226261
_cell_angle_gamma    89.54510135387923

_space_group_name_H-M_alt    "P 1"
_space_group_IT_number       1

loop_
  _space_group_symop_operation_xyz
  'x, y, z'

loop_
  _atom_site_type_symbol
  _atom_site_label
  _atom_site_symmetry_multiplicity
  _atom_site_fract_x
  _atom_site_fract_y
  _atom_site_fract_z
  _atom_site_occupancy
  N   N1        1.0  0.6480256862400372  0.4106243426001166  0.5757735123280421  1.0000
  C   C1        1.0  0.5890956115074957  0.42763502022579414  0.5728004695552003  1.0000
  C   C2        1.0  0.5156592167828414  0.44888830099481125  0.5691101702894288  1.0000
  C   C3        1.0  0.47387377257318275  0.34769870761762833  0.557430696573388  1.0000
  C   C4        1.0  0.39798506339123113  0.35776463443124995  0.5502106367968671  1.0000
  C   C5        1.0  0.3584362294416184  0.43860473133278255  0.6159741232848728  1.0000
  C   C6        1.0  0.2822511106499719  0.42999758234799  0.6075276633491331  1.0000
  C   C7        1.0  0.24908996413173323  0.3086507099957363  0.6121484330580054  1.0000
  C   C8        1.0  0.1773530178075378  0.30227991421140277  0.6049785510435837  1.0000
  C   C9        1.0  0.137806536803451  0.41678324664584965  0.593550072537204  1.0000
  C   C10       1.0  0.0639550236258555  0.4100742913201243  0.5862120205853318  1.0000
  N   N2        1.0  0.0045835052446833  0.4046808812436171  0.5803126853728906  1.0000
  C   C11       1.0  0.1702511161737383  0.5378194329697292  0.5896745840581894  1.0000
  C   C12       1.0  0.241972529613754  0.544444213871667  0.5969065409862009  1.0000
  C   C13       1.0  0.3871514961211883  0.5308771565217643  0.7059192858572885  1.0000
  N   N3        1.0  0.4441476392218839  0.5940935756796009  0.6855253254050764  1.0000
  C   C14       1.0  0.487971398209286  0.5848498064529242  0.5724063091273115  1.0000
  H   H1        1.0  0.49623549313333304  0.2526432327177903  0.5452904264142984  1.0000
  H   H2        1.0  0.37324803763097053  0.28826064831297193  0.49187431963357353  1.0000
  H   H3        1.0  0.2785221928999984  0.2187361127813059  0.6231531738964142  1.0000
  H   H4        1.0  0.152739464108219  0.20805196317350538  0.6088481863566146  1.0000
  H   H5        1.0  0.140133768717893  0.6270787543726593  0.5809820650483983  1.0000
  H   H6        1.0  0.2661046493380121  0.639084971685874  0.5930215228429474  1.0000
  H   H7        1.0  0.35716389796679293  0.5512498162631954  0.7902970370261602  1.0000
  H   H8        1.0  0.5307400696183855  0.6551621572240935  0.5781835378578182  1.0000
  H   H9        1.0  0.4582984067707019  0.6129730321613436  0.4817582952923076  1.0000
  C   C15       1.0  0.8262269295475267  0.026275590914233593  0.5780106378401852  1.0000
  C   C16       1.0  0.7693140001043406  0.03251152865880558  0.49288250615395746  1.0000
  C   C17       1.0  0.7411017873904244  0.9186640260659847  0.44885925985858366  1.0000
  C   C18       1.0  0.7694779025438945  0.7972472643656087  0.49313971906691045  1.0000
  C   C19       1.0  0.8263888624595158  0.7890194333642575  0.5780869516071505  1.0000
  C   C20       1.0  0.854530625157348  0.9041238412563073  0.6198235973637225  1.0000
  C   C21       1.0  0.6805296070571581  0.9273929299832924  0.36014772990449817  1.0000
  O   O1        1.0  0.636809223608702  0.016993527537841002  0.3711585823445587  1.0000
  C   C22       1.0  0.6695539425477866  0.8345455321680573  0.258952560008922  1.0000
  C   C23       1.0  0.7255089815180396  0.7802687724318428  0.1956046980486279  1.0000
  C   C24       1.0  0.7144427256463846  0.6940738027053319  0.0993744569909969  1.0000
  C   C25       1.0  0.6476024088094564  0.6612762552390506  0.06375810150653716  1.0000
  C   C26       1.0  0.5914156827765443  0.7165917511416291  0.12579115185918255  1.0000
  C   C27       1.0  0.6024190304350833  0.8028466553659086  0.22206701719393784  1.0000
  O   O2        1.0  0.6392614829335201  0.5741955277739762  0.9667459979859263  1.0000
  C   C28       1.0  0.5744223099988307  0.5324352627457942  0.9210489462879337  1.0000
  H   H10       1.0  0.9334417865544781  0.2217492387887059  0.7390633858695845  1.0000
  H   H11       1.0  0.7471847734127129  0.1262109300775316  0.45961340900219394  1.0000
  H   H12       1.0  0.7466357137426327  0.708993141501782  0.4623950694275174  1.0000
  H   H13       1.0  0.8984313638144676  0.8985090631970847  0.6853563187224525  1.0000
  H   H14       1.0  0.8480444019799225  0.4583605976224496  0.6110833319149604  1.0000
  H   H15       1.0  0.7778174241266295  0.8054831001489511  0.21940355691518354  1.0000
  H   H16       1.0  0.7581022070012959  0.6529019679765666  0.051745220295920324  1.0000
  H   H17       1.0  0.5390783523405587  0.6936550190482399  0.10034718030388179  1.0000
  H   H18       1.0  0.5583749474768969  0.8439791863380908  0.268640513833998  1.0000
  H   H19       1.0  0.5830042780160899  0.46390253345656585  0.8446773723332499  1.0000
  H   H20       1.0  0.5441873593743566  0.6172906983822509  0.878150666860039  1.0000
  H   H21       1.0  0.5455482597877178  0.4813410602202591  0.002223494015832772  1.0000
  C   C29       1.0  0.8262761667879736  0.4076760678368392  0.19664731654020318  1.0000
  C   C30       1.0  0.8638816622872938  0.5239166973052409  0.18711774683234128  1.0000
  C   C31       1.0  0.8822071294395107  0.5835084208525974  0.06505154289471249  1.0000
  C   C32       1.0  0.8638844069783373  0.5239655141185919  0.9518737571076383  1.0000
  C   C33       1.0  0.8263395976579382  0.40761897685292614  0.9594502283532731  1.0000
  C   C34       1.0  0.8076157232817294  0.3503957786866887  0.08226030597767164  1.0000
  C   C35       1.0  0.9224760380537164  0.7056079904331669  0.05489600327106281  1.0000
  O   O3        1.0  0.9654692707060664  0.7232345570518417  0.9640982059934404  1.0000
  C   C36       1.0  0.9139729197083655  0.8077029200551697  0.14768735979572933  1.0000
  C   C37       1.0  0.8496129133650425  0.8313502816503966  0.20357447984572552  1.0000
  C   C38       1.0  0.8419377464892558  0.928982521497119  0.2901865317708996  1.0000
  N   N4        1.0  0.7764395733020554  0.951926462024697  0.3470269774254655  1.0000
  C   C39       1.0  0.8987254209357528  0.004288805856460076  0.32031456942690606  1.0000
  C   C40       1.0  0.9625436842913292  0.9826011713259071  0.26396140832217707  1.0000
  C   C41       1.0  0.9701792689004958  0.8852812690597358  0.17772568745078887  1.0000
  H   H22       1.0  0.7561318863779767  0.18700960169613778  0.42210543525507616  1.0000
  H   H23       1.0  0.8796032074794842  0.5675014621340873  0.27486830921265715  1.0000
  H   H24       1.0  0.8784037714041968  0.5692465117059222  0.8576567146987197  1.0000
  H   H25       1.0  0.7786319471525724  0.2607927812942161  0.08885413591092584  1.0000
  H   H26       1.0  0.7556478040789693  0.18754063933285425  0.7664848192313856  1.0000
  H   H27       1.0  0.8052092820126353  0.7750818999173681  0.17896064877373008  1.0000
  H   H28       1.0  0.7337653702513435  0.8963644460304423  0.3252502279766525  1.0000
  H   H29       1.0  0.7701512447134352  0.02455135500886385  0.4114417024182111  1.0000
  H   H30       1.0  0.8934548674948669  0.07999276419473578  0.3869878946253513  1.0000
  H   H31       1.0  0.006212845766508712  0.04134166941594719  0.2871594844660714  1.0000
  H   H32       1.0  0.02015781847287479  0.8698031333905409  0.1353600591864219  1.0000
  Zn  Zn1       1.0  0.7509205761245138  0.4089056981873691  0.5770909288634241  1.0000
  Zn  Zn2       1.0  0.9016886201924619  0.40638885508476874  0.579005938553524  1.0000
  C   C42       1.0  0.8263249894938941  0.40245602535472424  0.8152636101458826  1.0000
  C   C43       1.0  0.8262858535639128  0.4128401390780696  0.34083340582410204  1.0000
  C   C44       1.0  0.8263542753717511  0.6448450927474572  0.5728968350582455  1.0000
  C   C45       1.0  0.8262565159139723  0.17044951220358806  0.5832002493467876  1.0000
  O   O4        1.0  0.8835047903211081  0.41361245385963974  0.3899503101746318  1.0000
  O   O5        1.0  0.883535509410108  0.39977250517893204  0.7675997798639222  1.0000
  O   O6        1.0  0.8835583869443552  0.5955047553012642  0.5718868845336538  1.0000
  O   O7        1.0  0.8834818613338122  0.21788021389383871  0.5856631074693899  1.0000
  O   O8        1.0  0.7691272835334292  0.5974143402385885  0.570433759287228  1.0000
  O   O9        1.0  0.7691044063215313  0.4016836504582948  0.7661465855221177  1.0000
  O   O10       1.0  0.7690736871387926  0.4155235539981441  0.3884955542949593  1.0000
  O   O11       1.0  0.769050758154811  0.21979130473610198  0.5842084489648982  1.0000
