data_image0
_chemical_formula_structural       NC9NC5H8C6NCOC6H11C7OC6H10Zn2C4O8
_chemical_formula_sum              "N3 C44 H29 O10 Zn2"
_cell_length_a       17.807436237873137
_cell_length_b       10.29965916528486
_cell_length_c       10.299382801718286
_cell_angle_alpha    85.58981362736998
_cell_angle_beta     89.37299496534968
_cell_angle_gamma    88.40731929758992

_space_group_name_H-M_alt    "P 1"
_space_group_IT_number       1

loop_
  _space_group_symop_operation_xyz
  'x, y, z'

loop_
  _atom_site_type_symbol
  _atom_site_label
  _atom_site_symmetry_multiplicity
  _atom_site_fract_x
  _atom_site_fract_y
  _atom_site_fract_z
  _atom_site_occupancy
  N   N1        1.0  0.7079357345055102  0.3874306195021011  0.5575578370783068  1.0000
  C   C1        1.0  0.647344289013061  0.35223984806930364  0.5465227461935831  1.0000
  C   C2        1.0  0.5719751903876513  0.3084664038140552  0.5327962913275792  1.0000
  C   C3        1.0  0.5538921157561432  0.23703311632824287  0.42777022657577946  1.0000
  C   C4        1.0  0.48071260715602765  0.1944209662306109  0.4143600596344257  1.0000
  C   C5        1.0  0.4245673957622446  0.2228645794803561  0.5059433864905818  1.0000
  C   C6        1.0  0.3467964461794708  0.17769376753731958  0.49177396301879894  1.0000
  C   C7        1.0  0.2846291263949847  0.25945242636749577  0.5177388363877056  1.0000
  C   C8        1.0  0.2113072751086859  0.21663724721466648  0.5043422866085892  1.0000
  C   C9        1.0  0.148090259526438  0.30108724458655356  0.5306719142643332  1.0000
  N   N2        1.0  0.0972767664235446  0.36897920009868623  0.5518402065642958  1.0000
  C   C10       1.0  0.1995691591155028  0.09180543242889283  0.46495543216163937  1.0000
  C   C11       1.0  0.2608791083347093  0.010032920100995879  0.4389821646696317  1.0000
  C   C12       1.0  0.3340814992854131  0.052453531112455876  0.45217605026352126  1.0000
  C   C13       1.0  0.4433419171989079  0.29479226057179453  0.6111888382800026  1.0000
  C   C14       1.0  0.5165742948757301  0.3372139919094741  0.6244432933650887  1.0000
  H   H1        1.0  0.5962972812797968  0.21453461762459458  0.35604990131474246  1.0000
  H   H2        1.0  0.4678071114708661  0.14072421445477046  0.33142211927652254  1.0000
  H   H3        1.0  0.2931377619079289  0.3569198664009634  0.5466467974432327  1.0000
  H   H4        1.0  0.1431003340936007  0.05776839217579943  0.45434974744405476  1.0000
  H   H5        1.0  0.2516725066420001  0.9133853195965058  0.4088740429361877  1.0000
  H   H6        1.0  0.3807147130140606  0.9867068597162999  0.43310679428861554  1.0000
  H   H7        1.0  0.4016532835883011  0.31675197939396305  0.684203500563412  1.0000
  H   H8        1.0  0.5300085565735613  0.39213108770586547  0.7063399848896721  1.0000
  C   C15       1.0  0.9025437799962875  0.9968471760481581  0.554584483946513  1.0000
  C   C16       1.0  0.9030813781668338  0.006077284023084051  0.41776227670777866  1.0000
  C   C17       1.0  0.9044599879167924  0.8938386297202023  0.3489072816275427  1.0000
  C   C18       1.0  0.9032228668587915  0.7708803408179786  0.41805657956598674  1.0000
  C   C19       1.0  0.9026758800211391  0.7595523093372544  0.554824701742751  1.0000
  C   C20       1.0  0.9026037809798522  0.8731307697616242  0.6223127976921481  1.0000
  N   N3        1.0  0.9038555359721425  0.9069141099057001  0.20885174743694201  1.0000
  C   C21       1.0  0.9390864716132155  0.8141008298901644  0.1286092399031704  1.0000
  O   O1        1.0  0.9909027735141577  0.7388352362622471  0.1748257654609442  1.0000
  C   C22       1.0  0.9172773007869431  0.8089121707394547  0.9905649921870983  1.0000
  C   C23       1.0  0.847818902187095  0.862052618454763  0.9452398151884154  1.0000
  C   C24       1.0  0.827713657312283  0.8559679190142517  0.8150140562140775  1.0000
  C   C25       1.0  0.8763672859508278  0.7965593732791504  0.7288440093967865  1.0000
  C   C26       1.0  0.9451646241954967  0.7426624784006627  0.7728026922235953  1.0000
  C   C27       1.0  0.9655566885969014  0.7483772332373247  0.9029197658964097  1.0000
  H   H9        1.0  0.9008126450187944  0.18673406588761754  0.8126855560855273  1.0000
  H   H10       1.0  0.9030055642152888  0.100680226102829  0.3639410817818298  1.0000
  H   H11       1.0  0.9013676013027513  0.6841678993754025  0.3652791641131794  1.0000
  H   H12       1.0  0.9021993988957557  0.865149534041543  0.7277871320503471  1.0000
  H   H13       1.0  0.9014665793199297  0.427805161310892  0.6073032763994421  1.0000
  H   H14       1.0  0.8824291292610641  0.9940539836355395  0.16322656597283314  1.0000
  H   H15       1.0  0.8084385915955254  0.9066276353734664  0.010299645937117186  1.0000
  H   H16       1.0  0.7741804652854303  0.8969318201283435  0.7810149153473995  1.0000
  H   H17       1.0  0.8606545366074277  0.7919280725444865  0.6281185710104289  1.0000
  H   H18       1.0  0.9827677720709151  0.69637558373739  0.70600526330136  1.0000
  H   H19       1.0  0.019278445918215148  0.7062178662438937  0.9346974583108931  1.0000
  C   C28       1.0  0.9026847649138348  0.3781229866236515  0.17333369266175147  1.0000
  C   C29       1.0  0.9816099143848016  0.37524606412987205  0.17087127459543439  1.0000
  C   C30       1.0  0.021417263889233373  0.3723069944772279  0.052570716492009284  1.0000
  C   C31       1.0  0.981426850013244  0.37528277590158576  0.9356284031603566  1.0000
  C   C32       1.0  0.9025348777108477  0.3782765422065366  0.9360754744566644  1.0000
  C   C33       1.0  0.8636214045080914  0.3793345705272366  0.05548711545883145  1.0000
  C   C34       1.0  0.10475220240594818  0.37065324847135805  0.04971915746217981  1.0000
  O   O2        1.0  0.13786372380386158  0.42979155311643913  0.9547253282034909  1.0000
  C   C35       1.0  0.15052396068026908  0.30190237222976046  0.15453200816635015  1.0000
  C   C36       1.0  0.22114539371411546  0.34901417990109174  0.18461235408543009  1.0000
  C   C37       1.0  0.2650855367729752  0.2839993391258657  0.2822015065621668  1.0000
  C   C38       1.0  0.23932410752249988  0.1709192144644689  0.3499074628455139  1.0000
  C   C39       1.0  0.16969862174550365  0.1223132772660851  0.31978901276266236  1.0000
  C   C40       1.0  0.12554440074500106  0.18695955967677036  0.22230494453087912  1.0000
  H   H20       1.0  0.7537415417125441  0.38556380226023124  0.38514582132323505  1.0000
  H   H21       1.0  0.012215967539363382  0.3767460101271185  0.26102159774329703  1.0000
  H   H22       1.0  0.012040133896914051  0.37400331738739157  0.8442274106674796  1.0000
  H   H23       1.0  0.8027760610327281  0.38155325969162845  0.05658121920853976  1.0000
  H   H24       1.0  0.872228252957044  0.38053155890203794  0.6087057568464109  1.0000
  H   H25       1.0  0.24201795610281884  0.436696042005271  0.13339851432815109  1.0000
  H   H26       1.0  0.3191700713875807  0.32131904614925855  0.305292617427219  1.0000
  H   H27       1.0  0.2734433267985519  0.12067609343419061  0.42533436624317233  1.0000
  H   H28       1.0  0.15004882531531405  0.034117568247254315  0.3716135130952123  1.0000
  H   H29       1.0  0.07236138139207715  0.14631503381279432  0.19901333124274867  1.0000
  Zn  Zn1       1.0  0.8202911428190318  0.382102474763814  0.5559153621597759  1.0000
  Zn  Zn2       1.0  0.9849213359815359  0.37429676112701404  0.5534933548162928  1.0000
  C   C41       1.0  0.9025606601823889  0.373074064171002  0.7918993738529547  1.0000
  C   C42       1.0  0.9026536166335501  0.383326725078196  0.3175094446581135  1.0000
  C   C43       1.0  0.9026480698654741  0.6153839731313548  0.5496041720498066  1.0000
  C   C44       1.0  0.9025661504898236  0.14101525853914132  0.5598047160352579  1.0000
  O   O3        1.0  0.9651194623324891  0.38210525402198203  0.36497700314082593  1.0000
  O   O4        1.0  0.9650453217141759  0.3683701994201749  0.7425931936813919  1.0000
  O   O5        1.0  0.9651150636629874  0.5640385555367959  0.5469381167625431  1.0000
  O   O6        1.0  0.9650496642272854  0.18643690983926553  0.5606319835138909  1.0000
  O   O7        1.0  0.8401627583930786  0.569962328716682  0.5487767342818597  1.0000
  O   O8        1.0  0.840093016724705  0.3742955328438822  0.7444317424463935  1.0000
  O   O9        1.0  0.8401671576919193  0.3880305418743757  0.36681399048197716  1.0000
  O   O10       1.0  0.8400973595629041  0.19236218842287411  0.5624690682205076  1.0000
