data_image0
_chemical_formula_structural       NC9NC5H8C7OC3NC3H11C6SCOC6H10Zn2C4O8
_chemical_formula_sum              "N3 C44 H29 O10 S1 Zn2"
_cell_length_a       17.807436237873137
_cell_length_b       10.298746005989749
_cell_length_c       10.302041481415108
_cell_angle_alpha    85.54475236709732
_cell_angle_beta     89.38796050765288
_cell_angle_gamma    88.3993582553778

_space_group_name_H-M_alt    "P 1"
_space_group_IT_number       1

loop_
  _space_group_symop_operation_xyz
  'x, y, z'

loop_
  _atom_site_type_symbol
  _atom_site_label
  _atom_site_symmetry_multiplicity
  _atom_site_fract_x
  _atom_site_fract_y
  _atom_site_fract_z
  _atom_site_occupancy
  N   N1        1.0  0.7075958421348871  0.38836339692534105  0.5575183063960283  1.0000
  C   C1        1.0  0.6470054210002328  0.3531746138017411  0.5464946650045035  1.0000
  C   C2        1.0  0.5716375965603918  0.3094036427933533  0.5327824520508984  1.0000
  C   C3        1.0  0.553543420508101  0.2380188911509289  0.4277977544717211  1.0000
  C   C4        1.0  0.4803651446534767  0.19540917446712158  0.4144014621112635  1.0000
  C   C5        1.0  0.4242322921043017  0.22380666040171437  0.5059574003799918  1.0000
  C   C6        1.0  0.34646265661961717  0.17863840323415614  0.4918026745104893  1.0000
  C   C7        1.0  0.2842930091208883  0.26039226648173175  0.5177408755418742  1.0000
  C   C8        1.0  0.2109724088183751  0.2175794905919477  0.5043582494463423  1.0000
  C   C9        1.0  0.1477529107382063  0.3020247983966504  0.5306604342465739  1.0000
  N   N2        1.0  0.0969374220531156  0.36991298323244215  0.5518066641494253  1.0000
  C   C10       1.0  0.19923788788050273  0.09275485935612093  0.46501206278700824  1.0000
  C   C11       1.0  0.2605501645711486  0.010987145574737456  0.43906547302828147  1.0000
  C   C12       1.0  0.3337513034313578  0.053405418128959825  0.4522455806297596  1.0000
  C   C13       1.0  0.4430179108367702  0.2956857430562372  0.6111613100254452  1.0000
  C   C14       1.0  0.5162490459966651  0.3381051034417659  0.6244019735433262  1.0000
  H   H1        1.0  0.5959389253433618  0.21555649030554314  0.3560989350740693  1.0000
  H   H2        1.0  0.46745066758594644  0.14175105585153336  0.3314954928146736  1.0000
  H   H3        1.0  0.2927985433460571  0.3578550912775924  0.5466174883165495  1.0000
  H   H4        1.0  0.1427700644197396  0.05871970580731878  0.45441743735633167  1.0000
  H   H5        1.0  0.251346407837767  0.9143448988125447  0.4089887525182143  1.0000
  H   H6        1.0  0.3803866778264634  0.9876616280277238  0.4331973761758341  1.0000
  H   H7        1.0  0.4013391870255446  0.31760860638135613  0.6841543207333485  1.0000
  H   H8        1.0  0.5296920264058724  0.39298426400756403  0.706266609333011  1.0000
  C   C15       1.0  0.9022343208606387  0.9977376599045549  0.5546458151728739  1.0000
  C   C16       1.0  0.9373824406935756  0.004621621791363939  0.4316532297060538  1.0000
  C   C17       1.0  0.9543650664080029  0.8910167943128029  0.36878497124716203  1.0000
  C   C18       1.0  0.9373830057794184  0.7693850119613455  0.4316040952670659  1.0000
  C   C19       1.0  0.9023061063245561  0.7605284342448234  0.5546903065453184  1.0000
  C   C20       1.0  0.8847735088702697  0.8752688389110106  0.6152783611058537  1.0000
  C   C21       1.0  0.9921196814784491  0.8980642392016664  0.23944429247986432  1.0000
  O   O1        1.0  0.03799038693884893  0.8079214444309888  0.21356473741005932  1.0000
  C   C22       1.0  0.9778384676136825  0.007314148710309887  0.13947042958116063  1.0000
  C   C23       1.0  0.9067024033113759  0.07008157056598696  0.1284092381674149  1.0000
  C   C24       1.0  0.893541517997238  0.17241023813170697  0.03271688059731104  1.0000
  N   N3        1.0  0.8212028163692147  0.23607652619211694  0.02257650660214061  1.0000
  C   C25       1.0  0.9515632144778682  0.211577320276648  0.9467505217042111  1.0000
  C   C26       1.0  0.022013598948557256  0.14867828472609923  0.9559661143858773  1.0000
  C   C27       1.0  0.03511605995639577  0.046776967590512974  0.051355188956381026  1.0000
  H   H9        1.0  0.8368634647061437  0.1919758627082544  0.7878885745247837  1.0000
  H   H10       1.0  0.9523239208627616  0.09844672337582483  0.38522255317514165  1.0000
  H   H11       1.0  0.95093385815408  0.6815681590356486  0.383718066230327  1.0000
  H   H12       1.0  0.8576843575945582  0.8692102943770788  0.7100852121365935  1.0000
  H   H13       1.0  0.8363109523444338  0.5364624179615292  0.7874538075447362  1.0000
  H   H14       1.0  0.861204843772934  0.038810904626479514  0.19302502794448184  1.0000
  H   H15       1.0  0.7775506102257622  0.20766881496894896  0.08615398933106988  1.0000
  H   H16       1.0  0.810783404395157  0.3122108621509576  0.951506866169928  1.0000
  H   H17       1.0  0.942098327476292  0.2904037648995874  0.8724188604895544  1.0000
  H   H18       1.0  0.06659076757806748  0.17895778538281681  0.8890320373865999  1.0000
  H   H19       1.0  0.0902142038768372  0.9995216969979396  0.05707300160826101  1.0000
  C   C28       1.0  0.9022843165239466  0.37926164903806914  0.1733808386893967  1.0000
  C   C29       1.0  0.936737028257855  0.5007379083869183  0.1619698008203978  1.0000
  C   C30       1.0  0.9542137495137059  0.5606410016944594  0.03933173524250311  1.0000
  C   C31       1.0  0.9368082905786486  0.5003306343263889  0.9268633193552493  1.0000
  C   C32       1.0  0.9022561441096496  0.37900440317156625  0.935955327440281  1.0000
  C   C33       1.0  0.8852284423949216  0.3190414726787483  0.05978023017980583  1.0000
  S   S1        1.0  0.9988968821942787  0.7150697958061853  0.026163055184869277  1.0000
  C   C34       1.0  0.09143448419606548  0.6408778947153533  0.027369781244311886  1.0000
  O   O2        1.0  0.12083311353839554  0.6163099973110482  0.9198768568457716  1.0000
  C   C35       1.0  0.1328402036837819  0.6075703705741133  0.15028500028765102  1.0000
  C   C36       1.0  0.19947816600795676  0.5306828183739878  0.14949529753602508  1.0000
  C   C37       1.0  0.2386312245249531  0.4979280191050808  0.26487115507854075  1.0000
  C   C38       1.0  0.21194373158340918  0.541543845516701  0.3822027589748098  1.0000
  C   C39       1.0  0.14611319526632793  0.6182343104782542  0.3843608741829432  1.0000
  C   C40       1.0  0.10673593448757734  0.6513739010263442  0.2692877339958115  1.0000
  H   H20       1.0  0.837234406719471  0.15041860047584166  0.4021986707924652  1.0000
  H   H21       1.0  0.9502373786817058  0.5490301013667009  0.24808900872571993  1.0000
  H   H22       1.0  0.950627036914234  0.5482761803380867  0.8326921364772657  1.0000
  H   H23       1.0  0.8586696013392175  0.22539163304623155  0.06765674670501975  1.0000
  H   H24       1.0  0.8893245394854232  0.3326965708775278  0.6120829652077253  1.0000
  H   H25       1.0  0.221175718585797  0.4951937549401024  0.05985628631517015  1.0000
  H   H26       1.0  0.289693216681973  0.43851891210378113  0.26327166077920916  1.0000
  H   H27       1.0  0.24232054464778785  0.5160510975893859  0.47141776672756275  1.0000
  H   H28       1.0  0.12558206370185854  0.6522809423861899  0.47533672933885907  1.0000
  H   H29       1.0  0.056244147668265354  0.711698124133024  0.2741061782290579  1.0000
  Zn  Zn1       1.0  0.8199514100614891  0.3830355379796173  0.5558775588033309  1.0000
  Zn  Zn2       1.0  0.9845818345381749  0.37523025153045664  0.5534580854495379  1.0000
  C   C41       1.0  0.9022592867119791  0.37387901919870514  0.791812118154178  1.0000
  C   C42       1.0  0.9022757557963339  0.3843883237896262  0.31752362721287986  1.0000
  C   C43       1.0  0.9022888703545111  0.6163466522190366  0.5495079015792756  1.0000
  C   C44       1.0  0.902246115827513  0.14191913297807712  0.5598279137461348  1.0000
  O   O3        1.0  0.9647492703148578  0.3831411509304341  0.3649810859428244  1.0000
  O   O4        1.0  0.964736455004137  0.3692011805677893  0.7425179613083794  1.0000
  O   O5        1.0  0.9647595019081044  0.5649969001281048  0.5468556045380586  1.0000
  O   O6        1.0  0.9647261672381524  0.1873454433573607  0.5606433461854783  1.0000
  O   O7        1.0  0.8398070211812282  0.5709203488176908  0.548692298886208  1.0000
  O   O8        1.0  0.8397839744232658  0.37512618971357004  0.744354586516994  1.0000
  O   O9        1.0  0.8397967898374107  0.3890661153407131  0.366816150081815  1.0000
  O   O10       1.0  0.8397736867531594  0.19327039844537497  0.5624785076709544  1.0000
