data_image0
_chemical_formula_structural       NC10NC3NCH9C6SCOC6H10C7OC6H10Zn2C4O8
_chemical_formula_sum              "N3 C44 H29 S1 O10 Zn2"
_cell_length_a       19.437513618241372
_cell_length_b       10.302038109246572
_cell_length_c       10.299382801718286
_cell_angle_alpha    85.57853228507349
_cell_angle_beta     90.32786270847616
_cell_angle_gamma    89.54061355658763

_space_group_name_H-M_alt    "P 1"
_space_group_IT_number       1

loop_
  _space_group_symop_operation_xyz
  'x, y, z'

loop_
  _atom_site_type_symbol
  _atom_site_label
  _atom_site_symmetry_multiplicity
  _atom_site_fract_x
  _atom_site_fract_y
  _atom_site_fract_z
  _atom_site_occupancy
  N   N1        1.0  0.6483419523176351  0.4098718286738341  0.5759263269202444  1.0000
  C   C1        1.0  0.5894119550314411  0.4268772623961916  0.5729539155268137  1.0000
  C   C2        1.0  0.5159756506901696  0.4481239979288103  0.5692644030435838  1.0000
  C   C3        1.0  0.4741974715624565  0.3469576777509671  0.5575836783453194  1.0000
  C   C4        1.0  0.398310244918416  0.35701902858069756  0.5503644579894891  1.0000
  C   C5        1.0  0.3587407596883538  0.43785575430225165  0.6161241301455629  1.0000
  C   C6        1.0  0.2825582197166159  0.429248574613746  0.6076781995462077  1.0000
  C   C7        1.0  0.24940088486719303  0.3079346358024708  0.6122958801975433  1.0000
  C   C8        1.0  0.1776660888490777  0.30156356967168896  0.6051264682924558  1.0000
  C   C9        1.0  0.1381178707817064  0.41603391935548695  0.5937015075606034  1.0000
  C   C10       1.0  0.0642685661648595  0.4093247366257542  0.5863639325530869  1.0000
  N   N2        1.0  0.0048988233214411  0.4039311436860449  0.5804649807778957  1.0000
  C   C11       1.0  0.1705584552745106  0.5370374542935303  0.5898290376665514  1.0000
  C   C12       1.0  0.2422776915542543  0.5436624559626466  0.5970605248307843  1.0000
  C   C13       1.0  0.3874285393526246  0.5301283455672718  0.7060636695720315  1.0000
  N   N3        1.0  0.444427428975472  0.5933227561929026  0.685672852659778  1.0000
  C   C14       1.0  0.4882813320618889  0.5840508889852285  0.5725632801893845  1.0000
  H   H1        1.0  0.49656632430298486  0.25192374996354805  0.5454423327382794  1.0000
  H   H2        1.0  0.3735914467294436  0.2875174568002896  0.49203157337314285  1.0000
  H   H3        1.0  0.2788339434765436  0.21804648621436273  0.6232976854796821  1.0000
  H   H4        1.0  0.1530554209080199  0.20736126803648247  0.6089936808843295  1.0000
  H   H5        1.0  0.14043969678978763  0.6262711228613345  0.5811392424270787  1.0000
  H   H6        1.0  0.2664069124649166  0.6382774524291543  0.5931779398885744  1.0000
  H   H7        1.0  0.357417897736304  0.5505184447818023  0.79043467572788  1.0000
  H   H8        1.0  0.5310455704818021  0.6543464374735533  0.5783415776357357  1.0000
  H   H9        1.0  0.4586310245910113  0.6121423202552216  0.4819236232329347  1.0000
  C   C15       1.0  0.8265585305293581  0.02562404496954418  0.5781547258838631  1.0000
  C   C16       1.0  0.7677573395775111  0.03135840834725645  0.4978868455715262  1.0000
  C   C17       1.0  0.738824016932286  0.9172475948209893  0.45746908360943284  1.0000
  C   C18       1.0  0.7679786384289984  0.796222112728576  0.4978356565047901  1.0000
  C   C19       1.0  0.8266888587324702  0.7881687882236021  0.5782479590325591  1.0000
  C   C20       1.0  0.8557114547960673  0.9035272937014651  0.6179059687207757  1.0000
  S   S1        1.0  0.6641864784593275  0.9260068607619222  0.3539101584942601  1.0000
  C   C21       1.0  0.7147943536962328  0.9336306755480689  0.20813272149667195  1.0000
  O   O1        1.0  0.7313916594404395  0.8280777103727515  0.16199405227059582  1.0000
  C   C22       1.0  0.7374962946280781  0.05940632025200765  0.14292429653636396  1.0000
  C   C23       1.0  0.7861571304661716  0.060915782022280096  0.04203741176085063  1.0000
  C   C24       1.0  0.80827980814357  0.1788717829344053  0.9805960633076007  1.0000
  C   C25       1.0  0.7821140550951939  0.2965518756663108  0.018764173459710376  1.0000
  C   C26       1.0  0.733660370614577  0.2965112918259618  0.11830065416503843  1.0000
  C   C27       1.0  0.7113083145588944  0.17886281041291552  0.1800592546575781  1.0000
  H   H10       1.0  0.9373121789553865  0.22212082877007777  0.729618018537161  1.0000
  H   H11       1.0  0.744355928547021  0.12426451684229511  0.4663132375821071  1.0000
  H   H12       1.0  0.7447989620178964  0.7088509017222792  0.46577634109244137  1.0000
  H   H13       1.0  0.9010433271750216  0.8981861836790453  0.6797838269090193  1.0000
  H   H14       1.0  0.8491305137332131  0.4577903306909997  0.6085001326327855  1.0000
  H   H15       1.0  0.8074452486780753  0.9709907426758776  0.01101088967887942  1.0000
  H   H16       1.0  0.8458234690977925  0.1789852208986309  0.9033765400935216  1.0000
  H   H17       1.0  0.7993195558841106  0.38776070124684003  0.9711090094252635  1.0000
  H   H18       1.0  0.713274249343146  0.387803861844197  0.14757800801329557  1.0000
  H   H19       1.0  0.6733618360942633  0.1821435811303893  0.2561413149555447  1.0000
  C   C28       1.0  0.8266923015004302  0.4068220613983615  0.19683240526630263  1.0000
  C   C29       1.0  0.8989716348940489  0.4064810454352459  0.19644891511604623  1.0000
  C   C30       1.0  0.9354270267557458  0.40482132813198923  0.07919719616428122  1.0000
  C   C31       1.0  0.8988039856482489  0.4065118687666742  0.9612012157459113  1.0000
  C   C32       1.0  0.8265550372138081  0.40697076905144014  0.9595702097324632  1.0000
  C   C33       1.0  0.7909182310821503  0.4067785648469684  0.07795692151133182  1.0000
  C   C34       1.0  0.01174484406766263  0.4058448786882416  0.07854044799373194  1.0000
  O   O2        1.0  0.042068978896683706  0.46603404450322694  0.9844068840848497  1.0000
  C   C35       1.0  0.05366161614130971  0.3385791571622607  0.18457218792391505  1.0000
  C   C36       1.0  0.11833704647224774  0.3879493406552983  0.21650293254403863  1.0000
  C   C37       1.0  0.15857647754493587  0.32436001158766103  0.31526200448266195  1.0000
  C   C38       1.0  0.13498287178858015  0.21047677705030532  0.3823118926629492  1.0000
  C   C39       1.0  0.07121950812832312  0.15964477910467867  0.35036956531904284  1.0000
  C   C40       1.0  0.03078402074309916  0.22285875263295063  0.25171001297749096  1.0000
  H   H20       1.0  0.6902907233064878  0.4094768186549582  0.4047208979429673  1.0000
  H   H21       1.0  0.9270005668170279  0.4089638152644002  0.28740490084907266  1.0000
  H   H22       1.0  0.9268395054950608  0.40621606646819974  0.870606624741916  1.0000
  H   H23       1.0  0.7351963110704209  0.40704226097651053  0.07744832832095194  1.0000
  H   H24       1.0  0.798800366614162  0.40825176959960086  0.6314019734631677  1.0000
  H   H25       1.0  0.13745313525460623  0.4762827531028784  0.165821433016053  1.0000
  H   H26       1.0  0.2081073560567661  0.3634089996030987  0.33976997522670205  1.0000
  H   H27       1.0  0.16622851656354265  0.16134050415165557  0.45864718303475605  1.0000
  H   H28       1.0  0.05322321774400929  0.07083690917867225  0.40169402629730366  1.0000
  H   H29       1.0  0.9820787060569361  0.18051462271724827  0.22702593581651342  1.0000
  Zn  Zn1       1.0  0.7512365667984803  0.40815398839790706  0.5772435929113711  1.0000
  Zn  Zn2       1.0  0.9020042113077736  0.4056383190547319  0.5791583833556784  1.0000
  C   C41       1.0  0.8265785851576075  0.4017702425075267  0.8153958147366487  1.0000
  C   C42       1.0  0.8266638395836435  0.4120236757251172  0.3410063101065466  1.0000
  C   C43       1.0  0.8266615945778367  0.6440306410885015  0.5730550966697867  1.0000
  C   C44       1.0  0.8265807784379352  0.16976171808807883  0.5833470965679863  1.0000
  O   O3        1.0  0.8838698218955247  0.41280903722410156  0.39011904191806357  1.0000
  O   O4        1.0  0.883801756402343  0.399074566625524  0.7677359906013606  1.0000
  O   O5        1.0  0.8838680160232208  0.5947029154134151  0.5720441365308249  1.0000
  O   O6        1.0  0.8838035108469701  0.2171806985636462  0.585810797961676  1.0000
  O   O7        1.0  0.7694372158096876  0.5966116097488796  0.5705911776451182  1.0000
  O   O8        1.0  0.769370956464693  0.40098482087693865  0.7662829626608214  1.0000
  O   O9        1.0  0.7694390222768404  0.4147192459252498  0.3886644525718539  1.0000
  O   O10       1.0  0.769372711206366  0.21909089799724524  0.5843563059821351  1.0000
