data_image0
_chemical_formula_structural       NC10NC3NH7C7OC3OC4H12C7OC3OC4H12Zn2C4O8
_chemical_formula_sum              "N3 C45 H31 O12 Zn2"
_cell_length_a       19.210446455230148
_cell_length_b       10.299371110280156
_cell_length_c       10.299374482448636
_cell_angle_alpha    85.56563777426875
_cell_angle_beta     89.97251480092041
_cell_angle_gamma    89.9600477448761

_space_group_name_H-M_alt    "P 1"
_space_group_IT_number       1

loop_
  _space_group_symop_operation_xyz
  'x, y, z'

loop_
  _atom_site_type_symbol
  _atom_site_label
  _atom_site_symmetry_multiplicity
  _atom_site_fract_x
  _atom_site_fract_y
  _atom_site_fract_z
  _atom_site_occupancy
  N   N1        1.0  0.6558818645490122  0.4205350446711511  0.567789778993262  1.0000
  C   C1        1.0  0.595653368442584  0.42274247943754073  0.5680217361672153  1.0000
  C   C2        1.0  0.5208489949111326  0.42547929437889476  0.5683091029175888  1.0000
  C   C3        1.0  0.4852404097000292  0.5417048030299225  0.58346357155819  1.0000
  C   C4        1.0  0.4125749437121225  0.5418563520714428  0.583411027598036  1.0000
  C   C5        1.0  0.3756822549911824  0.42618823217840585  0.568395846254333  1.0000
  C   C6        1.0  0.298360097123822  0.42483180815667354  0.5682447569145381  1.0000
  C   C7        1.0  0.2606192024895223  0.5284174616391739  0.5049186430281614  1.0000
  C   C8        1.0  0.1878408106213366  0.5270152723674812  0.5048090560982654  1.0000
  C   C9        1.0  0.1518019196034022  0.4222849498022563  0.567974678198758  1.0000
  C   C10       1.0  0.076872370992102  0.4209829157740068  0.5678373723278285  1.0000
  N   N2        1.0  0.016634495707815403  0.4199360361980913  0.5677270132685097  1.0000
  C   C11       1.0  0.1888191651755386  0.31882499395016506  0.6312758285042279  1.0000
  C   C12       1.0  0.2615993882279717  0.3199529051367198  0.6314355632184487  1.0000
  C   C13       1.0  0.4139007277602632  0.31178288793530506  0.5535302121576389  1.0000
  N   N3        1.0  0.484670741770003  0.31422779610401164  0.5536966679906092  1.0000
  H   H1        1.0  0.5133429216502741  0.6311344403996091  0.5955448480567289  1.0000
  H   H2        1.0  0.3853074547792328  0.6318674918625962  0.5968872814589874  1.0000
  H   H3        1.0  0.2873568205927857  0.6096830505537407  0.45395596340798017  1.0000
  H   H4        1.0  0.1597045126050471  0.6074528240578694  0.4551765100082652  1.0000
  H   H5        1.0  0.1614421106126622  0.23742408051163988  0.6808085370277335  1.0000
  H   H6        1.0  0.2890906091751138  0.2396341700369522  0.6825059228175869  1.0000
  H   H7        1.0  0.3876339979138181  0.22090884781586784  0.5400073964756833  1.0000
  C   C14       1.0  0.8362145945042313  0.03886425750126965  0.5676435990991577  1.0000
  C   C15       1.0  0.8282173471730343  0.04819884472838876  0.4316569983613048  1.0000
  C   C16       1.0  0.8233974363673605  0.9357212969970776  0.36323744931220014  1.0000
  C   C17       1.0  0.8282518460252385  0.8129308291039028  0.4319680849361276  1.0000
  C   C18       1.0  0.836308418906966  0.8015968626711641  0.5678844401427972  1.0000
  C   C19       1.0  0.8400609192295077  0.9151612757363377  0.6349734436564287  1.0000
  C   C20       1.0  0.8156788668401606  0.9454487721265202  0.21948871995382335  1.0000
  O   O1        1.0  0.844224216598416  0.8603786128205256  0.1554594526874329  1.0000
  C   C21       1.0  0.7755692907000609  0.05160225098199378  0.14838335232015365  1.0000
  C   C22       1.0  0.7950478697010659  0.09676173019114676  0.021234710112096655  1.0000
  C   C23       1.0  0.757408417438344  0.19585485171519101  0.9518589881949722  1.0000
  O   O2        1.0  0.779654049059336  0.2376568325680204  0.8257545972959304  1.0000
  C   C24       1.0  0.7464870650790364  0.33721736481375664  0.744323652049053  1.0000
  C   C25       1.0  0.6990058889208098  0.2497959947745274  0.01035847946730617  1.0000
  C   C26       1.0  0.678812913182462  0.20434824284436215  0.1359901548329261  1.0000
  C   C27       1.0  0.7165760230740051  0.10553640483664761  0.20461366167350215  1.0000
  H   H8        1.0  0.8523685184161425  0.22858665919964904  0.8240391913076393  1.0000
  H   H9        1.0  0.8265027442622083  0.14314940258712916  0.37862645501888936  1.0000
  H   H10       1.0  0.8250603239796167  0.7260889792086895  0.3792450733783266  1.0000
  H   H11       1.0  0.8462266589756168  0.907161190979286  0.7398091486979155  1.0000
  H   H12       1.0  0.8399824191820279  0.4697946348408497  0.6199717715546513  1.0000
  H   H13       1.0  0.8400625620762359  0.05580231773948041  0.9758530736149846  1.0000
  H   H14       1.0  0.7748987685963856  0.3502848629665054  0.6504458318993258  1.0000
  H   H15       1.0  0.7475046098844051  0.43066059722737404  0.7913435318971103  1.0000
  H   H16       1.0  0.6919385267934426  0.30907955458553804  0.7245685042332033  1.0000
  H   H17       1.0  0.6687786372465223  0.3263581566151772  0.9594741902596966  1.0000
  H   H18       1.0  0.6335353447016393  0.24546980240284078  0.18015007895879176  1.0000
  H   H19       1.0  0.6991949198715139  0.0703928748387792  0.30099740721524215  1.0000
  C   C28       1.0  0.8363259984399639  0.4203179383381177  0.1863814908645529  1.0000
  C   C29       1.0  0.9090372768312721  0.4348616129750149  0.18400209707698845  1.0000
  C   C30       1.0  0.9456230837077985  0.44366858090305206  0.06551468886012501  1.0000
  C   C31       1.0  0.9088708824990144  0.434798018128705  0.9487632551088869  1.0000
  C   C32       1.0  0.8361969984326436  0.4201431585292563  0.9491464854636713  1.0000
  C   C33       1.0  0.8003254086599543  0.4133289793106407  0.06846187380665758  1.0000
  C   C34       1.0  0.02248269999431529  0.45766703841872025  0.06296676419032621  1.0000
  O   O3        1.0  0.05662717859602018  0.4040680433219048  0.9770967860390272  1.0000
  C   C35       1.0  0.06060418229631814  0.5324855017196335  0.15775159916266746  1.0000
  C   C36       1.0  0.12851344782700802  0.49565472430185253  0.1958924722394222  1.0000
  C   C37       1.0  0.16570342814211458  0.5658573825094912  0.28411152710498233  1.0000
  O   O4        1.0  0.23304670259686056  0.5238531629337391  0.3193798201964384  1.0000
  C   C38       1.0  0.27666776810564775  0.5856517358909559  0.40778409368680757  1.0000
  C   C39       1.0  0.13459940435674667  0.6752961763013148  0.3340661339847657  1.0000
  C   C40       1.0  0.06750303075267206  0.7134588235148551  0.29541498618248596  1.0000
  C   C41       1.0  0.0307147874132514  0.6430224879248092  0.20743682039712996  1.0000
  H   H20       1.0  0.6992296198552264  0.39088450036125066  0.39834697759701965  1.0000
  H   H21       1.0  0.9373884953629911  0.4379065402355835  0.2745894211383253  1.0000
  H   H22       1.0  0.9370618642722636  0.440606819301294  0.8573665870945382  1.0000
  H   H23       1.0  0.74427032528919  0.4021160173118121  0.06949249686682246  1.0000
  H   H24       1.0  0.8083444433438773  0.413429806797488  0.6219204174267152  1.0000
  H   H25       1.0  0.15264359277224648  0.4113021619772268  0.15798314226398347  1.0000
  H   H26       1.0  0.32676757205108053  0.5322110946297751  0.41771721516389815  1.0000
  H   H27       1.0  0.2515314809094258  0.5838925249718798  0.5050226031629264  1.0000
  H   H28       1.0  0.2873821072323588  0.6876401795538287  0.37015289816693886  1.0000
  H   H29       1.0  0.16188417673408395  0.7316888717427983  0.4022701587566151  1.0000
  H   H30       1.0  0.044026697630368705  0.7982993523508581  0.33335328784967655  1.0000
  H   H31       1.0  0.9792442658016006  0.6758348810291193  0.1772319395748181  1.0000
  Zn  Zn1       1.0  0.7599872786818269  0.420358717971808  0.5677791644019128  1.0000
  Zn  Zn2       1.0  0.9125290625346586  0.42010177784704483  0.5677482606751805  1.0000
  C   C42       1.0  0.83621919943973  0.41500249739935513  0.8049659715795776  1.0000
  C   C43       1.0  0.8362988077082891  0.4254596342142951  0.3305615811484228  1.0000
  C   C44       1.0  0.8362879704662846  0.657425347284279  0.5626635457410867  1.0000
  C   C45       1.0  0.836229984426256  0.18303522408889128  0.5728640757459105  1.0000
  O   O5        1.0  0.8941784935474117  0.42708206110533786  0.3789380069569446  1.0000
  O   O6        1.0  0.8941151979110054  0.4131840792558674  0.7565657163888218  1.0000
  O   O7        1.0  0.8941699507874312  0.6089435973983546  0.5609047937788363  1.0000
  O   O8        1.0  0.8941236886364182  0.2313225523631186  0.574598832202267  1.0000
  O   O9        1.0  0.7783926005250442  0.609137943544831  0.5609285928785417  1.0000
  O   O10       1.0  0.778337847849074  0.4133799857319205  0.7565894467332452  1.0000
  O   O11       1.0  0.7784011437902676  0.42727792268283227  0.3789601758306824  1.0000
  O   O12       1.0  0.7783463388588188  0.23151840462944207  0.5746210984443827  1.0000
