data_image0
_chemical_formula_structural       NC12NC2H8C7OC4NC3H9C7OC3FC3H9Zn2C4O8
_chemical_formula_sum              "N3 C45 H26 O10 F1 Zn2"
_cell_length_a       19.240039667572717
_cell_length_b       10.299371701877257
_cell_length_c       10.29938172300155
_cell_angle_alpha    85.59571719418345
_cell_angle_beta     89.98344622294188
_cell_angle_gamma    90.00851160782973

_space_group_name_H-M_alt    "P 1"
_space_group_IT_number       1

loop_
  _space_group_symop_operation_xyz
  'x, y, z'

loop_
  _atom_site_type_symbol
  _atom_site_label
  _atom_site_symmetry_multiplicity
  _atom_site_fract_x
  _atom_site_fract_y
  _atom_site_fract_z
  _atom_site_occupancy
  N   N1        1.0  0.6548115884991503  0.42091205693977707  0.5680048097088686  1.0000
  C   C1        1.0  0.5946632197012133  0.42091214090033957  0.5680047278046692  1.0000
  C   C2        1.0  0.5198451825906024  0.42091225815129096  0.5680045905457989  1.0000
  C   C3        1.0  0.4833503550039296  0.3564731867556925  0.6713912761110392  1.0000
  C   C4        1.0  0.4106795847100255  0.3563623272454983  0.6714777751202763  1.0000
  C   C5        1.0  0.37351294769583415  0.42091235065855903  0.5680043629007645  1.0000
  C   C6        1.0  0.4107219890536329  0.4854625611083081  0.4645311452935752  1.0000
  C   C7        1.0  0.4833926552857947  0.4853514661291771  0.4646177667117284  1.0000
  C   C8        1.0  0.2963078572647106  0.4209122719727487  0.56800426745508  1.0000
  C   C9        1.0  0.2591045734075227  0.30766180793437936  0.6098308002664057  1.0000
  C   C10       1.0  0.1864339076402037  0.30776868518878686  0.609739516741489  1.0000
  C   C11       1.0  0.1499755703218301  0.42091214281499867  0.5680043283149063  1.0000
  C   C12       1.0  0.07515753311938758  0.4209120291352375  0.5680045769305269  1.0000
  N   N2        1.0  0.0150092162318155  0.42091198836474875  0.5680047853332024  1.0000
  C   C13       1.0  0.1864647438742736  0.5340556762555755  0.5262690870272559  1.0000
  C   C14       1.0  0.2591354627484255  0.5341627335900245  0.5261776409784291  1.0000
  H   H1        1.0  0.5110487695275427  0.30658322888524037  0.7521128273490232  1.0000
  H   H2        1.0  0.38356971743076235  0.30727074154704903  0.7533151392928592  1.0000
  H   H3        1.0  0.3836453255547802  0.5345541738463035  0.3826937302832778  1.0000
  H   H4        1.0  0.5111240121746489  0.5352413238071463  0.38389649122911984  1.0000
  H   H5        1.0  0.2861859438863416  0.2185140779104271  0.6409636173185318  1.0000
  H   H6        1.0  0.15870707268084086  0.21952040158634545  0.6419056463118631  1.0000
  H   H7        1.0  0.1587617553816467  0.6223039353247908  0.49410297199771636  1.0000
  H   H8        1.0  0.2862405711000314  0.6233105427794345  0.4950447791857364  1.0000
  C   C15       1.0  0.8348774052881834  0.03954156676727427  0.5678777887240185  1.0000
  C   C16       1.0  0.8382753952217615  0.04884730283258265  0.4312162234724273  1.0000
  C   C17       1.0  0.8392000682376963  0.9363719299129459  0.362225521335682  1.0000
  C   C18       1.0  0.8382839438989979  0.8135790687240754  0.4315336116133346  1.0000
  C   C19       1.0  0.8349500724577396  0.8022724929575884  0.5681429943043215  1.0000
  C   C20       1.0  0.8330832329114645  0.9158551376206873  0.6355088319060691  1.0000
  C   C21       1.0  0.8435180335343507  0.9460544025235718  0.21797904705528204  1.0000
  O   O1        1.0  0.876977818627803  0.8602934429034894  0.16303451150163095  1.0000
  C   C22       1.0  0.8098662566866057  0.052946613880096915  0.13606886312929922  1.0000
  C   C23       1.0  0.8396514965918712  0.09756003887888465  0.016101509166900785  1.0000
  C   C24       1.0  0.8078322839747384  0.1974429929020507  0.937312652602611  1.0000
  C   C25       1.0  0.8389662107488152  0.24323990650991223  0.8151592025274867  1.0000
  N   N3        1.0  0.8639964997605318  0.28005100015478535  0.7169655425710775  1.0000
  C   C26       1.0  0.7457090904977667  0.25263176407943777  0.9774835255675427  1.0000
  C   C27       1.0  0.7153374042299433  0.20780726483591194  0.09571137216809555  1.0000
  C   C28       1.0  0.7469570625083866  0.10822178234369972  0.17448883143118143  1.0000
  H   H9        1.0  0.8295338021335001  0.22929556345092705  0.8258595134869342  1.0000
  H   H10       1.0  0.840985322968999  0.14375743081482906  0.37833088674143367  1.0000
  H   H11       1.0  0.8395118964852956  0.726727908116261  0.37852264187681883  1.0000
  H   H12       1.0  0.8304640111881706  0.9078772034850809  0.7408651578627907  1.0000
  H   H13       1.0  0.8342543291641819  0.47046861989695615  0.6206669854233295  1.0000
  H   H14       1.0  0.8878557955352769  0.055460761698499006  0.9845253799558704  1.0000
  H   H15       1.0  0.7206631780246949  0.3298325019049275  0.9172455077057031  1.0000
  H   H16       1.0  0.6670146068879264  0.24992243073608655  0.1261345233025144  1.0000
  H   H17       1.0  0.7218334293910111  0.07353509089560828  0.2646429731382489  1.0000
  C   C29       1.0  0.834972238403794  0.4208058992892221  0.18664269147875  1.0000
  C   C30       1.0  0.8569543697012557  0.2903511793135114  0.19545856967509367  1.0000
  C   C31       1.0  0.868796664716205  0.2250096580454377  0.08269644210951976  1.0000
  C   C32       1.0  0.8568879225875342  0.2906443139990029  0.9601926215934711  1.0000
  C   C33       1.0  0.8348552130911397  0.4210081453783623  0.949378117378783  1.0000
  C   C34       1.0  0.8242000613409071  0.48543853345270205  0.063192617274622  1.0000
  C   C35       1.0  0.8913047826943964  0.08684094364542139  0.09189369030849615  1.0000
  O   O2        1.0  0.8698909876877398  0.013596700693085717  0.007686968526140481  1.0000
  C   C36       1.0  0.9381105223248551  0.03176772599176658  0.19651974837190922  1.0000
  C   C37       1.0  0.9324989568895276  0.8998066226315931  0.24174701343881666  1.0000
  C   C38       1.0  0.9769371987837044  0.8465993858181358  0.3392849752170213  1.0000
  F   F1        1.0  0.9707704526868474  0.7195319664783709  0.3829095928345274  1.0000
  C   C39       1.0  0.027705681940394022  0.9242231108853829  0.39177988193743385  1.0000
  C   C40       1.0  0.03431802997644895  0.054978763833663846  0.3464871391410995  1.0000
  C   C41       1.0  0.9900176505058386  0.10859777175736407  0.24902029637922518  1.0000
  H   H18       1.0  0.7924682380849478  0.6663765568176161  0.3773734722218851  1.0000
  H   H19       1.0  0.8641501152902604  0.23896060924737483  0.2902462894112481  1.0000
  H   H20       1.0  0.8654976702861515  0.24009473155234407  0.8731492372087208  1.0000
  H   H21       1.0  0.8072531499001085  0.5860091004332979  0.05559217663783955  1.0000
  H   H22       1.0  0.8258310672230554  0.47074944760847437  0.6177932520715363  1.0000
  H   H23       1.0  0.89333977415616  0.8382902436414637  0.2023526833879552  1.0000
  H   H24       1.0  0.0621280995980813  0.8830145987651165  0.4671822314373255  1.0000
  H   H25       1.0  0.07402241221230943  0.11474740182693921  0.38651978537605447  1.0000
  H   H26       1.0  0.9968606025622879  0.20955687630900166  0.21379467624714166  1.0000
  Zn  Zn1       1.0  0.7587568508582708  0.4209085719202095  0.5680122898710256  1.0000
  Zn  Zn2       1.0  0.9110639700086982  0.4209048826719488  0.5680079003536862  1.0000
  C   C42       1.0  0.8348753084686701  0.41579624499291534  0.8052029732132078  1.0000
  C   C43       1.0  0.8349471757238622  0.42601884821900193  0.3308173449993854  1.0000
  C   C44       1.0  0.834933551447183  0.6580987555147901  0.5629177131969572  1.0000
  C   C45       1.0  0.8348888806143046  0.18371477740782938  0.5731026737130067  1.0000
  O   O3        1.0  0.8927385218821167  0.427761295685787  0.3792020080036309  1.0000
  O   O4        1.0  0.8926815415627538  0.4140500176464357  0.7568146044813593  1.0000
  O   O5        1.0  0.8927277941289583  0.6097123596033289  0.5611675433018171  1.0000
  O   O6        1.0  0.8926922173596316  0.23209896299458865  0.5748489718135434  1.0000
  O   O7        1.0  0.7771285515323938  0.6097144916002406  0.5611712184058353  1.0000
  O   O8        1.0  0.777082299122291  0.4140537099353163  0.7568182108826746  1.0000
  O   O9        1.0  0.7771392797230807  0.4277649423044285  0.3792040529934868  1.0000
  O   O10       1.0  0.7770929751819329  0.23210260035020625  0.5748511141676971  1.0000
