data_image0
_chemical_formula_structural       NC11NC3H8C7OC6OCH12C7OC3FC3H9Zn2C4O8
_chemical_formula_sum              "N2 C45 H29 O11 F1 Zn2"
_cell_length_a       17.807433833752565
_cell_length_b       10.299359160628079
_cell_length_c       10.29938172300155
_cell_angle_alpha    85.58141560917656
_cell_angle_beta     88.50784037207825
_cell_angle_gamma    90.7076958246699

_space_group_name_H-M_alt    "P 1"
_space_group_IT_number       1

loop_
  _space_group_symop_operation_xyz
  'x, y, z'

loop_
  _atom_site_type_symbol
  _atom_site_label
  _atom_site_symmetry_multiplicity
  _atom_site_fract_x
  _atom_site_fract_y
  _atom_site_fract_z
  _atom_site_occupancy
  N   N1        1.0  0.7079874846684638  0.4381370266161593  0.5348020153946398  1.0000
  C   C1        1.0  0.6571490133157433  0.40342656945275657  0.6013607338521114  1.0000
  C   C2        1.0  0.5939008313884356  0.36024962109398584  0.6841512856318508  1.0000
  C   C3        1.0  0.6055930389785813  0.29672941393230956  0.8068630578203844  1.0000
  C   C4        1.0  0.5442530152983933  0.2552316958709231  0.8873698540996382  1.0000
  C   C5        1.0  0.4710662584088873  0.2769410736110167  0.8458056409959227  1.0000
  C   C6        1.0  0.4583973689966343  0.3406157173683697  0.7226336882791375  1.0000
  C   C7        1.0  0.380643158659  0.36365453146721083  0.678288964220964  1.0000
  C   C8        1.0  0.361876972117213  0.34674828602113195  0.5487072096256871  1.0000
  C   C9        1.0  0.2886602709663735  0.3684189232991326  0.507098921217128  1.0000
  C   C10       1.0  0.23326689134893863  0.40731412988509197  0.5942521471407018  1.0000
  C   C11       1.0  0.157913845425607  0.42964289780899656  0.5512826336379317  1.0000
  N   N2        1.0  0.0973353690461633  0.4475935683585923  0.5167382720909948  1.0000
  C   C12       1.0  0.2513416506022221  0.424430820538914  0.7233027900252096  1.0000
  C   C13       1.0  0.3245055399262503  0.4027253184578248  0.7651665036535129  1.0000
  C   C14       1.0  0.5205947008034043  0.38210887462475496  0.6421433073320186  1.0000
  H   H1        1.0  0.6620493014562315  0.27932310528059556  0.840226773688648  1.0000
  H   H2        1.0  0.5534240567448802  0.2058026129737789  0.9821008145447361  1.0000
  H   H3        1.0  0.42440854366550623  0.24240053963787522  0.9092410999434974  1.0000
  H   H4        1.0  0.40355928056584645  0.3150878237282886  0.47998768327868224  1.0000
  H   H5        1.0  0.275232016722957  0.3545119255995459  0.40706323937950395  1.0000
  H   H6        1.0  0.20894235952530424  0.4548680908235143  0.7915074264130233  1.0000
  H   H7        1.0  0.3374057503864554  0.4181777184276845  0.865019586570424  1.0000
  H   H8        1.0  0.5121224144140819  0.4329004063691553  0.5476467990236535  1.0000
  C   C15       1.0  0.9025766155818283  0.06148493638039798  0.5257425668156541  1.0000
  C   C16       1.0  0.8404514729737375  0.06523469937531279  0.44422865483691254  1.0000
  C   C17       1.0  0.8096559909807963  0.9501541728339754  0.40199714527150077  1.0000
  C   C18       1.0  0.8406303828717165  0.829977598975007  0.44447545831739577  1.0000
  C   C19       1.0  0.9027534212399893  0.8242357975385279  0.5258086096781938  1.0000
  C   C20       1.0  0.9334725609330843  0.9405694268549144  0.5657581575036208  1.0000
  C   C21       1.0  0.7435359901636915  0.9562376800957648  0.3171320705520444  1.0000
  O   O1        1.0  0.6957919911324644  0.04395379977919167  0.33091358157732853  1.0000
  C   C22       1.0  0.7315769032506367  0.8628826445454828  0.21664031310432907  1.0000
  C   C23       1.0  0.7926941598422186  0.8110013408508274  0.14975017910593547  1.0000
  C   C24       1.0  0.7806348762744537  0.7242964712986049  0.05422871781717764  1.0000
  C   C25       1.0  0.7076566594676493  0.6886004750799939  0.022852148418939233  1.0000
  C   C26       1.0  0.6462867458440383  0.7415100721303389  0.0884422571576402  1.0000
  C   C27       1.0  0.6582773240729556  0.8282721745488835  0.18401332710619167  1.0000
  O   O2        1.0  0.6985735443073235  0.601127285833719  0.9263761216237243  1.0000
  C   C28       1.0  0.6277830953035682  0.5565516441572019  0.8847927631053212  1.0000
  H   H9        1.0  0.019610272847805144  0.26164236753876025  0.6799866511493005  1.0000
  H   H10       1.0  0.816295645668305  0.15796735521693606  0.41236487305889136  1.0000
  H   H11       1.0  0.8156953774042905  0.7407267791549736  0.4151811287677123  1.0000
  H   H12       1.0  0.9813938612100155  0.9368723572427211  0.6285030001297056  1.0000
  H   H13       1.0  0.9263920682207437  0.49452315975746447  0.5574297228676628  1.0000
  H   H14       1.0  0.8498070958609049  0.838482606185193  0.17023133947838143  1.0000
  H   H15       1.0  0.8283217682953228  0.684994313024513  0.003835451790316524  1.0000
  H   H16       1.0  0.5891426874228111  0.7163046080463649  0.06631793971419819  1.0000
  H   H17       1.0  0.6101707310597208  0.8675180684967527  0.23337531328696404  1.0000
  H   H18       1.0  0.6371739092673271  0.488364157002677  0.8078829414067608  1.0000
  H   H19       1.0  0.5947785635580204  0.6400870744529269  0.8438143592981575  1.0000
  H   H20       1.0  0.5962327844133788  0.5042374485046505  0.967791536509103  1.0000
  C   C29       1.0  0.9027282359903033  0.4427607817441155  0.14440495789046182  1.0000
  C   C30       1.0  0.9264725417038809  0.3128800905322091  0.15215189167358  1.0000
  C   C31       1.0  0.9392647978610574  0.24784792901415487  0.03881263244523847  1.0000
  C   C32       1.0  0.9264007548910126  0.3131714876608478  0.9168892007219993  1.0000
  C   C33       1.0  0.9026017660574167  0.4429599602516654  0.9071462006956761  1.0000
  C   C34       1.0  0.8910926094150997  0.5071121341244538  0.02147853122702359  1.0000
  C   C35       1.0  0.9635766638426667  0.11026687000534507  0.046916536123530195  1.0000
  O   O3        1.0  0.940420449472371  0.036458698524661104  0.963802485212363  1.0000
  C   C36       1.0  0.014163223337886555  0.05642118103969662  0.14920943047802893  1.0000
  C   C37       1.0  0.008080524248096799  0.9243096293114442  0.1947519474584125  1.0000
  C   C38       1.0  0.05610822854407149  0.8722678093557461  0.2900749959192903  1.0000
  F   F1        1.0  0.04942604928443828  0.7450354818191296  0.33404145274642705  1.0000
  C   C39       1.0  0.1109953234703438  0.9512262409283618  0.34000398594288406  1.0000
  C   C40       1.0  0.11815964162612547  0.08215858813810906  0.2943461115625958  1.0000
  C   C41       1.0  0.07028100978290341  0.13461580837205522  0.19908716280869454  1.0000
  H   H21       1.0  0.8568160876779842  0.6872213562772636  0.3372043288877997  1.0000
  H   H22       1.0  0.9342440076672441  0.26167722045247643  0.24659192486502102  1.0000
  H   H23       1.0  0.935700764239534  0.26284674813911946  0.8294270026653918  1.0000
  H   H24       1.0  0.8727871663695185  0.6072401591305299  0.014702183516911216  1.0000
  H   H25       1.0  0.8928537178354308  0.49246552086987827  0.5760011381635914  1.0000
  H   H26       1.0  0.9657443268485637  0.8617637141458943  0.1573372035843863  1.0000
  H   H27       1.0  0.14819818440796828  0.910920475427372  0.4136906342392259  1.0000
  H   H28       1.0  0.16108493552206227  0.14297103454420945  0.33237227825761084  1.0000
  H   H29       1.0  0.07769075613090215  0.2357569562612396  0.16349248622571677  1.0000
  Zn  Zn1       1.0  0.8203448714752809  0.4408625075014472  0.5295966935269842  1.0000
  Zn  Zn2       1.0  0.9849779632622797  0.44485747032526124  0.5219541791003033  1.0000
  C   C42       1.0  0.9026228163504956  0.4377484641015146  0.7629713850837387  1.0000
  C   C43       1.0  0.9027018165340019  0.4479731960524753  0.288579531696344  1.0000
  C   C44       1.0  0.902716985060539  0.6800582381241378  0.5206210780561595  1.0000
  C   C45       1.0  0.902607591273042  0.205661860334986  0.5309299104356964  1.0000
  O   O4        1.0  0.9651703489504259  0.4512329315693715  0.33406554083068474  1.0000
  O   O5        1.0  0.9651069910848457  0.43751983308098397  0.7116845104028169  1.0000
  O   O6        1.0  0.9651821910600296  0.6331880199449715  0.5159849620241916  1.0000
  O   O7        1.0  0.9650950928154155  0.255564752607244  0.5297649944428855  1.0000
  O   O8        1.0  0.8402276857409522  0.630155223857592  0.5217858807855864  1.0000
  O   O9        1.0  0.8401524861354918  0.4344885973265975  0.717485360053622  1.0000
  O   O10       1.0  0.8402158442993917  0.4482016501510533  0.33986482906762694  1.0000
  O   O11       1.0  0.8401405881430148  0.25253346192519266  0.5355643800474363  1.0000
