data_image0
_chemical_formula_structural       NC9NC5H8C7OC6OCH12C6NCOC6H11Zn2C4O8
_chemical_formula_sum              "N3 C45 H31 O11 Zn2"
_cell_length_a       17.807436237873137
_cell_length_b       10.299359160628079
_cell_length_c       10.299662537453274
_cell_angle_alpha    85.5452158657264
_cell_angle_beta     89.37814808442572
_cell_angle_gamma    88.41300836981586

_space_group_name_H-M_alt    "P 1"
_space_group_IT_number       1

loop_
  _space_group_symop_operation_xyz
  'x, y, z'

loop_
  _atom_site_type_symbol
  _atom_site_label
  _atom_site_symmetry_multiplicity
  _atom_site_fract_x
  _atom_site_fract_y
  _atom_site_fract_z
  _atom_site_occupancy
  N   N1        1.0  0.7079293297565938  0.38830356471136884  0.5572290162549947  1.0000
  C   C1        1.0  0.6473351526362285  0.3531174804784101  0.5462015371817046  1.0000
  C   C2        1.0  0.5719626561654771  0.30934986659318664  0.5324845505706084  1.0000
  C   C3        1.0  0.5538690152100012  0.2379726430444531  0.4274726731182228  1.0000
  C   C4        1.0  0.4806861959989849  0.19536619560799018  0.4140717225100836  1.0000
  C   C5        1.0  0.4245482162286456  0.22375944952104598  0.5056501613715811  1.0000
  C   C6        1.0  0.3467737600413816  0.1785946567638188  0.49149050833406216  1.0000
  C   C7        1.0  0.2846128065200776  0.26034224157009844  0.5174377021972099  1.0000
  C   C8        1.0  0.2112876335597726  0.2175327485814893  0.5040504138488568  1.0000
  C   C9        1.0  0.1480771640296255  0.30197158342473407  0.5303617725291181  1.0000
  N   N2        1.0  0.0972689335661918  0.3698545644202049  0.5515153778533879  1.0000
  C   C10       1.0  0.1995398129751206  0.09271769709730293  0.4646905569875288  1.0000
  C   C11       1.0  0.2608433946096614  0.010956262920148285  0.43873497193586375  1.0000
  C   C12       1.0  0.3340490718094815  0.05337128479197406  0.45191968023723983  1.0000
  C   C13       1.0  0.4433333462768711  0.2956309645688564  0.6108813199079406  1.0000
  C   C14       1.0  0.5165690139494078  0.33804707269227463  0.6241265983792601  1.0000
  H   H1        1.0  0.5962685044261936  0.21551357178826014  0.35575622521741734  1.0000
  H   H2        1.0  0.4677725151129366  0.14171383485804445  0.3311443857952414  1.0000
  H   H3        1.0  0.2931289071614014  0.3577976323564158  0.5463245555873224  1.0000
  H   H4        1.0  0.1430683499913335  0.058685152278470376  0.45409223556205713  1.0000
  H   H5        1.0  0.2516293028662684  0.9143214234403587  0.40864775824596467  1.0000
  H   H6        1.0  0.3806772761045875  0.9876324986207075  0.43286466902662357  1.0000
  H   H7        1.0  0.4016504360800243  0.317550503326699  0.6838922437518211  1.0000
  H   H8        1.0  0.530011469039424  0.3929204171227474  0.7060124005189297  1.0000
  C   C15       1.0  0.902514319521674  0.9977048182666518  0.554341974760302  1.0000
  C   C16       1.0  0.840387959723544  0.005960843500726787  0.47085564265118274  1.0000
  C   C17       1.0  0.8095918194646532  0.893115233795092  0.4276463640045758  1.0000
  C   C18       1.0  0.8405668734895575  0.770690758169874  0.47110812662469415  1.0000
  C   C19       1.0  0.9026911236516405  0.7604429601779265  0.5544136275165992  1.0000
  C   C20       1.0  0.9334108544771362  0.8745485958788348  0.595338474147524  1.0000
  C   C21       1.0  0.7434705800612569  0.9039935706228773  0.3406820760916289  1.0000
  O   O1        1.0  0.6957279448297539  0.9951242726837366  0.35294938389422814  1.0000
  C   C22       1.0  0.7315087076775871  0.8115598491986703  0.23980882158773964  1.0000
  C   C23       1.0  0.7926227368599017  0.7553388058193609  0.17485597530988173  1.0000
  C   C24       1.0  0.7805608193415705  0.6695592779210733  0.07894994447627335  1.0000
  C   C25       1.0  0.7075831094618447  0.6391158864538085  0.04525775039203772  1.0000
  C   C26       1.0  0.6462163891601472  0.6963841648570186  0.10890252913584386  1.0000
  C   C27       1.0  0.6582096041979962  0.7822258204171227  0.2048559902703755  1.0000
  O   O2        1.0  0.6984972724646735  0.5523552482056818  0.9484915413421824  1.0000
  C   C28       1.0  0.6277069798288164  0.5128818267691535  0.9046617393418313  1.0000
  H   H9        1.0  0.01955029038759437  0.18937274964905626  0.7123017921847925  1.0000
  H   H10       1.0  0.8162316540562548  0.1004457555224727  0.43822493041916744  1.0000
  H   H11       1.0  0.8156314824512727  0.6832464311584054  0.4410222048877057  1.0000
  H   H12       1.0  0.9813330896738593  0.8673756272044462  0.6596047742427662  1.0000
  H   H13       1.0  0.9263302519757226  0.4290153031528827  0.5867852604124415  1.0000
  H   H14       1.0  0.8497351535859315  0.7787119571073008  0.19714926260317256  1.0000
  H   H15       1.0  0.8282452472577696  0.6268698850146986  0.03006829032586955  1.0000
  H   H16       1.0  0.5890728012170301  0.675290089965991  0.08496506253187586  1.0000
  H   H17       1.0  0.6101054526080836  0.824889697347459  0.2526930291904197  1.0000
  H   H18       1.0  0.6370952933142441  0.44406984782502673  0.8280481672912567  1.0000
  H   H19       1.0  0.594701871433998  0.5988097710819424  0.8626355194438466  1.0000
  H   H20       1.0  0.5961597931490488  0.4627771336543902  0.9866614670386724  1.0000
  C   C29       1.0  0.9026544646276331  0.37921198944974943  0.17300105278782807  1.0000
  C   C30       1.0  0.9793509987115742  0.4079530025774971  0.16806468814722275  1.0000
  C   C31       1.0  0.018207737968516602  0.42053716686022025  0.04889120031390637  1.0000
  C   C32       1.0  0.9792194704061975  0.407649154805134  0.9329232916005652  1.0000
  C   C33       1.0  0.9025509922192044  0.37893581719350466  0.9357545002368375  1.0000
  C   C34       1.0  0.8647653869051601  0.3644317640414305  0.05635445063480615  1.0000
  N   N3        1.0  0.09644613671931723  0.4519161886855969  0.047262881312328586  1.0000
  C   C35       1.0  0.14960657533674926  0.409546226737604  0.9522658662948245  1.0000
  O   O3        1.0  0.13588158843552045  0.31163615057449223  0.8909061759376855  1.0000
  C   C36       1.0  0.22175165420198617  0.47645791008465777  0.9288635361355433  1.0000
  C   C37       1.0  0.23084465587875358  0.6041001833408375  0.9650963681697915  1.0000
  C   C38       1.0  0.29901343443564143  0.6664270066273328  0.9419117705515347  1.0000
  C   C39       1.0  0.3586357486481897  0.6025733876683057  0.8820560358804874  1.0000
  C   C40       1.0  0.3501526861374733  0.4763486282277265  0.8448084257275799  1.0000
  C   C41       1.0  0.2821118926326427  0.41355869785156085  0.8676620212189623  1.0000
  H   H21       1.0  0.7578062885084395  0.3262111865263202  0.38948575326843615  1.0000
  H   H22       1.0  0.00945348332380802  0.41974605843060586  0.25704459280873015  1.0000
  H   H23       1.0  0.00832090490384263  0.42223445858513076  0.8403845775794183  1.0000
  H   H24       1.0  0.8056433745381385  0.3422586177814104  0.059295682776189684  1.0000
  H   H25       1.0  0.872898802821329  0.3696136136931414  0.6092650317928783  1.0000
  H   H26       1.0  0.11695995000419379  0.4981490297019009  0.12588902264305535  1.0000
  H   H27       1.0  0.1852089540137043  0.6567990164038382  0.009544845549392944  1.0000
  H   H28       1.0  0.30549891870286094  0.7646014747334677  0.9699420312671294  1.0000
  H   H29       1.0  0.41132416589620746  0.6510560228795783  0.8641702724345155  1.0000
  H   H30       1.0  0.39634448178900716  0.42704083263026127  0.7981551393854369  1.0000
  H   H31       1.0  0.27691377326115263  0.31554585371236477  0.8382378525662753  1.0000
  Zn  Zn1       1.0  0.8202843262024039  0.3829761136952621  0.5555876942545455  1.0000
  Zn  Zn2       1.0  0.9849139150206955  0.3751714252532059  0.5531673756905935  1.0000
  C   C42       1.0  0.902567656242943  0.37381436320142236  0.7915773116310902  1.0000
  C   C43       1.0  0.9026323830926731  0.3843347291157355  0.3171778595071566  1.0000
  C   C44       1.0  0.9026545321331367  0.6162713080410822  0.5492248295990709  1.0000
  C   C45       1.0  0.9025454506548443  0.1418762265904714  0.5595304114586137  1.0000
  O   O4        1.0  0.9651010419967692  0.38308646293694193  0.36464641410018106  1.0000
  O   O5        1.0  0.9650490458061789  0.3691380718404651  0.7422714173047062  1.0000
  O   O6        1.0  0.9651183567956544  0.5649251605231422  0.5465700858885914  1.0000
  O   O7        1.0  0.965031674845733  0.18729938624307962  0.5603476489663959  1.0000
  O   O8        1.0  0.8401665101973689  0.5708481553701619  0.5484074217978481  1.0000
  O   O9        1.0  0.8400971995755304  0.3750626270378623  0.7441086841136293  1.0000
  O   O10       1.0  0.8401491960174604  0.3890109734407108  0.3664821194714458  1.0000
  O   O11       1.0  0.8400798288479874  0.19322388742280738  0.5621834517066651  1.0000
