data_image0
_chemical_formula_structural       NC9NC5H8C7OC3FC3H9C7OC3OC4H12Zn2C4O8
_chemical_formula_sum              "N2 C45 H29 O11 F1 Zn2"
_cell_length_a       17.807436237873137
_cell_length_b       10.29937835083307
_cell_length_c       10.299374482448636
_cell_angle_alpha    85.53885586126866
_cell_angle_beta     89.37372472773512
_cell_angle_gamma    88.41049276798935

_space_group_name_H-M_alt    "P 1"
_space_group_IT_number       1

loop_
  _space_group_symop_operation_xyz
  'x, y, z'

loop_
  _atom_site_type_symbol
  _atom_site_label
  _atom_site_symmetry_multiplicity
  _atom_site_fract_x
  _atom_site_fract_y
  _atom_site_fract_z
  _atom_site_occupancy
  N   N1        1.0  0.7079634239139903  0.38812569197358493  0.5568560860879535  1.0000
  C   C1        1.0  0.6473706126217719  0.35293739118620504  0.5458372092217882  1.0000
  C   C2        1.0  0.571999815091621  0.309167020148972  0.5321309228087248  1.0000
  C   C3        1.0  0.5539128168462644  0.23777362349193343  0.4271350202759918  1.0000
  C   C4        1.0  0.48073165374580173  0.19516448528645047  0.41374448513210926  1.0000
  C   C5        1.0  0.4245886980089084  0.22357120988372703  0.5053174583660094  1.0000
  C   C6        1.0  0.3468159952210862  0.17840357128295525  0.49116884701996866  1.0000
  C   C7        1.0  0.2846518531537282  0.26015635201550347  0.517096061274563  1.0000
  C   C8        1.0  0.2113283405640091  0.21734416638855913  0.5037192394103511  1.0000
  C   C9        1.0  0.1481146004768507  0.30178829897449777  0.530009951976357  1.0000
  N   N2        1.0  0.0973037406606365  0.3696755391430384  0.551146959272762  1.0000
  C   C10       1.0  0.1995853763106296  0.09252121792693568  0.46438989270076103  1.0000
  C   C11       1.0  0.2608921472186093  0.010754586378730613  0.4384542905712019  1.0000
  C   C12       1.0  0.3340961830592484  0.053172264883918796  0.45162862741843957  1.0000
  C   C13       1.0  0.44336716314412  0.29545893827253367  0.6105325222885545  1.0000
  C   C14       1.0  0.5166011865933536  0.3378777116077527  0.6237674301153082  1.0000
  H   H1        1.0  0.5963162082196013  0.21530399895131458  0.3554229085783378  1.0000
  H   H2        1.0  0.46782315307918704  0.14149940350233492  0.33082908506742825  1.0000
  H   H3        1.0  0.2931642484357673  0.3576176480277369  0.5459590594484469  1.0000
  H   H4        1.0  0.1431152312088946  0.05848653877718468  0.4537998926752349  1.0000
  H   H5        1.0  0.2516817972726565  0.9141136874264784  0.4083907054734788  1.0000
  H   H6        1.0  0.3807268666348161  0.9874295561805678  0.4325897154937768  1.0000
  H   H7        1.0  0.4016803031604498  0.31738920311802477  0.6835392679584233  1.0000
  H   H8        1.0  0.530038480796853  0.39276365276021874  0.7056409716789764  1.0000
  C   C15       1.0  0.9025579753712994  0.9975192281481824  0.554066670865109  1.0000
  C   C16       1.0  0.824178091974045  0.001245056173911463  0.5391906364751968  1.0000
  C   C17       1.0  0.7845497899258145  0.8858406227218587  0.5331663821195824  1.0000
  C   C18       1.0  0.8243617869584279  0.7659923466181885  0.5391948183610955  1.0000
  C   C19       1.0  0.9027163457158033  0.7602717247863502  0.5539475507575284  1.0000
  C   C20       1.0  0.9413378323421058  0.8765777265705589  0.5616403998795338  1.0000
  C   C21       1.0  0.7018791246698968  0.8897331384627731  0.5160837037609103  1.0000
  O   O1        1.0  0.6728736698317479  0.8064334589174889  0.4498456479954569  1.0000
  C   C22       1.0  0.6521134166413891  0.9880250516027475  0.5741544020263993  1.0000
  C   C23       1.0  0.585204020946686  0.03120942525536119  0.5113524055192387  1.0000
  C   C24       1.0  0.5374718200557743  0.12271508483550786  0.5661151496907115  1.0000
  F   F1        1.0  0.47338290141942035  0.16445761707478557  0.50433319320104  1.0000
  C   C25       1.0  0.555735201932852  0.171117512801777  0.6844566466019952  1.0000
  C   C26       1.0  0.621565852465583  0.12773161524735377  0.7484890674977811  1.0000
  C   C27       1.0  0.6694533191635653  0.03629010732746396  0.6941287731691881  1.0000
  H   H9        1.0  0.050601562919198484  0.1979571079868956  0.5801414169257033  1.0000
  H   H10       1.0  0.7939520698613733  0.09419099166903044  0.5308204063973654  1.0000
  H   H11       1.0  0.7939496768691439  0.676966406454185  0.5335882405642403  1.0000
  H   H12       1.0  0.0017628978495949355  0.8729013868879645  0.5731079747736281  1.0000
  H   H13       1.0  0.9328874940006989  0.430699200965406  0.5585177326187847  1.0000
  H   H14       1.0  0.5702528325896501  0.994938516032075  0.41940998553463027  1.0000
  H   H15       1.0  0.5187646308580883  0.24184730206637628  0.726879234599147  1.0000
  H   H16       1.0  0.6353555707969587  0.16454467557412422  0.8406620965644236  1.0000
  H   H17       1.0  0.7195103809799729  0.0023431492526919673  0.7465488210417082  1.0000
  C   C28       1.0  0.9027067805107047  0.3789796580434108  0.17262353746972003  1.0000
  C   C29       1.0  0.9811811308258169  0.38992582656484  0.16909921076555068  1.0000
  C   C30       1.0  0.020666828220093025  0.39692270138937524  0.050035011936697904  1.0000
  C   C31       1.0  0.981001545863115  0.38987046336831055  0.9338630031377941  1.0000
  C   C32       1.0  0.9025675448461463  0.37881125592622267  0.9353906333590611  1.0000
  C   C33       1.0  0.8638528117378984  0.37377189224946505  0.05527069658496653  1.0000
  C   C34       1.0  0.10361820932996246  0.4071183629783346  0.046277479643838104  1.0000
  O   O2        1.0  0.14046444159479243  0.35182807306059694  0.959898253748916  1.0000
  C   C35       1.0  0.1447662209021987  0.4800528652291409  0.1404304620866783  1.0000
  C   C36       1.0  0.21805417611264755  0.4398605483832456  0.17752571045858034  1.0000
  C   C37       1.0  0.25819652336444876  0.5082251906988413  0.2651296623334023  1.0000
  O   O3        1.0  0.3308732481930996  0.4628872723444608  0.29936362126559146  1.0000
  C   C38       1.0  0.37795568046044115  0.5225293297491522  0.3870560804846006  1.0000
  C   C39       1.0  0.22463586852325745  0.6192066233721201  0.31551968245699835  1.0000
  C   C40       1.0  0.1522253223705352  0.6606906284789882  0.2779008097730946  1.0000
  C   C41       1.0  0.11251653011168705  0.5920724221108764  0.19053156870518206  1.0000
  H   H18       1.0  0.7547440375421934  0.35632921673345175  0.38674872900357493  1.0000
  H   H19       1.0  0.011779260887356147  0.3915679478002938  0.259241342448542  1.0000
  H   H20       1.0  0.011426948284118277  0.3942844763579647  0.8420223518083505  1.0000
  H   H21       1.0  0.8033548208987881  0.3653323446053409  0.057183979675463625  1.0000
  H   H22       1.0  0.8725073198704757  0.37347591692673765  0.608603676621692  1.0000
  H   H23       1.0  0.24409018836596452  0.35431124214659104  0.13927833394913414  1.0000
  H   H24       1.0  0.43202162469848915  0.4666078810801737  0.3962301425355621  1.0000
  H   H25       1.0  0.35082734427023454  0.5220138816736151  0.484688857045499  1.0000
  H   H26       1.0  0.38952671355110247  0.6239908739326179  0.34920924701516043  1.0000
  H   H27       1.0  0.25408703828730284  0.6742509986051191  0.38327013396680165  1.0000
  H   H28       1.0  0.1268949696050714  0.7466955643292259  0.31616669498508587  1.0000
  H   H29       1.0  0.05696970094234999  0.6274327867861578  0.16111689734846624  1.0000
  Zn  Zn1       1.0  0.820318625829831  0.3827979093558038  0.55521606703522  1.0000
  Zn  Zn2       1.0  0.9849485164004881  0.3749927328879503  0.5527976570011295  1.0000
  C   C42       1.0  0.9025911201005651  0.37366933097915145  0.7912121880650762  1.0000
  C   C43       1.0  0.9026778202000415  0.3841228646766599  0.3168016367777329  1.0000
  C   C44       1.0  0.9026834997053066  0.6160965704423629  0.5487947482044218  1.0000
  C   C45       1.0  0.9025853840819813  0.14169406750857383  0.5592191469486076  1.0000
  O   O4        1.0  0.9651442851743831  0.38288128208969807  0.3642713508693174  1.0000
  O   O5        1.0  0.9650749326577803  0.36898598555490647  0.741906583008433  1.0000
  O   O6        1.0  0.9651486879015542  0.5647490869637151  0.5461527973386555  1.0000
  O   O7        1.0  0.9650704737732829  0.18711819265628682  0.5600250399844735  1.0000
  O   O8        1.0  0.8401966122769358  0.5706724522524067  0.5479886848703288  1.0000
  O   O9        1.0  0.8401228573663804  0.37491091121341147  0.7437424010483398  1.0000
  O   O10       1.0  0.8401922102085598  0.38880616283311986  0.36610560745486964  1.0000
  O   O11       1.0  0.8401183987846856  0.19304306408924954  0.5618593939431005  1.0000
