data_image0
_chemical_formula_structural       NC12NC2H8C6NCOC6H11C6NCOC6H11Zn2C4O8
_chemical_formula_sum              "N4 C44 H30 O10 Zn2"
_cell_length_a       17.80743265337812
_cell_length_b       10.29965916528486
_cell_length_c       10.299662537453274
_cell_angle_alpha    85.55779495060091
_cell_angle_beta     91.52043180893111
_cell_angle_gamma    89.45195528988225

_space_group_name_H-M_alt    "P 1"
_space_group_IT_number       1

loop_
  _space_group_symop_operation_xyz
  'x, y, z'

loop_
  _atom_site_type_symbol
  _atom_site_label
  _atom_site_symmetry_multiplicity
  _atom_site_fract_x
  _atom_site_fract_y
  _atom_site_fract_z
  _atom_site_occupancy
  N   N1        1.0  0.7078450536985916  0.40712163633267706  0.6018281463439028  1.0000
  C   C1        1.0  0.6570391761574031  0.4367029211695026  0.5331399880374572  1.0000
  C   C2        1.0  0.593831648230502  0.4734998910328574  0.44770056632388955  1.0000
  C   C3        1.0  0.6055839334894332  0.5275620287329539  0.32110015291313876  1.0000
  C   C4        1.0  0.5442831916981312  0.5628546360241427  0.2380561793049829  1.0000
  C   C5        1.0  0.47107599188644894  0.5443487865889685  0.28095281143621387  1.0000
  C   C6        1.0  0.45834685269294956  0.49016769070987776  0.40802132419167303  1.0000
  C   C7        1.0  0.5205049132607948  0.4548783428167775  0.49104878730681145  1.0000
  C   C8        1.0  0.3805708865403764  0.47054677550383217  0.45377784999804427  1.0000
  C   C9        1.0  0.36177360884040527  0.4976896607416601  0.5808313314233622  1.0000
  C   C10       1.0  0.2885364650411205  0.4792253699304201  0.6237685409225147  1.0000
  C   C11       1.0  0.23315348076539963  0.4333636462618973  0.5404901455088342  1.0000
  C   C12       1.0  0.1577794614902722  0.4143460718841909  0.5848280838616442  1.0000
  N   N2        1.0  0.0971840876501685  0.39905722112972497  0.6204727361330675  1.0000
  C   C13       1.0  0.2512591684151442  0.4060516699703438  0.4139795725810822  1.0000
  C   C14       1.0  0.324443491683572  0.4245308319682226  0.37078648207926745  1.0000
  H   H1        1.0  0.6620564409345735  0.5423970116372656  0.28666847003996265  1.0000
  H   H2        1.0  0.5535006651272998  0.6049835448525545  0.1402921954529157  1.0000
  H   H3        1.0  0.42444989024274066  0.5740056330629084  0.21537261586715495  1.0000
  H   H4        1.0  0.5119856063507305  0.4113642013255956  0.5886878407047975  1.0000
  H   H5        1.0  0.40344805473481  0.5348459709876348  0.6464172542096831  1.0000
  H   H6        1.0  0.27508451398238615  0.5010374364312122  0.7217847648777247  1.0000
  H   H7        1.0  0.20886800423501972  0.37016247176849904  0.34880704688694775  1.0000
  H   H8        1.0  0.3373667532330656  0.4011831539945707  0.273073054757923  1.0000
  C   C15       1.0  0.9024521013604934  0.021730089836556887  0.6110319510112159  1.0000
  C   C16       1.0  0.9029813777094917  0.03105139258821321  0.4742407865953038  1.0000
  C   C17       1.0  0.9043557948981928  0.9188881838426998  0.40547074871443134  1.0000
  C   C18       1.0  0.9031228837027101  0.7958580575901156  0.4745439484137173  1.0000
  C   C19       1.0  0.9025842154373447  0.7844386113165815  0.6112804392640394  1.0000
  C   C20       1.0  0.9025162203569266  0.8979772388530789  0.6787653044040431  1.0000
  N   N3        1.0  0.903742829322141  0.9320262164036206  0.26537473446029525  1.0000
  C   C21       1.0  0.9389687378529293  0.840197625416262  0.18733521049396362  1.0000
  O   O1        1.0  0.9907876324373456  0.7662880194470071  0.23679491583845502  1.0000
  C   C22       1.0  0.9171512647176312  0.8345048557041852  0.04792367746191828  1.0000
  C   C23       1.0  0.8476904017009966  0.8858182976110953  0.9982514182214777  1.0000
  C   C24       1.0  0.8275773227718488  0.8792705397095537  0.8667651420960993  1.0000
  C   C25       1.0  0.8762255075190467  0.8212079979740655  0.7836378648791422  1.0000
  C   C26       1.0  0.9450252298652843  0.76912124592072  0.8319022394707276  1.0000
  C   C27       1.0  0.9654251205081753  0.775306769791293  0.963297775397777  1.0000
  H   H9        1.0  0.9007366676567752  0.21142582727774561  0.8690295984909264  1.0000
  H   H10       1.0  0.9029022914429959  0.12568254560387881  0.4204138264566797  1.0000
  H   H11       1.0  0.9012644167701742  0.7091257825125206  0.42164944188398334  1.0000
  H   H12       1.0  0.9021182534070112  0.8899259702474378  0.7842163368196531  1.0000
  H   H13       1.0  0.9013781108075333  0.4526297323355346  0.6636843401438877  1.0000
  H   H14       1.0  0.8823137382973193  0.018620273515474572  0.2184079721217851  1.0000
  H   H15       1.0  0.8083142124475565  0.9293064895726167  0.06084833835295611  1.0000
  H   H16       1.0  0.7740422881557548  0.918825800584493  0.8294156222684079  1.0000
  H   H17       1.0  0.8605066994665331  0.8162142161406059  0.6819273208717114  1.0000
  H   H18       1.0  0.9826241582079172  0.7238747550681349  0.767456485745055  1.0000
  H   H19       1.0  0.01914858455042978  0.7345623199538297  0.9984376037203475  1.0000
  C   C28       1.0  0.9025699034803977  0.4032238199839919  0.22978274701143353  1.0000
  C   C29       1.0  0.9792644323911383  0.4340090473977163  0.22965176553994882  1.0000
  C   C30       1.0  0.018120271541205213  0.44762896029268373  0.11291239754313764  1.0000
  C   C31       1.0  0.9791329224323542  0.43370170542689523  0.9945020728055831  1.0000
  C   C32       1.0  0.9024664476799978  0.4029449005382202  0.9925296598324058  1.0000
  C   C33       1.0  0.8646818504112606  0.3874337525320761  0.11076209705636209  1.0000
  N   N4        1.0  0.09635650415448249  0.4810931993879195  0.11618651441341421  1.0000
  C   C34       1.0  0.1495192009194659  0.44014294243783225  0.02450669665436922  1.0000
  O   O2        1.0  0.13580000559787608  0.34187122749849697  0.9622669043769112  1.0000
  C   C35       1.0  0.22166005831180136  0.5089757332834433  0.005633250545302726  1.0000
  C   C36       1.0  0.23074554663389701  0.6368547707531775  0.04246281165149357  1.0000
  C   C37       1.0  0.29891038891725463  0.7009968594423761  0.023557292085426118  1.0000
  C   C38       1.0  0.3585361923064416  0.6387362520836941  0.9674184227257299  1.0000
  C   C39       1.0  0.35006055757508103  0.5122909317730286  0.929612557440942  1.0000
  C   C40       1.0  0.28202372692762956  0.4476891702283947  0.9481949826016596  1.0000
  H   H20       1.0  0.7577254393970283  0.3463622803009909  0.43719233522688117  1.0000
  H   H21       1.0  0.009366099979982279  0.4466044101571527  0.3205178378319242  1.0000
  H   H22       1.0  0.008233380585536354  0.4490624922205182  0.9037874947810596  1.0000
  H   H23       1.0  0.8055613847961787  0.3636848114628315  0.10999906503608092  1.0000
  H   H24       1.0  0.8728149287132387  0.3928322883157189  0.6641827373136309  1.0000
  H   H25       1.0  0.11686752375796194  0.5278710651851406  0.19610631922043398  1.0000
  H   H26       1.0  0.1851069501349274  0.688334119619469  0.08406718305893524  1.0000
  H   H27       1.0  0.3053900965150631  0.7993398757620638  0.0520147146224228  1.0000
  H   H28       1.0  0.4112215490370612  0.6886219124460586  0.9528400742333276  1.0000
  H   H29       1.0  0.3962550469348156  0.4642172987861486  0.8858389108333533  1.0000
  H   H30       1.0  0.27683136935547936  0.3495421048192755  0.9184242415850732  1.0000
  Zn  Zn1       1.0  0.8201998904333088  0.404790950375977  0.6072160581036528  1.0000
  Zn  Zn2       1.0  0.9848292451493192  0.40137731002169974  0.6150954140990472  1.0000
  C   C41       1.0  0.9024834115640789  0.3978241215900511  0.8483524004199878  1.0000
  C   C42       1.0  0.902547522032546  0.40834574006230917  0.3739592858268994  1.0000
  C   C43       1.0  0.9025560879606864  0.6402724659304793  0.606058070341386  1.0000
  C   C44       1.0  0.9024747891797644  0.16589583659828322  0.6162536819479054  1.0000
  O   O3        1.0  0.9650159917743563  0.40876357890767756  0.42533642201294897  1.0000
  O   O4        1.0  0.9649648126687558  0.3948144291410256  0.8029551389488518  1.0000
  O   O5        1.0  0.9650226573888102  0.5905945503433425  0.6073007132682033  1.0000
  O   O6        1.0  0.9649580908922746  0.21298346819579828  0.6209907476321062  1.0000
  O   O7        1.0  0.8400709885104355  0.5931847933682024  0.6013207218749257  1.0000
  O   O8        1.0  0.8400131440666372  0.39740623245580786  0.7969750788175023  1.0000
  O   O9        1.0  0.8400643234261935  0.4113553375375476  0.419354800449951  1.0000
  O   O10       1.0  0.8400064225262213  0.21557521750155528  0.6150092234349323  1.0000
