data_image0
_chemical_formula_structural       NC12NC2H8C7OC6OCH12C7OC4NC3H9Zn2C4O8
_chemical_formula_sum              "N3 C46 H29 O11 Zn2"
_cell_length_a       17.80743265337812
_cell_length_b       10.299359160628079
_cell_length_c       10.299375074045738
_cell_angle_alpha    85.54493941547133
_cell_angle_beta     91.52722468557046
_cell_angle_gamma    89.45809633783337

_space_group_name_H-M_alt    "P 1"
_space_group_IT_number       1

loop_
  _space_group_symop_operation_xyz
  'x, y, z'

loop_
  _atom_site_type_symbol
  _atom_site_label
  _atom_site_symmetry_multiplicity
  _atom_site_fract_x
  _atom_site_fract_y
  _atom_site_fract_z
  _atom_site_occupancy
  N   N1        1.0  0.7078314735742847  0.40719369224423985  0.6014780698872013  1.0000
  C   C1        1.0  0.6570226133819317  0.436776736121806  0.5327813123447525  1.0000
  C   C2        1.0  0.5938113755047211  0.4735758940813437  0.44733119392157716  1.0000
  C   C3        1.0  0.6055581364696729  0.5276412532018624  0.32071503105191645  1.0000
  C   C4        1.0  0.5442537610664367  0.562935965955712  0.2376607634182195  1.0000
  C   C5        1.0  0.4710484220872472  0.5444290165379424  0.2805627728313902  1.0000
  C   C6        1.0  0.4583248323523488  0.4902446909719951  0.4076470756803334  1.0000
  C   C7        1.0  0.5204865255897102  0.4549532378656336  0.49068483159139076  1.0000
  C   C8        1.0  0.380550858043424  0.4706226077938269  0.4534093114569111  1.0000
  C   C9        1.0  0.3617638903885684  0.4977659256166742  0.5804608993931979  1.0000
  C   C10       1.0  0.2885286126402657  0.47930053644209236  0.6234034784179647  1.0000
  C   C11       1.0  0.2331372269771601  0.4334372651545322  0.5401324278023736  1.0000
  C   C12       1.0  0.15776513750190843  0.4144185587916831  0.5844759001791477  1.0000
  N   N2        1.0  0.0971713150864348  0.39912879799771894  0.620125001431491  1.0000
  C   C13       1.0  0.251232631945879  0.40612484528896076  0.4136238022593206  1.0000
  C   C14       1.0  0.3244150724706909  0.4246051079103119  0.3704253309253924  1.0000
  H   H1        1.0  0.6620291491724082  0.5424771181677921  0.28627903615548234  1.0000
  H   H2        1.0  0.5534669907939008  0.6050673795924084  0.1398845346451707  1.0000
  H   H3        1.0  0.4244195555433744  0.574087606137488  0.21497405965069438  1.0000
  H   H4        1.0  0.5119713726992147  0.411436529962939  0.588336427174234  1.0000
  H   H5        1.0  0.4034450135680335  0.5349235014289955  0.6460408121011134  1.0000
  H   H6        1.0  0.2750846664187531  0.501112975954366  0.7214180519093529  1.0000
  H   H7        1.0  0.20883489304672204  0.3702344360118046  0.348457024164859  1.0000
  H   H8        1.0  0.3373302600546307  0.40125698589152026  0.2727138975247072  1.0000
  C   C15       1.0  0.902416587829192  0.02178473360347044  0.6107659645707977  1.0000
  C   C16       1.0  0.8402843946156152  0.02838430765643407  0.5233898018437824  1.0000
  C   C17       1.0  0.8094852374596141  0.9147176036784552  0.4782522700900047  1.0000
  C   C18       1.0  0.8404633260084885  0.7931189925594112  0.5236534882743433  1.0000
  C   C19       1.0  0.9025933971704858  0.7845275906065139  0.6108486820807784  1.0000
  C   C20       1.0  0.9333159879657643  0.8994522968653758  0.6536969288691372  1.0000
  C   C21       1.0  0.7433579192939784  0.9238329636401748  0.38714808540808865  1.0000
  O   O1        1.0  0.6956160469106533  0.013690247199170447  0.3964285617154035  1.0000
  C   C22       1.0  0.731389103258395  0.8310808344980277  0.2855232036156876  1.0000
  C   C23       1.0  0.7924987754932887  0.7764901651003758  0.22439216406416929  1.0000
  C   C24       1.0  0.7804302551013306  0.6903895303094276  0.12772840291111254  1.0000
  C   C25       1.0  0.7074501116218318  0.6579999621601326  0.08946898888626875  1.0000
  C   C26       1.0  0.6460876580643923  0.7136311351955659  0.14927610895358145  1.0000
  C   C27       1.0  0.6580874791175063  0.7997920649919273  0.24598300324467726  1.0000
  O   O2        1.0  0.6983576176442642  0.5709975973115129  0.9921312333580157  1.0000
  C   C28       1.0  0.6275641992026695  0.529636402737505  0.943870756529499  1.0000
  H   H9        1.0  0.019463594928672556  0.21657314570033637  0.7760536126815825  1.0000
  H   H10       1.0  0.8161258091610202  0.12222515046371463  0.48924661939519476  1.0000
  H   H11       1.0  0.8155258285623681  0.7050098015558077  0.4920064298586382  1.0000
  H   H12       1.0  0.9812427137856694  0.8935570610960768  0.7209637124790114  1.0000
  H   H13       1.0  0.9262347866414218  0.4537302107863637  0.6447004176464382  1.0000
  H   H14       1.0  0.8496128171048468  0.8013864212096178  0.2502596329585718  1.0000
  H   H15       1.0  0.8281114069087333  0.648972231039295  0.08182878310838304  1.0000
  H   H16       1.0  0.5889423323295961  0.691013134336276  0.12176245851741596  1.0000
  H   H17       1.0  0.6099865312393057  0.841172660342631  0.2908117130852659  1.0000
  H   H18       1.0  0.6369472695932163  0.4610752953919908  0.8678421866329895  1.0000
  H   H19       1.0  0.5945561514516308  0.614684330108073  0.8997781074787281  1.0000
  H   H20       1.0  0.5960225885740074  0.4786898059681562  0.023899189020034628  1.0000
  C   C29       1.0  0.90253055839149  0.40329801285094447  0.22942178026993854  1.0000
  C   C30       1.0  0.9603792563515271  0.49521273088365647  0.22375791847451665  1.0000
  C   C31       1.0  0.9889731505770546  0.5426643057180287  0.10361595665840806  1.0000
  C   C32       1.0  0.9602575668862027  0.4949775106253249  0.9885267509878015  1.0000
  C   C33       1.0  0.9024793934384984  0.40301438199703377  0.9921928581655743  1.0000
  C   C34       1.0  0.8738155737782957  0.35796086713130304  0.11312797821985732  1.0000
  C   C35       1.0  0.050596586894441575  0.6387088548690063  0.09759924535043063  1.0000
  O   O3        1.0  0.09860409563975314  0.6330292934963149  0.010263106459970972  1.0000
  C   C36       1.0  0.05774734657298408  0.7412085196988576  0.19057820704839878  1.0000
  C   C37       1.0  0.12919847789018246  0.7862905230025539  0.22576134716788898  1.0000
  C   C38       1.0  0.1365010617497906  0.884153255411533  0.3123373634686364  1.0000
  C   C39       1.0  0.20987576015767107  0.9289860806027868  0.34864371877449507  1.0000
  N   N3        1.0  0.2688607500602196  0.9650210040354807  0.37782617622096515  1.0000
  C   C40       1.0  0.0723597703325487  0.9383341454151042  0.3634639779395352  1.0000
  C   C41       1.0  0.0011593734506571973  0.8952586434669207  0.32779208885686284  1.0000
  C   C42       1.0  0.9937074412427545  0.7976689952556586  0.2414845047724956  1.0000
  H   H21       1.0  0.7941529953205397  0.22836414464501464  0.44758271805363603  1.0000
  H   H22       1.0  0.9838413173416077  0.5289288066868161  0.3130681788815184  1.0000
  H   H23       1.0  0.9826275658205033  0.5307508005214119  0.8958564958738693  1.0000
  H   H24       1.0  0.8292187040428113  0.28710066108199284  0.11669059489279054  1.0000
  H   H25       1.0  0.8807166590884209  0.36687761582228196  0.6662268890324294  1.0000
  H   H26       1.0  0.1791326656233414  0.7445351461202692  0.1867682509179973  1.0000
  H   H27       1.0  0.07738888729006166  0.014109658864771113  0.43039141580507345  1.0000
  H   H28       1.0  0.9515996951545808  0.9379849824425359  0.3666543982611423  1.0000
  H   H29       1.0  0.9378994302810781  0.7674307727152088  0.21350528805563362  1.0000
  Zn  Zn1       1.0  0.8201865436641927  0.40486286784312653  0.6068666584175744  1.0000
  Zn  Zn2       1.0  0.9848162393367895  0.40144902479107913  0.6147470052651767  1.0000
  C   C43       1.0  0.902486208183244  0.39789422652256334  0.8480121233215538  1.0000
  C   C44       1.0  0.9025183729401824  0.408419267437103  0.3736017540639607  1.0000
  C   C45       1.0  0.9025564494385434  0.6403549947899247  0.6056574309574774  1.0000
  C   C46       1.0  0.9024480751419534  0.16595693997552297  0.6159565128115405  1.0000
  O   O4        1.0  0.9649903936109674  0.4088368057593543  0.424980420315312  1.0000
  O   O5        1.0  0.9649643170540686  0.3948846807119508  0.8026140840202061  1.0000
  O   O6        1.0  0.9650201954576366  0.5906748343850092  0.6069109150682936  1.0000
  O   O7        1.0  0.9649344590391183  0.213046662577828  0.6206834892002946  1.0000
  O   O8        1.0  0.8400682677818295  0.5932652312227709  0.6009301717864497  1.0000
  O   O9        1.0  0.8400123897411562  0.3974766379103247  0.7966332716588509  1.0000
  O   O10       1.0  0.8400384664422198  0.4114287182805094  0.41899804648276273  1.0000
  O   O11       1.0  0.8399825318586172  0.21563856577384444  0.6147012127386682  1.0000
