data_image0
_chemical_formula_structural       NC10NC3NCH9C6NCOC6H11C7OC3FC3H9Zn2C4O8
_chemical_formula_sum              "N4 C44 H29 O10 F1 Zn2"
_cell_length_a       19.437513618241372
_cell_length_b       10.29965916528486
_cell_length_c       10.29938172300155
_cell_angle_alpha    85.59399439143571
_cell_angle_beta     90.33093660507195
_cell_angle_gamma    89.53922106887035

_space_group_name_H-M_alt    "P 1"
_space_group_IT_number       1

loop_
  _space_group_symop_operation_xyz
  'x, y, z'

loop_
  _atom_site_type_symbol
  _atom_site_label
  _atom_site_symmetry_multiplicity
  _atom_site_fract_x
  _atom_site_fract_y
  _atom_site_fract_z
  _atom_site_occupancy
  N   N1        1.0  0.648284716427809  0.4100727537066584  0.5762119906919301  1.0000
  C   C1        1.0  0.589354427933316  0.4270816440019449  0.5732429512997839  1.0000
  C   C2        1.0  0.5159177604351597  0.44833269996984604  0.5695576516984393  1.0000
  C   C3        1.0  0.4741404885763712  0.34714368081489066  0.5578570188871854  1.0000
  C   C4        1.0  0.3982529361907163  0.3572066795965072  0.5506398218816555  1.0000
  C   C5        1.0  0.3586843116326198  0.4380656467552626  0.6164151092538905  1.0000
  C   C6        1.0  0.28250163943957  0.4294559938562268  0.6079675234883302  1.0000
  C   C7        1.0  0.24934591591314392  0.3081161900575389  0.6125612347722555  1.0000
  C   C8        1.0  0.1776109962361161  0.30174322650281993  0.6053906024612301  1.0000
  C   C9        1.0  0.1380610591337876  0.416237468034524  0.5939882955462776  1.0000
  C   C10       1.0  0.06421163026179952  0.4095263026254998  0.5866494342651496  1.0000
  N   N2        1.0  0.0048417875229275  0.40413111577240945  0.5807494484400506  1.0000
  C   C11       1.0  0.1705000570354802  0.5372668551194262  0.5901397298902522  1.0000
  C   C12       1.0  0.24221941561728141  0.5438938135710407  0.5973724872616839  1.0000
  C   C13       1.0  0.3873734917810777  0.5303647079213303  0.7063723958902559  1.0000
  N   N3        1.0  0.44437103663512806  0.5935712839664131  0.6859941581865563  1.0000
  C   C14       1.0  0.4882218744830977  0.5842891878223431  0.572883341564435  1.0000
  H   H1        1.0  0.49651016074935167  0.25208834499558286  0.5456969779903083  1.0000
  H   H2        1.0  0.3735333475965862  0.2876858546427423  0.4922935209538599  1.0000
  H   H3        1.0  0.2787803814530976  0.21820942699683066  0.6235452405656621  1.0000
  H   H4        1.0  0.15300158742486503  0.20752086074638454  0.6092392009802332  1.0000
  H   H5        1.0  0.1403799645824798  0.6265191639601231  0.5814675929779112  1.0000
  H   H6        1.0  0.2663473719260717  0.6385289621726948  0.5935085979313885  1.0000
  H   H7        1.0  0.35736497204290824  0.5507653471859744  0.7907469896413357  1.0000
  H   H8        1.0  0.5309854167843496  0.6546003386768922  0.5786754843012982  1.0000
  H   H9        1.0  0.4585686768927698  0.6123800939438513  0.48224969897205017  1.0000
  C   C15       1.0  0.8265060499357438  0.02574214399163921  0.5783645336996088  1.0000
  C   C16       1.0  0.8269945357802698  0.034979574749606446  0.44155719534543336  1.0000
  C   C17       1.0  0.8282551272370758  0.9227802094444558  0.372738868877172  1.0000
  C   C18       1.0  0.8271241189357539  0.7997871991941522  0.44185522342194106  1.0000
  C   C19       1.0  0.8266270334604988  0.7884515393247555  0.5786082297014357  1.0000
  C   C20       1.0  0.8265629018634592  0.9020325914964636  0.6460940769731764  1.0000
  N   N4        1.0  0.8276976364299425  0.935826081461121  0.23266813928002095  1.0000
  C   C21       1.0  0.8599597581762524  0.8441389885150273  0.15335401305847052  1.0000
  O   O1        1.0  0.9074142581700138  0.7705416921318643  0.20093511523894936  1.0000
  C   C22       1.0  0.8399831110905069  0.838239527879477  0.014736037592147477  1.0000
  C   C23       1.0  0.7763720611904079  0.889144876004649  0.9675815951547553  1.0000
  C   C24       1.0  0.7579560836721717  0.882404693427229  0.8368269485024191  1.0000
  C   C25       1.0  0.8025104975749623  0.8245531950213999  0.751938860873699  1.0000
  C   C26       1.0  0.8655161121456019  0.7728700594819908  0.797709404211949  1.0000
  C   C27       1.0  0.8841947550021589  0.7792495054948395  0.9283629208118578  1.0000
  H   H10       1.0  0.8249279349895492  0.2155921815026398  0.8364186714894069  1.0000
  H   H11       1.0  0.8269235931892671  0.12957616640597935  0.3877342823394492  1.0000
  H   H12       1.0  0.8254235896661285  0.7130113067784685  0.3890292145968297  1.0000
  H   H13       1.0  0.8261955339778623  0.8940460335013943  0.751557213692005  1.0000
  H   H14       1.0  0.8255210344906388  0.4566693514013337  0.6310546801022412  1.0000
  H   H15       1.0  0.808074120531852  0.022274174118080525  0.18647883310541036  1.0000
  H   H16       1.0  0.7403095286726548  0.9324592759454507  0.031603830738816674  1.0000
  H   H17       1.0  0.7089296045865546  0.9216460195959822  0.8014179456743058  1.0000
  H   H18       1.0  0.788117982205483  0.8194096942091128  0.6508000781659575  1.0000
  H   H19       1.0  0.8999510759822495  0.7277865525031736  0.7319027698592988  1.0000
  H   H20       1.0  0.9333938591485027  0.7388186107684486  0.9615554534136885  1.0000
  C   C28       1.0  0.8266244500042095  0.40699475631696624  0.19711943097015916  1.0000
  C   C29       1.0  0.8483760130405322  0.2761809047507551  0.20621605909752527  1.0000
  C   C30       1.0  0.8600944130841465  0.21064577926225003  0.09360503312611401  1.0000
  C   C31       1.0  0.8483102563736712  0.27647512770722305  0.9709492653439611  1.0000
  C   C32       1.0  0.8265086204929627  0.40719892741151664  0.9598533767145252  1.0000
  C   C33       1.0  0.8159653064768952  0.4718033614378374  0.07353175669797118  1.0000
  C   C34       1.0  0.8823661503632947  0.07210946233140136  0.10308988392821128  1.0000
  O   O2        1.0  0.8611640760962658  0.9992204019729697  0.01861555569466855  1.0000
  C   C35       1.0  0.9286952750038516  0.01626562693809608  0.20830719036424528  1.0000
  C   C36       1.0  0.9231319378529544  0.8844006043310282  0.2534676408373182  1.0000
  C   C37       1.0  0.9671176134282674  0.8304617531657491  0.3515669718615624  1.0000
  F   F1        1.0  0.9610050217004633  0.7034994422147739  0.3951176372952223  1.0000
  C   C38       1.0  0.017377965523937444  0.9072459583047102  0.40469914906656523  1.0000
  C   C39       1.0  0.023931892679891043  0.03788905418625621  0.35948586353235323  1.0000
  C   C40       1.0  0.980082712620721  0.09223739138171116  0.2614593761359314  1.0000
  H   H21       1.0  0.7845658404356273  0.6532599978338673  0.3873075579528007  1.0000
  H   H22       1.0  0.8554957244164387  0.22467300606991158  0.3010959361686374  1.0000
  H   H23       1.0  0.8568297324351787  0.22578486955222465  0.8840158263362481  1.0000
  H   H24       1.0  0.7991961492623011  0.5726507975030288  0.06571487468391801  1.0000
  H   H25       1.0  0.8175788826497242  0.4570877625913279  0.6281533694358972  1.0000
  H   H26       1.0  0.8843645854490941  0.8235318148314874  0.2135818141042496  1.0000
  H   H27       1.0  0.05144982007061549  0.865470728389631  0.48053634201134354  1.0000
  H   H28       1.0  0.063238821750498  0.09700115589799108  0.4000169258867339  1.0000
  H   H29       1.0  0.9868629963380374  0.1930809286361228  0.22631699358885515  1.0000
  Zn  Zn1       1.0  0.751179388904265  0.408354638223974  0.5775289107845238  1.0000
  Zn  Zn2       1.0  0.9019471179436915  0.40583856482041925  0.5794431947560144  1.0000
  C   C41       1.0  0.8265281774997129  0.40198683437375493  0.815678638804755  1.0000
  C   C42       1.0  0.8265999759677444  0.4122079798093383  0.34129361562910177  1.0000
  C   C43       1.0  0.82660141830892  0.644281929848336  0.5733869945477095  1.0000
  C   C44       1.0  0.8265266834540199  0.1699113249469495  0.5835853279726382  1.0000
  O   O3        1.0  0.8838073287965936  0.41299708288812886  0.3904062480284798  1.0000
  O   O4        1.0  0.8837500423853494  0.39928711000070805  0.768018529489044  1.0000
  O   O5        1.0  0.8838084137667973  0.5949434770693258  0.5723663031362052  1.0000
  O   O6        1.0  0.8837489059845909  0.21734072594200393  0.5860583763569025  1.0000
  O   O7        1.0  0.7693775494137407  0.5968524779624134  0.5709137285235539  1.0000
  O   O8        1.0  0.7693191782871848  0.4011976711416272  0.7665658861298204  1.0000
  O   O9        1.0  0.7693764649740741  0.41490759835538316  0.3889520432626834  1.0000
  O   O10       1.0  0.769318042143001  0.2192512321467892  0.5846042689554412  1.0000
