data_image0
_chemical_formula_structural       NC10NC3NCH9C7OC6H10C7OC6H10Zn2C4O8
_chemical_formula_sum              "N3 C44 H29 O10 Zn2"
_cell_length_a       19.437513618241372
_cell_length_b       10.299379429549807
_cell_length_c       10.299382801718286
_cell_angle_alpha    85.54943384292815
_cell_angle_beta     90.32786270847616
_cell_angle_gamma    89.52020702266324

_space_group_name_H-M_alt    "P 1"
_space_group_IT_number       1

loop_
  _space_group_symop_operation_xyz
  'x, y, z'

loop_
  _atom_site_type_symbol
  _atom_site_label
  _atom_site_symmetry_multiplicity
  _atom_site_fract_x
  _atom_site_fract_y
  _atom_site_fract_z
  _atom_site_occupancy
  N   N1        1.0  0.6480733680912782  0.41029574097751587  0.5752047112342931  1.0000
  C   C1        1.0  0.5891401312260193  0.4273062877977014  0.572223595937805  1.0000
  C   C2        1.0  0.5156997793267294  0.4485594116788365  0.5685232087230399  1.0000
  C   C3        1.0  0.4739408726444154  0.3473626733828572  0.5568942640533185  1.0000
  C   C4        1.0  0.3980517292870442  0.35742704940276515  0.5496698939892426  1.0000
  C   C5        1.0  0.3584668444518566  0.4382880806547411  0.6153881914273491  1.0000
  C   C6        1.0  0.2822859441700895  0.4296783130080286  0.6069466662468053  1.0000
  C   C7        1.0  0.24915171993947563  0.30832789820636575  0.6116264390964461  1.0000
  C   C8        1.0  0.1774181376259204  0.30195491645938  0.6044602880986001  1.0000
  C   C9        1.0  0.1378481126611523  0.41645968444181425  0.5929767379274606  1.0000
  C   C10       1.0  0.0640000861609514  0.40974848443288714  0.585642596885642  1.0000
  N   N2        1.0  0.0046313708109246  0.4043532697780954  0.5797464057169044  1.0000
  C   C11       1.0  0.1702656456678874  0.5374996020397602  0.5890423347093356  1.0000
  C   C12       1.0  0.2419836198676947  0.544126595676985  0.5962704309943228  1.0000
  C   C13       1.0  0.3871370459490663  0.5305884159216872  0.7052805029087765  1.0000
  N   N3        1.0  0.4441238968734004  0.5938018274860162  0.6848573411570524  1.0000
  C   C14       1.0  0.4879795662744781  0.5845271724656427  0.5717525143129492  1.0000
  H   H1        1.0  0.49632782959374727  0.25230017133043225  0.5448015597281268  1.0000
  H   H2        1.0  0.3733461713270824  0.28790458028204347  0.49137258241107995  1.0000
  H   H3        1.0  0.27860190247358646  0.2184127215567968  0.622674251893172  1.0000
  H   H4        1.0  0.1528254154667353  0.2077242906078256  0.6083757163205263  1.0000
  H   H5        1.0  0.14012988793872974  0.6267601008833661  0.5803068669387552  1.0000
  H   H6        1.0  0.2660948163770527  0.6387700404465932  0.5923394191921754  1.0000
  H   H7        1.0  0.3571225199661592  0.5509846459161616  0.7896410727858567  1.0000
  H   H8        1.0  0.5307304132107663  0.6548438570227166  0.577494832339462  1.0000
  H   H9        1.0  0.45832390731335765  0.612627050108633  0.48109847929954874  1.0000
  C   C15       1.0  0.8263631464986619  0.02593242381843819  0.5776297800102834  1.0000
  C   C16       1.0  0.8680486747102182  0.015370816523029074  0.6899059722163772  1.0000
  C   C17       1.0  0.8884285964497225  0.8928155043475727  0.7473777887262134  1.0000
  C   C18       1.0  0.8679649812551788  0.780150085137468  0.6896286247661256  1.0000
  C   C19       1.0  0.8263481888924815  0.7887064428857833  0.5773326830219758  1.0000
  C   C20       1.0  0.8056392045648908  0.9120702666795062  0.522179860371941  1.0000
  C   C21       1.0  0.9330430628075038  0.8815699469039084  0.8651431319831766  1.0000
  O   O1        1.0  0.9766883251827141  0.7900585107168431  0.8780552245316362  1.0000
  C   C22       1.0  0.9281409395532911  0.9740374282992628  0.9682650702461864  1.0000
  C   C23       1.0  0.9869773882257828  0.002535526299972002  0.040576897067031825  1.0000
  C   C24       1.0  0.9826983231997979  0.0883856058428234  0.1390142972311631  1.0000
  C   C25       1.0  0.9196699945263845  0.14573527245080453  0.16696958257705186  1.0000
  C   C26       1.0  0.8607276629927127  0.1169305078768752  0.09690049762110986  1.0000
  C   C27       1.0  0.864730459306669  0.03116466851416977  0.9983719118225063  1.0000
  H   H10       1.0  0.7485684297041009  0.25325845947251624  0.3646082365394492  1.0000
  H   H11       1.0  0.8853474604269356  0.10267862549205975  0.7319631601790899  1.0000
  H   H12       1.0  0.8840630232880142  0.6855888355945651  0.7332707118543722  1.0000
  H   H13       1.0  0.7735031277683544  0.9194083716110738  0.4356227767437715  1.0000
  H   H14       1.0  0.8108398503077072  0.4645777890831752  0.5335677211750716  1.0000
  H   H15       1.0  0.03633739115615153  0.9592636298133527  0.02015837922390329  1.0000
  H   H16       1.0  0.028294844966944455  0.1104063771005026  0.19369094449805324  1.0000
  H   H17       1.0  0.9164515546016647  0.2120741898989349  0.24326929213208714  1.0000
  H   H18       1.0  0.8118100083030015  0.16063416615639903  0.11932446776004324  1.0000
  H   H19       1.0  0.8181832210712867  0.00847546563477497  0.9468428880127624  1.0000
  C   C28       1.0  0.8264242982626198  0.4072450567152328  0.19611235054487253  1.0000
  C   C29       1.0  0.8987036966206605  0.40690393821736204  0.19572903493705618  1.0000
  C   C30       1.0  0.9351594046627923  0.4052437218796747  0.07847816547956166  1.0000
  C   C31       1.0  0.8985360415029363  0.4069347708165758  0.9604813197905933  1.0000
  C   C32       1.0  0.8262870056468054  0.40739380908088907  0.9588500788978909  1.0000
  C   C33       1.0  0.7906502361305453  0.4072015470855417  0.0772368890527726  1.0000
  C   C34       1.0  0.011477026985683203  0.4062675801913309  0.07782089342441378  1.0000
  O   O2        1.0  0.04178969562309276  0.466474843344967  0.983656522852618  1.0000
  C   C35       1.0  0.053406613353090604  0.33898163358787103  0.18388706201597804  1.0000
  C   C36       1.0  0.11807263853650474  0.38836666142902043  0.21579253746049099  1.0000
  C   C37       1.0  0.15832418354068944  0.3247582126808375  0.31458415636996717  1.0000
  C   C38       1.0  0.1347522728347783  0.21084073637531375  0.3816923334859843  1.0000
  C   C39       1.0  0.0709985928014758  0.15999345455145675  0.34977602351920356  1.0000
  C   C40       1.0  0.03055106299095467  0.22322643490049  0.2510841163252875  1.0000
  H   H20       1.0  0.6900222143305603  0.40990061218925744  0.40399948443527056  1.0000
  H   H21       1.0  0.9267321555695718  0.4093874545517353  0.28668374991226053  1.0000
  H   H22       1.0  0.9265716177008505  0.40663887957793565  0.8698868801872952  1.0000
  H   H23       1.0  0.7349282658840217  0.40746532250174816  0.07672816089461798  1.0000
  H   H24       1.0  0.798532091013245  0.40867519479306447  0.6306811869731881  1.0000
  H   H25       1.0  0.1371718995755451  0.4767266334684732  0.16506582618011745  1.0000
  H   H26       1.0  0.20784762311940375  0.3638189417255868  0.3390721406431103  1.0000
  H   H27       1.0  0.16600727819669214  0.1616896894594697  0.458052773310778  1.0000
  H   H28       1.0  0.05301922054585506  0.0711588823763809  0.4011459390917558  1.0000
  H   H29       1.0  0.9818538149709545  0.18086957319080788  0.22642171218999474  1.0000
  Zn  Zn1       1.0  0.7509683098251347  0.4085773841910705  0.5765228564688121  1.0000
  Zn  Zn2       1.0  0.9017364335759385  0.4060609584506367  0.5784389345099221  1.0000
  C   C41       1.0  0.8263115443043495  0.4021917188720081  0.8146783456912214  1.0000
  C   C42       1.0  0.8263948454248633  0.41244823503402483  0.3402835930392114  1.0000
  C   C43       1.0  0.8263484024926677  0.6445249589422335  0.572213631314805  1.0000
  C   C44       1.0  0.82635793580807  0.1701134354389673  0.5827483766081789  1.0000
  O   O3        1.0  0.8836006781233496  0.41323383267107183  0.38939592287860214  1.0000
  O   O4        1.0  0.8835352290823056  0.39949523246939633  0.7670199012856087  1.0000
  O   O5        1.0  0.8835642209972516  0.5951824016850127  0.5712279186202385  1.0000
  O   O6        1.0  0.8835716347787976  0.21754667358593616  0.5851878075118653  1.0000
  O   O7        1.0  0.7691330571725156  0.5970916699159163  0.5697739828061734  1.0000
  O   O8        1.0  0.7691040652362847  0.40140606108527765  0.765565895618298  1.0000
  O   O9        1.0  0.7691695146049718  0.41514461572299033  0.38794035582893427  1.0000
  O   O10       1.0  0.7691404712402655  0.2194574473675195  0.5837323378336101  1.0000
