data_image0
_chemical_formula_structural       NC11NC3H8C6NCOC6H11C7OC6H10Zn2C4O8
_chemical_formula_sum              "N3 C44 H29 O10 Zn2"
_cell_length_a       17.807433833752565
_cell_length_b       10.29965916528486
_cell_length_c       10.299382801718286
_cell_angle_alpha    85.58981362736998
_cell_angle_beta     88.5048620642858
_cell_angle_gamma    90.70223866869796

_space_group_name_H-M_alt    "P 1"
_space_group_IT_number       1

loop_
  _space_group_symop_operation_xyz
  'x, y, z'

loop_
  _atom_site_type_symbol
  _atom_site_label
  _atom_site_symmetry_multiplicity
  _atom_site_fract_x
  _atom_site_fract_y
  _atom_site_fract_z
  _atom_site_occupancy
  N   N1        1.0  0.7079482011751876  0.43817699845831815  0.5351124363200099  1.0000
  C   C1        1.0  0.6571097207259764  0.4034632698576397  0.6016638797180172  1.0000
  C   C2        1.0  0.5938615275757203  0.3602822523229914  0.6844453819023428  1.0000
  C   C3        1.0  0.6055536906207531  0.29675599119600027  0.8071438470466827  1.0000
  C   C4        1.0  0.5442136274289814  0.2552542929960613  0.8876419522027454  1.0000
  C   C5        1.0  0.47102687425252066  0.27696571206808085  0.8460822896751348  1.0000
  C   C6        1.0  0.458358034459531  0.3406464364761994  0.7229236752293269  1.0000
  C   C7        1.0  0.38060383527970026  0.363687434305894  0.6785837787774829  1.0000
  C   C8        1.0  0.36184261532943063  0.3467915743780168  0.5489973529665864  1.0000
  C   C9        1.0  0.2886259215134474  0.36846425808880534  0.5073936061904187  1.0000
  C   C10       1.0  0.2332275891618136  0.4073511711076385  0.5945561102195285  1.0000
  C   C11       1.0  0.1578745537907978  0.4296820548303544  0.5515912755977237  1.0000
  N   N2        1.0  0.0972960858966267  0.4476344263298129  0.5170506755230253  1.0000
  C   C12       1.0  0.2512973857933891  0.424457505510927  0.7236114675393119  1.0000
  C   C13       1.0  0.3244612619870826  0.4027499397674288  0.7654706335405774  1.0000
  C   C14       1.0  0.5205554055413394  0.3821435728741498  0.6424419845028815  1.0000
  H   H1        1.0  0.6620099489538301  0.27934804301639304  0.8405039145845832  1.0000
  H   H2        1.0  0.553384657496582  0.20582055523612097  0.9823625523141366  1.0000
  H   H3        1.0  0.4243692362969714  0.24242212952524667  0.9095104897031996  1.0000
  H   H4        1.0  0.4035288870703635  0.3151376986456087  0.48027028977141106  1.0000
  H   H5        1.0  0.2752015515411414  0.35456531856883244  0.40735412748503474  1.0000
  H   H6        1.0  0.2088942188761384  0.4548882854599099  0.7918233644899488  1.0000
  H   H7        1.0  0.3373575032523528  0.4181942215896668  0.8653278565891143  1.0000
  H   H8        1.0  0.5120830435268336  0.43293967737276806  0.5479561419074543  1.0000
  C   C15       1.0  0.9025596736920372  0.06154348455737546  0.5259689531058849  1.0000
  C   C16       1.0  0.9030972813296276  0.07081212874280651  0.3891297010906314  1.0000
  C   C17       1.0  0.9044759153567509  0.9586722961964687  0.32023099660738175  1.0000
  C   C18       1.0  0.9032387725131854  0.8356253277560272  0.38941951799024355  1.0000
  C   C19       1.0  0.9026917760431554  0.8242580870646432  0.5262049826151731  1.0000
  C   C20       1.0  0.9026196757322126  0.9378313792723331  0.5936953644950544  1.0000
  N   N3        1.0  0.9038714527677693  0.9717044479469844  0.18019462682037868  1.0000
  C   C21       1.0  0.9391030088217069  0.8814165983114711  0.0988351076271996  1.0000
  O   O1        1.0  0.9909202232019722  0.8098653103248872  0.14340877549988673  1.0000
  C   C22       1.0  0.917293453938358  0.8746646101839529  0.9614823288616865  1.0000
  C   C23       1.0  0.847833832183823  0.9228261282517813  0.9183593596576034  1.0000
  C   C24       1.0  0.8277282332578811  0.9153002409665324  0.7887710459435664  1.0000
  C   C25       1.0  0.8763827186814238  0.8593792935488284  0.7010584153295971  1.0000
  C   C26       1.0  0.9451812684395802  0.8104139420683887  0.7428358495589125  1.0000
  C   C27       1.0  0.9655736919429748  0.8175904445996154  0.8723063842374805  1.0000
  H   H9        1.0  0.9008285082294496  0.25130628286237755  0.7841249116087916  1.0000
  H   H10       1.0  0.903021466043007  0.16540963631299377  0.33531090987796097  1.0000
  H   H11       1.0  0.9013834742861246  0.7487798968281312  0.33670092451362454  1.0000
  H   H12       1.0  0.9022152865269925  0.9298211565616503  0.69918251995762  1.0000
  H   H13       1.0  0.9014824540462951  0.4924242537239726  0.5787218986601477  1.0000
  H   H14       1.0  0.8824446687400479  0.057308430067411154  0.1352487786092751  1.0000
  H   H15       1.0  0.8084528281093567  0.9645782785354374  0.9846677597468974  1.0000
  H   H16       1.0  0.774194098517461  0.9524267660068936  0.7564691974868456  1.0000
  H   H17       1.0  0.8606696926382527  0.8536216686384518  0.6008311562818971  1.0000
  H   H18       1.0  0.9827850785022574  0.7668225231369146  0.6748461969888249  1.0000
  H   H19       1.0  0.019296395298469937  0.7792819704518822  0.9023808056998917  1.0000
  C   C28       1.0  0.9027006610923134  0.44282940123954595  0.14471369183490768  1.0000
  C   C29       1.0  0.9816272004263987  0.4456100057627168  0.13974891864871197  1.0000
  C   C30       1.0  0.021435250933835137  0.4455244138266705  0.02018625175602451  1.0000
  C   C31       1.0  0.9814441328310979  0.4456335950806263  0.9045118513466712  1.0000
  C   C32       1.0  0.9025507712498292  0.44297221258049935  0.9074602258667475  1.0000
  C   C33       1.0  0.8636366127851306  0.4412408381893427  0.028105634933389023  1.0000
  C   C34       1.0  0.10477165696956403  0.4498442981436377  0.01469252338651339  1.0000
  O   O2        1.0  0.13788376145769243  0.5113561089288616  0.9186488793900325  1.0000
  C   C35       1.0  0.15054422127946565  0.38437444146026745  0.11805416120820844  1.0000
  C   C36       1.0  0.2211668979489061  0.4365485476263484  0.145895424835903  1.0000
  C   C37       1.0  0.2651078147888062  0.37468343223207534  0.2420914365623399  1.0000
  C   C38       1.0  0.23934593188242181  0.2597566720817781  0.31061416981490875  1.0000
  C   C39       1.0  0.16971922000835238  0.20615982806228583  0.28270322509601153  1.0000
  C   C40       1.0  0.1255642214569206  0.2676410395178046  0.18661908504587243  1.0000
  H   H20       1.0  0.7537548150174003  0.43959364147650604  0.36124812814670393  1.0000
  H   H21       1.0  0.012233792550158107  0.44930386046669124  0.228928863985143  1.0000
  H   H22       1.0  0.012057955811298093  0.4465485635876081  0.8121402517890495  1.0000
  H   H23       1.0  0.8027901978300248  0.4390980003008891  0.031128865935777794  1.0000
  H   H24       1.0  0.8722436127997287  0.4430547842507262  0.5810513925643122  1.0000
  H   H25       1.0  0.24203982790111578  0.5257266005698054  0.09401981169322737  1.0000
  H   H26       1.0  0.31919330182606087  0.41588003676953433  0.26346777446837644  1.0000
  H   H27       1.0  0.27346575199413725  0.21195929117547063  0.3849593089889456  1.0000
  H   H28       1.0  0.15006907754742937  0.11655557873752542  0.33515073050401933  1.0000
  H   H29       1.0  0.07238026555693144  0.2231842387218328  0.1650136617955229  1.0000
  Zn  Zn1       1.0  0.820305588054974  0.4409027346729977  0.5299076858388245  1.0000
  Zn  Zn2       1.0  0.9849386803368996  0.44489807268913495  0.5222660088525457  1.0000
  C   C41       1.0  0.9025765541753968  0.43777158268881067  0.7632833078189136  1.0000
  C   C42       1.0  0.9026695122635112  0.4480309069173587  0.28889043140062043  1.0000
  C   C43       1.0  0.902663965397757  0.6800877573660726  0.5209853346549329  1.0000
  C   C44       1.0  0.9025820445795151  0.20571317061417282  0.5311884759287064  1.0000
  O   O3        1.0  0.9651364579790566  0.4512871240511227  0.3343774839248397  1.0000
  O   O4        1.0  0.9650623160551353  0.43754675488793726  0.7119960251249484  1.0000
  O   O5        1.0  0.9651320592320947  0.6332201102597039  0.5163387370082262  1.0000
  O   O6        1.0  0.965066658644716  0.2556137765878481  0.5300346772762397  1.0000
  O   O7        1.0  0.8401775535659646  0.630187029412284  0.5221390200160287  1.0000
  O   O8        1.0  0.840107810669448  0.43451523430444117  0.7177962393695445  1.0000
  O   O9        1.0  0.8401819529422763  0.44825555792132277  0.3401761367345226  1.0000
  O   O10       1.0  0.8401121535841239  0.25258220118755603  0.5358334274521437  1.0000
