data_image0
_chemical_formula_structural       NC8NC6H8C7OC6H10C7OC3NC3H11Zn2C4O8
_chemical_formula_sum              "N3 C44 H29 O10 Zn2"
_cell_length_a       17.457602349358154
_cell_length_b       10.299379429549807
_cell_length_c       10.298749378158432
_cell_angle_alpha    85.5342726072926
_cell_angle_beta     92.88501269270333
_cell_angle_gamma    91.68701110263541

_space_group_name_H-M_alt    "P 1"
_space_group_IT_number       1

loop_
  _space_group_symop_operation_xyz
  'x, y, z'

loop_
  _atom_site_type_symbol
  _atom_site_label
  _atom_site_symmetry_multiplicity
  _atom_site_fract_x
  _atom_site_fract_y
  _atom_site_fract_z
  _atom_site_occupancy
  N   N1        1.0  0.7222655473781682  0.4530081663069243  0.6258100510180067  1.0000
  C   C1        1.0  0.6611876396226334  0.4070812594451727  0.615211301311009  1.0000
  C   C2        1.0  0.5852041401014723  0.3499539013116024  0.6020359972872016  1.0000
  C   C3        1.0  0.5266815788331994  0.3901125409129629  0.6769249282557648  1.0000
  C   C4        1.0  0.4521361724800113  0.33510351454109566  0.6643632909481596  1.0000
  C   C5        1.0  0.39002307590722024  0.3775051063208812  0.7436735591519732  1.0000
  C   C6        1.0  0.3154708305508437  0.39597848247805656  0.6878976452385344  1.0000
  C   C7        1.0  0.2569482805054277  0.43595317907391773  0.762894611851247  1.0000
  C   C8        1.0  0.18095766088584084  0.4550325990940838  0.7049027941758181  1.0000
  N   N2        1.0  0.119874119373379  0.47036607274210884  0.6582775263216389  1.0000
  C   C9        1.0  0.2724858549580413  0.4576976175817993  0.8941759621359764  1.0000
  C   C10       1.0  0.34625342371765744  0.4396132211290247  0.950339358050756  1.0000
  C   C11       1.0  0.40476440736212677  0.39981855570937563  0.8758000848612253  1.0000
  C   C12       1.0  0.43740185514791774  0.23925849551129863  0.5754799347689021  1.0000
  C   C13       1.0  0.4959127292615493  0.19937852215085305  0.5009909352958282  1.0000
  C   C14       1.0  0.5696734185232245  0.254499890775308  0.514102529552406  1.0000
  H   H1        1.0  0.5390301483546288  0.4653061201676172  0.7435324229590683  1.0000
  H   H2        1.0  0.3031166901878456  0.3810147083525557  0.5858695401453606  1.0000
  H   H3        1.0  0.2276296640363901  0.48857782547778794  0.9530051870539467  1.0000
  H   H4        1.0  0.358093784142981  0.45613476552759713  0.05199355874914324  1.0000
  H   H5        1.0  0.4612546305761435  0.3848226459136983  0.9219166845145914  1.0000
  H   H6        1.0  0.3809172090914007  0.1939212908500363  0.564844834203944  1.0000
  H   H7        1.0  0.4840778337578554  0.1253015498055552  0.4331845713877245  1.0000
  H   H8        1.0  0.6145297199253745  0.22274990193206823  0.45578481721129793  1.0000
  C   C15       1.0  0.9210818858150143  0.0802957139611411  0.6421988516865562  1.0000
  C   C16       1.0  0.967599465415754  0.07242994698224825  0.7577517198689419  1.0000
  C   C17       1.0  0.9903425189090044  0.951191970644436  0.8168257664722964  1.0000
  C   C18       1.0  0.9675060552477374  0.8372038161848816  0.7574677882175229  1.0000
  C   C19       1.0  0.9210651190062173  0.8430688305865804  0.6419005517245053  1.0000
  C   C20       1.0  0.8979557997048954  0.9650932279939864  0.5851199730779939  1.0000
  C   C21       1.0  0.04012784545023007  0.9428322768101479  0.9380977593342934  1.0000
  O   O1        1.0  0.08880161610143267  0.8541698553048502  0.9544294740017822  1.0000
  C   C22       1.0  0.03469162164675077  0.03495334537397987  0.04084670506872756  1.0000
  C   C23       1.0  0.10032291604696919  0.06727821597069461  0.11777421207156857  1.0000
  C   C24       1.0  0.09558010612155377  0.1528237838673967  0.21588692016823663  1.0000
  C   C25       1.0  0.025303761073948383  0.20604740163838775  0.23890885556105879  1.0000
  C   C26       1.0  0.9595550520785903  0.17340837828004485  0.16421603564306708  1.0000
  C   C27       1.0  0.963989760728306  0.08792901906746486  0.06599049515561073  1.0000
  H   H9        1.0  0.834268433699082  0.30259157717520213  0.42306191245508984  1.0000
  H   H10       1.0  0.9869021393048445  0.1608576297070694  0.801168191647478  1.0000
  H   H11       1.0  0.9854702133522456  0.7436835697736935  0.8023752861830851  1.0000
  H   H12       1.0  0.8620946125591932  0.9703530645277776  0.4960368445166603  1.0000
  H   H13       1.0  0.9037585186854105  0.517937742610683  0.5969163509447859  1.0000
  H   H14       1.0  0.15535956292950748  0.027237220729563916  0.10121935409240068  1.0000
  H   H15       1.0  0.14644203403654132  0.1778105359483788  0.27414043963154555  1.0000
  H   H16       1.0  0.02173718543835923  0.2721567135313019  0.3149645922760689  1.0000
  H   H17       1.0  0.9050122679022473  0.21390953671580704  0.1828112028758927  1.0000
  H   H18       1.0  0.9120685875693948  0.06221090955372399  0.010810473826722955  1.0000
  C   C28       1.0  0.9210381148422917  0.46170872880570246  0.2606457490024183  1.0000
  C   C29       1.0  0.9629429191140519  0.5804097686705363  0.25400238803600095  1.0000
  C   C30       1.0  0.9833627124017077  0.6412005424418648  0.1333411613000992  1.0000
  C   C31       1.0  0.9629459671613233  0.5804587660460747  0.018758588488348105  1.0000
  C   C32       1.0  0.9211088630463938  0.4616557817195701  0.023453657642096726  1.0000
  C   C33       1.0  0.9002441825823566  0.403207554759093  0.1448263527109921  1.0000
  C   C34       1.0  0.02823604293576909  0.7659347232317086  0.12627745164022763  1.0000
  O   O2        1.0  0.07617436841392156  0.7863713863253885  0.038837891723668916  1.0000
  C   C35       1.0  0.018727577548320884  0.8674764574737344  0.21835101880733365  1.0000
  C   C36       1.0  0.9469519216063004  0.8869183837182586  0.2691855226067803  1.0000
  C   C37       1.0  0.9383678813010644  0.9840514268763936  0.35514689520842535  1.0000
  N   N3        1.0  0.8653232075309443  0.0027155341256364096  0.4068459416670187  1.0000
  C   C38       1.0  0.0016738290539068945  0.06307070259333747  0.389684252842887  1.0000
  C   C39       1.0  0.07284486610010266  0.045553147668026206  0.3383402842707448  1.0000
  C   C40       1.0  0.08138468636889984  0.9487298629684608  0.2527519841056325  1.0000
  H   H19       1.0  0.842875471948979  0.23645284695809088  0.4807222714831001  1.0000
  H   H20       1.0  0.9804631518090063  0.6250230227527569  0.34296211784693376  1.0000
  H   H21       1.0  0.979125177574214  0.6266897302028078  0.9256556987512621  1.0000
  H   H22       1.0  0.8679467928706801  0.31170823889717236  0.14919569425748835  1.0000
  H   H23       1.0  0.8423355216389984  0.23695226214054355  0.8250634730159012  1.0000
  H   H24       1.0  0.8974508208879781  0.8277467897712143  0.24112261168493898  1.0000
  H   H25       1.0  0.81775045510001  0.9443633436506522  0.38175520081673286  1.0000
  H   H26       1.0  0.8582921370711942  0.07493125107451037  0.4707312993724868  1.0000
  H   H27       1.0  0.9957769098400684  0.13843207311734895  0.4559063586257148  1.0000
  H   H28       1.0  0.12152630052670266  0.10714891978561125  0.3649286622311081  1.0000
  H   H29       1.0  0.13712108760371322  0.9365175146834908  0.2143084834489588  1.0000
  Zn  Zn1       1.0  0.837006793242707  0.4580137997232716  0.6351869635741219  1.0000
  Zn  Zn2       1.0  0.005132860479586165  0.46534979013628064  0.6489112514341593  1.0000
  C   C41       1.0  0.9210939088674298  0.4564917493922045  0.879268516576337  1.0000
  C   C42       1.0  0.9210475807620847  0.4668735592841098  0.4048299751380642  1.0000
  C   C43       1.0  0.92106385492279  0.6988886538663546  0.6367809738354351  1.0000
  C   C44       1.0  0.9210775773777832  0.22447509190672688  0.6473175830510289  1.0000
  O   O3        1.0  0.9848537240558577  0.47138522762625046  0.4584278165023026  1.0000
  O   O4        1.0  0.9848915604209164  0.4575469482755743  0.8360867186422312  1.0000
  O   O5        1.0  0.9848664315113257  0.6532854765427598  0.6402762414999186  1.0000
  O   O6        1.0  0.9848787955861714  0.2756467061533181  0.6542381915741973  1.0000
  O   O7        1.0  0.8572608007629458  0.6477168812042347  0.6298600187438259  1.0000
  O   O8        1.0  0.8572859296283017  0.4519799133382829  0.8256704260238168  1.0000
  O   O9        1.0  0.8572480931703914  0.4658181475408729  0.4480099623615976  1.0000
  O   O10       1.0  0.857273164706806  0.2700796167716879  0.6438204348136523  1.0000
