data_image0
_chemical_formula_structural       NC10NC3NH7C7OC3FC3H9C6SCOC6H10Zn2C4O8
_chemical_formula_sum              "N3 C43 H26 O10 F1 S1 Zn2"
_cell_length_a       19.210446455230148
_cell_length_b       10.29937835083307
_cell_length_c       10.302041481415108
_cell_angle_alpha    85.53259314287666
_cell_angle_beta     89.98692140310256
_cell_angle_gamma    89.96745330776054

_space_group_name_H-M_alt    "P 1"
_space_group_IT_number       1

loop_
  _space_group_symop_operation_xyz
  'x, y, z'

loop_
  _atom_site_type_symbol
  _atom_site_label
  _atom_site_symmetry_multiplicity
  _atom_site_fract_x
  _atom_site_fract_y
  _atom_site_fract_z
  _atom_site_occupancy
  N   N1        1.0  0.6557872495481731  0.4207428796548456  0.5674825086782329  1.0000
  C   C1        1.0  0.5955589377875026  0.42295036761002835  0.5677133729371133  1.0000
  C   C2        1.0  0.5207547927816866  0.4256872485196419  0.5679993847274147  1.0000
  C   C3        1.0  0.4851563103438616  0.541915234756291  0.5830955727445168  1.0000
  C   C4        1.0  0.4124908477797343  0.5420667949655762  0.5830429708978975  1.0000
  C   C5        1.0  0.3755881137175932  0.42639620205667716  0.5680857739972425  1.0000
  C   C6        1.0  0.2982658414197605  0.42503974629077934  0.5679353583744  1.0000
  C   C7        1.0  0.2605235908101864  0.5286360421916332  0.5045765429970595  1.0000
  C   C8        1.0  0.1877450869342147  0.5272338149892175  0.5044676408451421  1.0000
  C   C9        1.0  0.1517074508768563  0.4224928268385457  0.5676665412392619  1.0000
  C   C10       1.0  0.0767777934651701  0.42119076149099177  0.567529880135961  1.0000
  N   N2        1.0  0.0165398307070076  0.4201438567289524  0.5674200394818143  1.0000
  C   C11       1.0  0.1887260577743682  0.3190222357871364  0.6310003403612745  1.0000
  C   C12       1.0  0.2615063805773841  0.3201501696267999  0.631159506318383  1.0000
  C   C13       1.0  0.4137966488742084  0.3119884133744304  0.5532774949143877  1.0000
  N   N3        1.0  0.4845668548645207  0.31443339038361295  0.5534427629100902  1.0000
  H   H1        1.0  0.513266652590391  0.6313467323223094  0.5951318999075526  1.0000
  H   H2        1.0  0.3852314175637385  0.6320796625387786  0.5964736534796156  1.0000
  H   H3        1.0  0.2872599722889976  0.6099101210564473  0.4535885292019617  1.0000
  H   H4        1.0  0.1596076742297341  0.6076796811112803  0.45480981565537637  1.0000
  H   H5        1.0  0.1613500376358441  0.2376129845515933  0.6805588046024005  1.0000
  H   H6        1.0  0.2889989183255834  0.23982296649304313  0.6822547292494081  1.0000
  H   H7        1.0  0.3875217941969323  0.22111261983874764  0.539800666692362  1.0000
  C   C14       1.0  0.8360934938279516  0.039058509435280886  0.5675152894162943  1.0000
  C   C15       1.0  0.7634665774554823  0.039192402974999485  0.5515065218579287  1.0000
  C   C16       1.0  0.7267471357674664  0.9219717491020412  0.5449091909266801  1.0000
  C   C17       1.0  0.7636367853636662  0.8039481150233391  0.551513366157184  1.0000
  C   C18       1.0  0.8362402199093492  0.801818280126748  0.5673984954090534  1.0000
  C   C19       1.0  0.8720269956903554  0.9198941586037459  0.5756494050608878  1.0000
  C   C20       1.0  0.6501441868177016  0.9220758484626775  0.526632118391303  1.0000
  O   O1        1.0  0.6232595000858699  0.8374535956534401  0.45999008976467715  1.0000
  C   C21       1.0  0.6040403116466975  0.018079724522320095  0.58396670301025  1.0000
  C   C22       1.0  0.5420352103614295  0.05820332464257971  0.5202102900882399  1.0000
  C   C23       1.0  0.49781508784116674  0.1475145426793023  0.5742672335770675  1.0000
  F   F1        1.0  0.43842351014809955  0.18632550288137573  0.5115715003528905  1.0000
  C   C24       1.0  0.5147534543143413  0.19674132079409024  0.6928439019925312  1.0000
  C   C25       1.0  0.5757591822468334  0.15636660330321828  0.7578147900516101  1.0000
  C   C26       1.0  0.620123224587101  0.06712661138768095  0.7041624468768573  1.0000
  H   H8        1.0  0.9732706291510359  0.24628104180285382  0.5957300436518693  1.0000
  H   H9        1.0  0.7354587453706206  0.13075345210143885  0.5427001297886682  1.0000
  H   H10       1.0  0.7354569012946689  0.7135284533338291  0.5454672361176021  1.0000
  H   H11       1.0  0.9280169510380508  0.9189869335663124  0.5879902332376721  1.0000
  H   H12       1.0  0.8641966948321713  0.4736285439644281  0.5724049952616741  1.0000
  H   H13       1.0  0.5281694021931935  0.02125702504305682  0.428074112254029  1.0000
  H   H14       1.0  0.48050313461872773  0.2657714232653279  0.7347198164162672  1.0000
  H   H15       1.0  0.5885488313833537  0.19380177751550254  0.8501646786393002  1.0000
  H   H16       1.0  0.6665119596549353  0.035468919298214496  0.7572951629481208  1.0000
  C   C27       1.0  0.836179939538561  0.42056763463408786  0.18616983735235526  1.0000
  C   C28       1.0  0.8681157661022464  0.5436180223436351  0.17523248789731105  1.0000
  C   C29       1.0  0.884315574105885  0.6043196961543897  0.05283507438793311  1.0000
  C   C30       1.0  0.8681817532220114  0.5432140338380496  0.9401271263714808  1.0000
  C   C31       1.0  0.8361538086067208  0.42030910868403626  0.9487439723712567  1.0000
  C   C32       1.0  0.8203700449931757  0.35956818706449734  0.07233474627571712  1.0000
  S   S1        1.0  0.9257341273774025  0.760790182039065  0.04028140399949187  1.0000
  C   C33       1.0  0.011469436646798004  0.6908442889416158  0.04284565692556774  1.0000
  O   O2        1.0  0.03870691434793261  0.6676253671278474  0.9357842228153093  1.0000
  C   C34       1.0  0.04983147557250733  0.6594366354702605  0.166368321510578  1.0000
  C   C35       1.0  0.11156851959040903  0.5856077636168362  0.1665611910189131  1.0000
  C   C36       1.0  0.1478433552885976  0.5546495299731475  0.28251171431211763  1.0000
  C   C37       1.0  0.12311995429444367  0.5970398246687074  0.3994470836687227  1.0000
  C   C38       1.0  0.06213103102493833  0.6707086370816926  0.40063437572768357  1.0000
  C   C39       1.0  0.025648495380242275  0.7020413654573072  0.2849832371035821  1.0000
  H   H17       1.0  0.775882196176145  0.1887524627997692  0.4140931921813997  1.0000
  H   H18       1.0  0.880629943750644  0.5925270089534929  0.2615371641896438  1.0000
  H   H19       1.0  0.8809909123935584  0.5917909869102338  0.8461461021965673  1.0000
  H   H20       1.0  0.7957514149238926  0.2647048866379129  0.0798461081481332  1.0000
  H   H21       1.0  0.8241668257805329  0.37341046943375233  0.6246939658692852  1.0000
  H   H22       1.0  0.13166921674080223  0.5511150872532358  0.07724433373677542  1.0000
  H   H23       1.0  0.1951499188578738  0.4975841889652266  0.2816652306259513  1.0000
  H   H24       1.0  0.15126369619495295  0.5729409417697906  0.4891079615902336  1.0000
  H   H25       1.0  0.04311095978168811  0.7038124249506739  0.4913052963043014  1.0000
  H   H26       1.0  0.9788703665645798  0.7600479242426079  0.2890567435730165  1.0000
  Zn  Zn1       1.0  0.7598926500228086  0.42056654783812064  0.5674719794055263  1.0000
  Zn  Zn2       1.0  0.9124344118917593  0.42030960195092204  0.567441203869278  1.0000
  C   C40       1.0  0.8361561814826298  0.41518409926863886  0.8046018994962396  1.0000
  C   C41       1.0  0.8361725464941138  0.42569368635947225  0.33031141063065705  1.0000
  C   C42       1.0  0.8362090907872726  0.6576421855043688  0.5622465070117795  1.0000
  C   C43       1.0  0.8361195848350729  0.18323403982012243  0.5726668725883226  1.0000
  O   O3        1.0  0.8940588678820361  0.42731086054210543  0.37867496108439025  1.0000
  O   O4        1.0  0.8940455276014649  0.41337092946617426  0.7562146175068343  1.0000
  O   O5        1.0  0.8940874721190304  0.6091589012593368  0.5605109233216792  1.0000
  O   O6        1.0  0.8940168713174265  0.23152289816023397  0.5743785579248584  1.0000
  O   O7        1.0  0.7783101385421248  0.6093532517179079  0.5605346253536181  1.0000
  O   O8        1.0  0.7782681943239415  0.41356684031746505  0.7562382500692406  1.0000
  O   O9        1.0  0.7782815346956387  0.42750672666464773  0.37869703258819376  1.0000
  O   O10       1.0  0.7782395381230569  0.23171875496058458  0.5744007267770213  1.0000
