data_image0
_chemical_formula_structural       NC8NC6H8C7OC6H10C6SCOC6H10Zn2C4O8
_chemical_formula_sum              "N2 C44 H28 O10 S1 Zn2"
_cell_length_a       17.457602349358154
_cell_length_b       10.299379429549807
_cell_length_c       10.302041481415108
_cell_angle_alpha    85.5191038852169
_cell_angle_beta     92.8727530123399
_cell_angle_gamma    91.68701110263541

_space_group_name_H-M_alt    "P 1"
_space_group_IT_number       1

loop_
  _space_group_symop_operation_xyz
  'x, y, z'

loop_
  _atom_site_type_symbol
  _atom_site_label
  _atom_site_symmetry_multiplicity
  _atom_site_fract_x
  _atom_site_fract_y
  _atom_site_fract_z
  _atom_site_occupancy
  N   N1        1.0  0.7224448550956606  0.453380870658584  0.6262353842680377  1.0000
  C   C1        1.0  0.6613683302913105  0.4074568383631474  0.6156399150395957  1.0000
  C   C2        1.0  0.5853865499165407  0.35033305360249245  0.6024686889781432  1.0000
  C   C3        1.0  0.5268542169545606  0.3904713820158081  0.6773344406530257  1.0000
  C   C4        1.0  0.4523104496750065  0.33546576257970817  0.6647766913683435  1.0000
  C   C5        1.0  0.3901870045014446  0.3778458440274526  0.7440624118055537  1.0000
  C   C6        1.0  0.3156420369248409  0.39633434758812003  0.6883037614085277  1.0000
  C   C7        1.0  0.2571097010889583  0.43628870369478023  0.7632775152888409  1.0000
  C   C8        1.0  0.18112664838577072  0.45538385211029886  0.7053036469866449  1.0000
  N   N2        1.0  0.1200491906540574  0.4707299713465414  0.6586928103810163  1.0000
  C   C9        1.0  0.2726301456249353  0.45799753640407515  0.894518231945427  1.0000
  C   C10       1.0  0.3463903860451645  0.4398979074559115  0.950664244412063  1.0000
  C   C11       1.0  0.404911095759126  0.40012345839100116  0.8761480422916696  1.0000
  C   C12       1.0  0.43758773006397866  0.23964485027086568  0.5759208459759209  1.0000
  C   C13       1.0  0.4961083236872629  0.1997850796300471  0.5014549020114838  1.0000
  C   C14       1.0  0.5698673021155555  0.25490289216079076  0.5145624380248746  1.0000
  H   H1        1.0  0.539194095364654  0.46564689615279287  0.7439213192965046  1.0000
  H   H2        1.0  0.3033012094423933  0.38139824526940846  0.5863072356072605  1.0000
  H   H3        1.0  0.22776627851990813  0.488861788785218  0.9533292482995446  1.0000
  H   H4        1.0  0.35821748237791184  0.4563918814571071  0.05228698154779332  1.0000
  H   H5        1.0  0.46139530156468445  0.3851150409668209  0.9222503681372372  1.0000
  H   H6        1.0  0.3811044717017968  0.19431053003490728  0.5652890371406765  1.0000
  H   H7        1.0  0.48428227572633625  0.12572649755671894  0.43366952523194646  1.0000
  H   H8        1.0  0.6147312129576502  0.223168720101238  0.4562627759264879  1.0000
  C   C15       1.0  0.9212590550810918  0.08066397338338493  0.6426191123468346  1.0000
  C   C16       1.0  0.9677615570566033  0.072766866445376  0.7581362151119209  1.0000
  C   C17       1.0  0.9904969024215361  0.9515128681927946  0.8171919773752885  1.0000
  C   C18       1.0  0.9676681839366933  0.8375408126552398  0.7578523713417824  1.0000
  C   C19       1.0  0.9212423271952149  0.8434371709129915  0.642320904713281  1.0000
  C   C20       1.0  0.8981404167648155  0.9654769682065393  0.585557900542607  1.0000
  C   C21       1.0  0.04026640509194124  0.943120283272738  0.9384264346615812  1.0000
  O   O1        1.0  0.0889380447404522  0.8544534323207464  0.9547530944083271  1.0000
  C   C22       1.0  0.03481677435083386  0.03521348452518991  0.0411435779926731  1.0000
  C   C23       1.0  0.10043803105888083  0.0675174910363805  0.1180472747307143  1.0000
  C   C24       1.0  0.09568241914363917  0.15303644905044766  0.21612961541199338  1.0000
  C   C25       1.0  0.025403070136726713  0.20625382286985738  0.23914442515627643  1.0000
  C   C26       1.0  0.9596641072460189  0.17363505751081187  0.16447472383253237  1.0000
  C   C27       1.0  0.9641116326082114  0.0881823387829852  0.06627958568385206  1.0000
  H   H9        1.0  0.8344741964972409  0.30301927036853504  0.4235499994203378  1.0000
  H   H10       1.0  0.9870585658566267  0.1611827738636047  0.8015392488144035  1.0000
  H   H11       1.0  0.9856264823993346  0.7440083865450761  0.8027459697354007  1.0000
  H   H12       1.0  0.8622908534069755  0.9707609656430491  0.4965023446007806  1.0000
  H   H13       1.0  0.903941596524649  0.5183182834392146  0.5973506272462248  1.0000
  H   H14       1.0  0.15547683806040435  0.02748098576231328  0.10149754073862916  1.0000
  H   H15       1.0  0.14653674599472866  0.17800740175797358  0.27436510450127927  1.0000
  H   H16       1.0  0.02182657055971826  0.2723425071165986  0.3151766214330054  1.0000
  H   H17       1.0  0.9051188967260727  0.21413117261195147  0.18306413557069745  1.0000
  H   H18       1.0  0.9121976594755289  0.06247919505624466  0.011116643433315754  1.0000
  C   C28       1.0  0.9212650701048362  0.46218047210356694  0.26118410630671973  1.0000
  C   C29       1.0  0.956434417013539  0.5868207133953469  0.2530941875552375  1.0000
  C   C30       1.0  0.9742748663902264  0.6483288445274431  0.1321416034848617  1.0000
  C   C31       1.0  0.956507239373973  0.5864200046091854  0.017994877465738135  1.0000
  C   C32       1.0  0.9212363303316534  0.46192064401234245  0.023755951740500603  1.0000
  C   C33       1.0  0.9038544343173113  0.4003939636823006  0.14593941019519585  1.0000
  S   S1        1.0  0.019887800762743435  0.8068612351928912  0.12328164876126979  1.0000
  C   C34       1.0  0.11439751324106506  0.7411802584536387  0.13359228718484295  1.0000
  O   O2        1.0  0.14442278777354933  0.7193162611898085  0.028992077376247316  1.0000
  C   C35       1.0  0.15668566169892073  0.7116809297134514  0.2605810798201966  1.0000
  C   C36       1.0  0.22474654530673543  0.6409229878016147  0.2663580219997217  1.0000
  C   C37       1.0  0.264734173287569  0.6117692405434407  0.385586409473623  1.0000
  C   C38       1.0  0.23747530805828632  0.6529298447546286  0.5002822920754793  1.0000
  C   C39       1.0  0.17023900471975906  0.7235649462361857  0.49595299102547297  1.0000
  C   C40       1.0  0.13002237219588442  0.7530828578114379  0.37700516972540443  1.0000
  H   H19       1.0  0.8548620258919659  0.22736351634510066  0.4837311217046565  1.0000
  H   H20       1.0  0.970215500442446  0.6363526958720163  0.34051446425406784  1.0000
  H   H21       1.0  0.970613514980393  0.6356346267141921  0.9251561292830779  1.0000
  H   H22       1.0  0.876743155659322  0.30430507985690114  0.15125575167405914  1.0000
  H   H23       1.0  0.9080358254006262  0.41442525393961405  0.6986373554059266  1.0000
  H   H24       1.0  0.246908640196698  0.6074300780303459  0.17886192651775068  1.0000
  H   H25       1.0  0.316886551066198  0.5570570231668994  0.38901889741646367  1.0000
  H   H26       1.0  0.2684996294242039  0.6302309675274871  0.592486313261817  1.0000
  H   H27       1.0  0.14926824885100354  0.7557227193318343  0.5849009163147021  1.0000
  H   H28       1.0  0.07845218965121803  0.8087625910876193  0.3768470997133331  1.0000
  Zn  Zn1       1.0  0.8371848774373605  0.4583839608922242  0.6356093945232766  1.0000
  Zn  Zn2       1.0  0.005309153895074026  0.46571622903829835  0.6493294345018881  1.0000
  C   C41       1.0  0.9212401446948446  0.45679571137447894  0.879615400472999  1.0000
  C   C42       1.0  0.9212557225087058  0.46730619729775835  0.4053237051726408  1.0000
  C   C43       1.0  0.9212417311270257  0.6992583827118417  0.6372029114135203  1.0000
  C   C44       1.0  0.9212540787390795  0.2248419630394871  0.6477362593840106  1.0000
  O   O3        1.0  0.9850548722230215  0.4718033289677812  0.4589049571679358  1.0000
  O   O4        1.0  0.9850434307165723  0.4578626219167894  0.8364469679797268  1.0000
  O   O5        1.0  0.9850438516443554  0.6536542574105164  0.6406970972380757  1.0000
  O   O6        1.0  0.9850543939292796  0.27601170029599054  0.6546547258707618  1.0000
  O   O7        1.0  0.8574395800305907  0.6480884871338051  0.6302840984655964  1.0000
  O   O8        1.0  0.8574391590676885  0.45229841206025956  0.8260338993665501  1.0000
  O   O9        1.0  0.8574506006850374  0.46623907438667667  0.4484903275157839  1.0000
  O   O10       1.0  0.85745012238469  0.2704474363922227  0.6442401935686288  1.0000
