data_image0
_chemical_formula_structural       NC10NC5H10C7OC3OC4H12C6SCOC6H10Zn2C4O8
_chemical_formula_sum              "N2 C46 H32 O11 S1 Zn2"
_cell_length_a       19.4436361288709
_cell_length_b       10.299371110280156
_cell_length_c       10.302041481415108
_cell_angle_alpha    85.5593769261431
_cell_angle_beta     89.70072369043199
_cell_angle_gamma    89.43124194409341

_space_group_name_H-M_alt    "P 1"
_space_group_IT_number       1

loop_
  _space_group_symop_operation_xyz
  'x, y, z'

loop_
  _atom_site_type_symbol
  _atom_site_label
  _atom_site_symmetry_multiplicity
  _atom_site_fract_x
  _atom_site_fract_y
  _atom_site_fract_z
  _atom_site_occupancy
  N   N1        1.0  0.6478632078743278  0.40981203043484893  0.562882976261269  1.0000
  C   C1        1.0  0.5890288148379298  0.4197063664946665  0.5772672912548085  1.0000
  C   C2        1.0  0.5157014557871785  0.432045901765701  0.5952600212808743  1.0000
  C   C3        1.0  0.47351148613285365  0.4000987604616042  0.5005954275880644  1.0000
  C   C4        1.0  0.3976081730946923  0.4105342428877172  0.5059259558667784  1.0000
  C   C5        1.0  0.3578685244223672  0.38573008691363087  0.61296713487739  1.0000
  C   C6        1.0  0.2817481313417222  0.38965351442613105  0.6000118547130948  1.0000
  C   C7        1.0  0.24119417206431912  0.44726551474623677  0.6937823986681204  1.0000
  C   C8        1.0  0.169530953199199  0.4509088074232077  0.683241987740538  1.0000
  C   C9        1.0  0.1374268982109632  0.3965439380197908  0.5792173626312196  1.0000
  C   C10       1.0  0.0636344382192237  0.400248555534336  0.5685217237329425  1.0000
  N   N2        1.0  0.0043103054481358  0.4032268735435611  0.5599231391845712  1.0000
  C   C11       1.0  0.1772558925628853  0.33822464622466697  0.4858297293679148  1.0000
  C   C12       1.0  0.2489355282921271  0.334527261959898  0.496118397756953  1.0000
  C   C13       1.0  0.38599960513660153  0.345200428995736  0.7440200100700569  1.0000
  C   C14       1.0  0.44466932473974813  0.38829742735485184  0.7912672765915549  1.0000
  C   C15       1.0  0.488886495073534  0.48619463410654706  0.7169492609346444  1.0000
  H   H1        1.0  0.4956050366918752  0.37102917632150234  0.41029780231358126  1.0000
  H   H2        1.0  0.37291025829029106  0.4330778699136415  0.4127951299663255  1.0000
  H   H3        1.0  0.2650715300975748  0.4905138469077064  0.7746284109308679  1.0000
  H   H4        1.0  0.139193101350314  0.4961850326996249  0.7561629144432795  1.0000
  H   H5        1.0  0.15290668251027503  0.2951717954679878  0.4053181961860286  1.0000
  H   H6        1.0  0.2786075169915959  0.28700728350127647  0.4238928855035702  1.0000
  H   H7        1.0  0.35502807707286105  0.28094964091103125  0.8082312072139022  1.0000
  H   H8        1.0  0.45981749418306106  0.35417873357348806  0.8891691982660366  1.0000
  H   H9        1.0  0.458787542633785  0.5769220805306234  0.6917338779513724  1.0000
  H   H10       1.0  0.5321760173282809  0.5117474236790898  0.7800296217357734  1.0000
  C   C16       1.0  0.8260436795585384  0.025148892448272786  0.5612886622147051  1.0000
  C   C17       1.0  0.8181237594134614  0.03463141437354489  0.42540049277419256  1.0000
  C   C18       1.0  0.813352257323243  0.9222415098360012  0.3570368619886395  1.0000
  C   C19       1.0  0.8181578879764755  0.799362791444928  0.4257112240468379  1.0000
  C   C20       1.0  0.8261364162729308  0.7878799137583391  0.5615286892104707  1.0000
  C   C21       1.0  0.8298530699540448  0.9013745448330043  0.6285706810674971  1.0000
  C   C22       1.0  0.8057066548052492  0.9321131648235305  0.2133862786451488  1.0000
  O   O1        1.0  0.8339027898278177  0.8465765075440795  0.14914388383738375  1.0000
  C   C23       1.0  0.7660663053561606  0.0389401699072065  0.1426209003303638  1.0000
  C   C24       1.0  0.7852954700313143  0.08379067132004314  0.015347820143556179  1.0000
  C   C25       1.0  0.7480959944278983  0.18351613711695447  0.9462918159806573  1.0000
  O   O2        1.0  0.7700593265797394  0.2249631078746792  0.8200405034561307  1.0000
  C   C26       1.0  0.7372773349429279  0.3250831203813511  0.7388963922164864  1.0000
  C   C27       1.0  0.6903982839464718  0.23841983528270583  0.0052455954274721606  1.0000
  C   C28       1.0  0.670463046613925  0.19329308546791624  0.13100782738084815  1.0000
  C   C29       1.0  0.7077846037912143  0.09384693551800272  0.19931081265690787  1.0000
  H   H11       1.0  0.8420389708156196  0.2145745240725121  0.8174900302522605  1.0000
  H   H12       1.0  0.8164225543192198  0.1296163635229881  0.3723970590835397  1.0000
  H   H13       1.0  0.814997431487261  0.7125798057832187  0.373027105249925  1.0000
  H   H14       1.0  0.8359591907584234  0.8932604058287674  0.7333304991931104  1.0000
  H   H15       1.0  0.8297735080039472  0.4560108868507352  0.6135734132088144  1.0000
  H   H16       1.0  0.8297668735853306  0.04208938669943274  0.9696161072051646  1.0000
  H   H17       1.0  0.7653374418193156  0.33768968152487533  0.6448140265277398  1.0000
  H   H18       1.0  0.7382890003488958  0.41850420144569056  0.7858962722245448  1.0000
  H   H19       1.0  0.6833771915517609  0.2978526789194249  0.7195842687774276  1.0000
  H   H20       1.0  0.660525009400534  0.31548927518788483  0.9546168481955717  1.0000
  H   H21       1.0  0.6257317415554279  0.23516101609561813  0.17552024632350327  1.0000
  H   H22       1.0  0.6906237828764132  0.05898102459707322  0.2958098915605394  1.0000
  C   C30       1.0  0.826102955464546  0.40664342931401887  0.18012157024961617  1.0000
  C   C31       1.0  0.8576492031925301  0.5291596444444668  0.16898550999743622  1.0000
  C   C32       1.0  0.873651510577699  0.589590412393777  0.04648649234341695  1.0000
  C   C33       1.0  0.8577144304460598  0.5287545749046874  0.9338794289541803  1.0000
  C   C34       1.0  0.8260771541129145  0.4063853458835134  0.9426957937798512  1.0000
  C   C35       1.0  0.8104859283916093  0.3459084278090445  0.0663848123436197  1.0000
  S   S1        1.0  0.9145650206809217  0.7453682209533603  0.03367364476068402  1.0000
  C   C36       1.0  0.9992818865666439  0.6740020830120386  0.03551656821529936  1.0000
  O   O3        1.0  0.026195880638830937  0.6503319942452039  0.9282255048156189  1.0000
  C   C37       1.0  0.037188233249403124  0.6419589485274615  0.15871642393970764  1.0000
  C   C38       1.0  0.09819351490802486  0.5671081830581428  0.15837886083029895  1.0000
  C   C39       1.0  0.1340375379686889  0.5355490870982338  0.27402354757881464  1.0000
  C   C40       1.0  0.10960630207281241  0.5783481701899735  0.39117735453921787  1.0000
  C   C41       1.0  0.04934022344165978  0.6530264677293114  0.3928889962742137  1.0000
  C   C42       1.0  0.01329095363858701  0.6849634919966345  0.27754553790174374  1.0000
  H   H23       1.0  0.7665407370609532  0.17583680610125474  0.408420350899265  1.0000
  H   H24       1.0  0.8700106755046637  0.5778592896228869  0.2552126451010792  1.0000
  H   H25       1.0  0.8703673864781624  0.5771173031913401  0.839818338892989  1.0000
  H   H26       1.0  0.7861676165661301  0.25145690956045175  0.07404935299611193  1.0000
  H   H27       1.0  0.8142364469136832  0.359687230696607  0.6187200383220537  1.0000
  H   H28       1.0  0.11805667701709122  0.5322831532470806  0.06888439539889957  1.0000
  H   H29       1.0  0.1807834158660726  0.47770072795238727  0.27277038361887507  1.0000
  H   H30       1.0  0.13741580453187896  0.5537831125022101  0.48060091237815317  1.0000
  H   H31       1.0  0.030544885319343296  0.6864447254705592  0.48372819513086385  1.0000
  H   H32       1.0  0.9670671392357413  0.7437442678389465  0.2820219227667604  1.0000
  Zn  Zn1       1.0  0.7507261411436179  0.4079082224777364  0.56203634065219  1.0000
  Zn  Zn2       1.0  0.9014473620427575  0.40512007015974305  0.5607804503440152  1.0000
  C   C43       1.0  0.8260798497954656  0.4012604737965766  0.7985512965202357  1.0000
  C   C44       1.0  0.8260952994568573  0.4117694269776191  0.3242656087164182  1.0000
  C   C45       1.0  0.8261155162613445  0.6437093224693407  0.5563092723975034  1.0000
  C   C46       1.0  0.8260595813683205  0.16931901892377943  0.56650770200049  1.0000
  O   O4        1.0  0.8832906471828978  0.4124260035810725  0.3721650591882546  1.0000
  O   O5        1.0  0.88327842117376  0.3984867744971403  0.7496982802896963  1.0000
  O   O6        1.0  0.8833064511950133  0.5942672997912397  0.554086138757939  1.0000
  O   O7        1.0  0.8832625657351276  0.21664548856158605  0.5677771037977084  1.0000
  O   O8        1.0  0.7689108860174924  0.5963828050287687  0.555039687620241  1.0000
  O   O9        1.0  0.7688828561851417  0.4006038400686207  0.750651760412403  1.0000
  O   O10       1.0  0.7688950822873825  0.4145430244238346  0.3731169782306343  1.0000
  O   O11       1.0  0.768867000832374  0.2187625000826101  0.568729120184136  1.0000
