data_image0
_chemical_formula_structural       NC10NC5H10C7OC3FC3H9C7OC3OC4H12Zn2C4O8
_chemical_formula_sum              "N2 C46 H31 O11 F1 Zn2"
_cell_length_a       19.4436361288709
_cell_length_b       10.29937835083307
_cell_length_c       10.299374482448636
_cell_angle_alpha    85.53885586126866
_cell_angle_beta     89.68637327173957
_cell_angle_gamma    89.43853249218071

_space_group_name_H-M_alt    "P 1"
_space_group_IT_number       1

loop_
  _space_group_symop_operation_xyz
  'x, y, z'

loop_
  _atom_site_type_symbol
  _atom_site_label
  _atom_site_symmetry_multiplicity
  _atom_site_fract_x
  _atom_site_fract_y
  _atom_site_fract_z
  _atom_site_occupancy
  N   N1        1.0  0.6481514040785662  0.40969955081851817  0.5618595787524827  1.0000
  C   C1        1.0  0.5893157726655501  0.4195958391396488  0.5762428673877835  1.0000
  C   C2        1.0  0.5159868620534984  0.4319378151422806  0.5942343308952158  1.0000
  C   C3        1.0  0.4738073168799943  0.3999789677104144  0.49956092030661003  1.0000
  C   C4        1.0  0.3979040091142345  0.4104154066362651  0.5048878904953933  1.0000
  C   C5        1.0  0.3581483947658746  0.38562238968338924  0.6119676428068062  1.0000
  C   C6        1.0  0.2820299972082562  0.3895445007510119  0.5990072615374766  1.0000
  C   C7        1.0  0.2414674926201145  0.4471689905975109  0.6927743486939482  1.0000
  C   C8        1.0  0.1698059282533796  0.4508112277487568  0.6822295756892873  1.0000
  C   C9        1.0  0.1377120077492879  0.39643283173505317  0.578204303318522  1.0000
  C   C10       1.0  0.0639212271476353  0.4001363784432783  0.5675042345021888  1.0000
  N   N2        1.0  0.0045984444983403  0.40311383559697855  0.5589020885693954  1.0000
  C   C11       1.0  0.177549447879838  0.338101068965035  0.48482055523272427  1.0000
  C   C12       1.0  0.2492274589493156  0.33440471015838513  0.4951135477615485  1.0000
  C   C13       1.0  0.3862592315110809  0.3451060196870519  0.7430725145648123  1.0000
  C   C14       1.0  0.4449256102558544  0.38820979536609346  0.790311434618463  1.0000
  C   C15       1.0  0.4891593979864826  0.4861020458064733  0.7159287632070792  1.0000
  H   H1        1.0  0.4959109072976552  0.37089826578646745  0.40925422582963744  1.0000
  H   H2        1.0  0.3732200512235864  0.4329493753416982  0.411723051994894  1.0000
  H   H3        1.0  0.265337042688928  0.4904278697125999  0.7736203959564467  1.0000
  H   H4        1.0  0.1394614636315157  0.49609718186205987  0.7551475916331263  1.0000
  H   H5        1.0  0.153208014623421  0.29503771545984625  0.4043089794249033  1.0000
  H   H6        1.0  0.278905813877982  0.2868750035314558  0.42289217457969164  1.0000
  H   H7        1.0  0.35527474029931955  0.2808602138906484  0.8073300290212682  1.0000
  H   H8        1.0  0.4600583931863533  0.35410089596485883  0.8882540032676796  1.0000
  H   H9        1.0  0.4590700276756996  0.5768297905731925  0.6906644432894509  1.0000
  H   H10       1.0  0.532442266276463  0.5116627826508766  0.7790129971160791  1.0000
  C   C16       1.0  0.8263057090789564  0.025022991340324596  0.5604454498479505  1.0000
  C   C17       1.0  0.7545477202345825  0.026360339278556744  0.5450154699315068  1.0000
  C   C18       1.0  0.7182674001697277  0.9097483075724497  0.5387111447249016  1.0000
  C   C19       1.0  0.7547158958182755  0.7911132274832968  0.5450209500716319  1.0000
  C   C20       1.0  0.8264506995653109  0.7877803140180055  0.5603274490140926  1.0000
  C   C21       1.0  0.8618092646251364  0.9052632332427379  0.5682932533743212  1.0000
  C   C22       1.0  0.6425811345354144  0.9111215896882885  0.5210441959742751  1.0000
  O   O1        1.0  0.6160261944859019  0.8269380232538317  0.4546011457477914  1.0000
  C   C23       1.0  0.5970198633678803  0.007896986121242344  0.5787631778280753  1.0000
  C   C24       1.0  0.5357632824476224  0.049042421307039286  0.5154883028370296  1.0000
  C   C25       1.0  0.4920637183427923  0.13909353150003634  0.5699137022969647  1.0000
  F   F1        1.0  0.43338932755240533  0.17888307402617198  0.5076788008903061  1.0000
  C   C26       1.0  0.5087841253680696  0.18805250180922628  0.6883842746578615  1.0000
  C   C27       1.0  0.5690530984999057  0.1466726699840346  0.7528819500652728  1.0000
  C   C28       1.0  0.6128948108393183  0.05669044288584635  0.6988600977807928  1.0000
  H   H11       1.0  0.9618418906001874  0.22997222212284552  0.5875664858428915  1.0000
  H   H12       1.0  0.7268753320711822  0.11838519338376874  0.5364316191003851  1.0000
  H   H13       1.0  0.7268731412499885  0.7011605352469683  0.5391994363549186  1.0000
  H   H14       1.0  0.9171293415207706  0.9034282342140822  0.5801878791043884  1.0000
  H   H15       1.0  0.8540728498953448  0.4591271994098838  0.5651108638108713  1.0000
  H   H16       1.0  0.5220752395361947  0.012315902632356046  0.4234402161488271  1.0000
  H   H17       1.0  0.4749369988891093  0.25765568219144286  0.7305455751718928  1.0000
  H   H18       1.0  0.581677797737779  0.1839059461393966  0.8451524372098138  1.0000
  H   H19       1.0  0.6587228208811109  0.02426887997887639  0.7516339211919152  1.0000
  C   C29       1.0  0.8264419424729167  0.40648795579336294  0.17900336812472184  1.0000
  C   C30       1.0  0.8982864172336251  0.41982548310460954  0.17603365458684372  1.0000
  C   C31       1.0  0.934436180544322  0.4280256105735658  0.057248518758412636  1.0000
  C   C32       1.0  0.898122004437999  0.41976464739282693  0.940796177752214  1.0000
  C   C33       1.0  0.8263144700803707  0.4063153107301809  0.9417694799736411  1.0000
  C   C34       1.0  0.7908705364320607  0.40009618810107606  0.061375928946927116  1.0000
  C   C35       1.0  0.010379445860737357  0.44074906007727743  0.05407724080140719  1.0000
  O   O2        1.0  0.04411273824669526  0.38658159004966164  0.9679584236318868  1.0000
  C   C36       1.0  0.048051083370115544  0.514937470882429  0.14852103455893806  1.0000
  C   C37       1.0  0.11514733363836438  0.4769784671531958  0.1861342415342193  1.0000
  C   C38       1.0  0.15189826999383493  0.5465663722872669  0.27402189724631065  1.0000
  O   O3        1.0  0.21843492944595466  0.5034431409489148  0.30876949494468353  1.0000
  C   C39       1.0  0.2615396203815401  0.5645199472594131  0.3967947066711257  1.0000
  C   C40       1.0  0.12117297427607676  0.6565251068862796  0.32417472928272284  1.0000
  C   C41       1.0  0.054880005495976825  0.6958025362735341  0.2860440990358277  1.0000
  C   C42       1.0  0.018525995405247464  0.6259742788630129  0.19839421825677528  1.0000
  H   H20       1.0  0.6909797754076198  0.37932862712667603  0.3920828410888604  1.0000
  H   H21       1.0  0.9262994759477632  0.4224000250225013  0.2663920368756427  1.0000
  H   H22       1.0  0.92597692834043  0.4251058175137101  0.8491705562854537  1.0000
  H   H23       1.0  0.735483695273632  0.3898130775401716  0.06286164580567033  1.0000
  H   H24       1.0  0.798793871746091  0.4000639426978869  0.6147700742451532  1.0000
  H   H25       1.0  0.13898370332720922  0.39222255960673413  0.14807087311321698  1.0000
  H   H26       1.0  0.311037823942663  0.5102460569386624  0.4063508768173054  1.0000
  H   H27       1.0  0.2367032113269758  0.5631778139683745  0.49423575520407326  1.0000
  H   H28       1.0  0.27213307915500184  0.6663340969958715  0.3590296508433468  1.0000
  H   H29       1.0  0.14813597319597727  0.7124669513356898  0.39213332531934597  1.0000
  H   H30       1.0  0.031689677922309256  0.7810355770842892  0.3241309633690972  1.0000
  H   H31       1.0  0.967672018911411  0.6596419579964934  0.16858697273182033  1.0000
  Zn  Zn1       1.0  0.751014319615471  0.4077955824611199  0.5610136239262593  1.0000
  Zn  Zn2       1.0  0.9017355166749897  0.405007193444223  0.5597587266133188  1.0000
  C   C43       1.0  0.8263360535884121  0.4011741041948156  0.7975912012964737  1.0000
  C   C44       1.0  0.8264154288630536  0.4116302799154068  0.32318126275732784  1.0000
  C   C45       1.0  0.8264206285374829  0.6436041587533909  0.5551744143236081  1.0000
  C   C46       1.0  0.8263308021751703  0.16919866592981903  0.5655981196410083  1.0000
  O   O4        1.0  0.8836044383702214  0.4122922458062013  0.37109245516363965  1.0000
  O   O5        1.0  0.883540945074531  0.3983948358834106  0.7487271971576481  1.0000
  O   O6        1.0  0.8836084691346667  0.5941601848450797  0.5529739327490106  1.0000
  O   O7        1.0  0.8835368628971897  0.21652690710864064  0.566845622620767  1.0000
  O   O8        1.0  0.7692129219595251  0.596275869749658  0.5539267283402145  1.0000
  O   O9        1.0  0.769145398204456  0.40051208116795656  0.7496799232594404  1.0000
  O   O10       1.0  0.7692088917982169  0.41440944618558495  0.3720436198133785  1.0000
  O   O11       1.0  0.7691413163043351  0.21864409817687203  0.5677968846434194  1.0000
