data_image0
_chemical_formula_structural       NC12NC2H8C7OC3FC3H9C7OC6H10Zn2C4O8
_chemical_formula_sum              "N2 C44 H27 O10 F1 Zn2"
_cell_length_a       19.240039667572717
_cell_length_b       10.29937835083307
_cell_length_c       10.299382801718286
_cell_angle_alpha    85.56292937340861
_cell_angle_beta     89.98040902502626
_cell_angle_gamma    90.0188676237696

_space_group_name_H-M_alt    "P 1"
_space_group_IT_number       1

loop_
  _space_group_symop_operation_xyz
  'x, y, z'

loop_
  _atom_site_type_symbol
  _atom_site_label
  _atom_site_symmetry_multiplicity
  _atom_site_fract_x
  _atom_site_fract_y
  _atom_site_fract_z
  _atom_site_occupancy
  N   N1        1.0  0.6549898639176077  0.42107090743598286  0.5672851704752637  1.0000
  C   C1        1.0  0.5948414951301279  0.42107099140573334  0.5672850885285563  1.0000
  C   C2        1.0  0.52002345803477  0.42107110867119046  0.5672849512101965  1.0000
  C   C3        1.0  0.4835194541066018  0.3566220190313063  0.6707044870135879  1.0000
  C   C4        1.0  0.4108486706198052  0.356511148974167  0.6707910420284824  1.0000
  C   C5        1.0  0.37369122315542436  0.4210712011986397  0.5672847235175615  1.0000
  C   C6        1.0  0.4109094540756236  0.4856314404526665  0.46377859952637057  1.0000
  C   C7        1.0  0.4835801070886118  0.4855203349086765  0.4638652770687972  1.0000
  C   C8        1.0  0.2964861327193895  0.42107112251682466  0.5672846281107546  1.0000
  C   C9        1.0  0.2592706926587667  0.3078132907945219  0.6091681151385235  1.0000
  C   C10       1.0  0.1866000398344771  0.307920178794709  0.6090767775757864  1.0000
  C   C11       1.0  0.1501538457622718  0.421070993349709  0.5672846890356085  1.0000
  C   C12       1.0  0.07533580854176068  0.42107087964742607  0.5672849377095504  1.0000
  N   N2        1.0  0.015187491644323299  0.42107083886013164  0.5672851461338073  1.0000
  C   C13       1.0  0.1866551625697273  0.5342218837258266  0.5254925475960961  1.0000
  C   C14       1.0  0.2593258944089639  0.5343289518247984  0.5254010474183508  1.0000
  H   H1        1.0  0.5112107448942007  0.30672425524205327  0.7514514753084272  1.0000
  H   H2        1.0  0.3837317252517198  0.3074117060304544  0.7526534496137782  1.0000
  H   H3        1.0  0.3838398686696555  0.5347309104406746  0.38191614108953464  1.0000
  H   H4        1.0  0.5113185876959473  0.5354179984814513  0.3831185645810511  1.0000
  H   H5        1.0  0.2863425449727487  0.21865989230062532  0.640345755037748  1.0000
  H   H6        1.0  0.1588637444891013  0.21966618527805548  0.6412872852666582  1.0000
  H   H7        1.0  0.1589616344603245  0.6224758527072569  0.4932820544584282  1.0000
  H   H8        1.0  0.28644052093434447  0.6234824294904378  0.49422336273866074  1.0000
  C   C15       1.0  0.8350187471296957  0.039685926631555235  0.5673491569733282  1.0000
  C   C16       1.0  0.7625059113962729  0.03969073159438041  0.5513243492903188  1.0000
  C   C17       1.0  0.7258439269101036  0.9224056066433038  0.544719233333846  1.0000
  C   C18       1.0  0.7626758564720679  0.8044467298829323  0.5513312245258839  1.0000
  C   C19       1.0  0.8351652647434857  0.8024458789107694  0.567232363013785  1.0000
  C   C20       1.0  0.8708957739977118  0.9205855581274992  0.5754912550834799  1.0000
  C   C21       1.0  0.6493615094417341  0.9223728111120851  0.5264249405463255  1.0000
  O   O1        1.0  0.6225280116771705  0.8376705266302704  0.4597638008569016  1.0000
  C   C22       1.0  0.6033200934090382  0.018330588883351595  0.583763987498068  1.0000
  C   C23       1.0  0.5414197793018538  0.05831737759845157  0.519983012663009  1.0000
  C   C24       1.0  0.49725970187852536  0.14758388428478209  0.5740440332908288  1.0000
  F   F1        1.0  0.4379687345967458  0.18626293578065178  0.5113244205085556  1.0000
  C   C25       1.0  0.5141545159396961  0.1969017621743776  0.6926493598818377  1.0000
  C   C26       1.0  0.5750568147752751  0.15666284178431678  0.757644900432827  1.0000
  C   C27       1.0  0.6193605309317449  0.06746801506023048  0.70398859280693  1.0000
  H   H9        1.0  0.9719807062926016  0.2471512063263046  0.5955937688550905  1.0000
  H   H10       1.0  0.7345424618375297  0.13120060075633377  0.5425112002832282  1.0000
  H   H11       1.0  0.7345402122890962  0.7139770685379976  0.5452789066657449  1.0000
  H   H12       1.0  0.9267977817599372  0.9197778503957557  0.5878444488433869  1.0000
  H   H13       1.0  0.8630779968455109  0.47430521931789993  0.5722447864639992  1.0000
  H   H14       1.0  0.5275888956699639  0.021299122308712448  0.4278244450345585  1.0000
  H   H15       1.0  0.47995070269380957  0.2658972373382078  0.7345284336440967  1.0000
  H   H16       1.0  0.5878131632432103  0.1941682983848414  0.8500170389737465  1.0000
  H   H17       1.0  0.66567006832307  0.03591556344721902  0.7571408636700772  1.0000
  C   C28       1.0  0.8351613305004103  0.4209926626644305  0.18592098022569292  1.0000
  C   C29       1.0  0.9081787183484767  0.4218561537639016  0.1846171828701162  1.0000
  C   C30       1.0  0.9450063322899784  0.4208035358250388  0.06690169678047608  1.0000
  C   C31       1.0  0.9080093577992738  0.42188419167539704  0.9493716099129919  1.0000
  C   C32       1.0  0.8350226674810707  0.4211391242229503  0.9486604919758466  1.0000
  C   C33       1.0  0.799021961863272  0.42035294580023397  0.0675010530652187  1.0000
  C   C34       1.0  0.022103468612527877  0.423099279735788  0.06527284277709478  1.0000
  O   O2        1.0  0.05273842600117318  0.48381063970766447  0.9707366881225856  1.0000
  C   C35       1.0  0.06444694862514977  0.3565133490847221  0.17078919588361652  1.0000
  C   C36       1.0  0.1297837592575357  0.406975200674663  0.20188287858494425  1.0000
  C   C37       1.0  0.17043284236510137  0.34403873505838245  0.300146918371166  1.0000
  C   C38       1.0  0.1465960921742655  0.2297304770989692  0.3675283617168379  1.0000
  C   C39       1.0  0.0821806329823569  0.1778216031284079  0.3364118814972057  1.0000
  C   C40       1.0  0.04133348425325778  0.24037934088644541  0.23824996043291047  1.0000
  H   H18       1.0  0.6973669758657709  0.42137490235912156  0.3955456764746581  1.0000
  H   H19       1.0  0.9364939087258265  0.4248067453951674  0.27521557163412513  1.0000
  H   H20       1.0  0.9363311490938446  0.42205554476041707  0.8584200972242111  1.0000
  H   H21       1.0  0.74273105749299  0.41968805796364994  0.06770194716953126  1.0000
  H   H22       1.0  0.8069846124959222  0.42195792522322173  0.6208453318946412  1.0000
  H   H23       1.0  0.1490967724075265  0.4956518770470557  0.1509338211460336  1.0000
  H   H24       1.0  0.22047025501350315  0.38392410983249037  0.3240134969496653  1.0000
  H   H25       1.0  0.17815983366667876  0.18110121539350987  0.4434791973007035  1.0000
  H   H26       1.0  0.0639988434845995  0.08868899921673234  0.3879897705791491  1.0000
  H   H27       1.0  0.9921300010868601  0.19721166248151678  0.21419766307488497  1.0000
  Zn  Zn1       1.0  0.7589351257268273  0.4210674217363415  0.5672926524245656  1.0000
  Zn  Zn2       1.0  0.9112422446445565  0.42106373266913977  0.5672882647305131  1.0000
  C   C41       1.0  0.8350463542898116  0.41593753732594974  0.8044872180341374  1.0000
  C   C42       1.0  0.8351326795622086  0.4261952557522226  0.330093826288838  1.0000
  C   C43       1.0  0.8351349437237632  0.65826699638031  0.5620792514151778  1.0000
  C   C44       1.0  0.8350440378441416  0.18386423634421245  0.5725018623870177  1.0000
  O   O3        1.0  0.8929228208312057  0.42793422755727395  0.37847788622343614  1.0000
  O   O4        1.0  0.8928537920122632  0.41419478576876134  0.7560994542444273  1.0000
  O   O5        1.0  0.8929245496867162  0.6098788889076077  0.5603533059386969  1.0000
  O   O6        1.0  0.8928520112041338  0.23225013369160208  0.5742239371543527  1.0000
  O   O7        1.0  0.7773253071923066  0.6098810207165506  0.5603569799953918  1.0000
  O   O8        1.0  0.7772545498270257  0.41419847793402487  0.7561030588165687  1.0000
  O   O9        1.0  0.777323578967301  0.4279378741648623  0.37847992939829034  1.0000
  O   O10       1.0  0.7772527693179049  0.23225377102868694  0.5742260776986872  1.0000
