data_image0
_chemical_formula_structural       NC8NC6H8C7OC3NC3H11C7OC3OC4H12Zn2C4O8
_chemical_formula_sum              "N3 C45 H31 O11 Zn2"
_cell_length_a       17.457602349358154
_cell_length_b       10.298746005989749
_cell_length_c       10.299374482448636
_cell_angle_alpha    85.55101224981432
_cell_angle_beta     92.85818479457473
_cell_angle_gamma    91.69721484149154

_space_group_name_H-M_alt    "P 1"
_space_group_IT_number       1

loop_
  _space_group_symop_operation_xyz
  'x, y, z'

loop_
  _atom_site_type_symbol
  _atom_site_label
  _atom_site_symmetry_multiplicity
  _atom_site_fract_x
  _atom_site_fract_y
  _atom_site_fract_z
  _atom_site_occupancy
  N   N1        1.0  0.7228205696804102  0.45328535816894444  0.6265745088272103  1.0000
  C   C1        1.0  0.6617402013520406  0.40735877635857376  0.6159554522070674  1.0000
  C   C2        1.0  0.5857536388894009  0.35023182116584994  0.60275488832303  1.0000
  C   C3        1.0  0.5272149122092562  0.390379141464523  0.677656892625145  1.0000
  C   C4        1.0  0.452666521567625  0.33537048205239506  0.66507092318584  1.0000
  C   C5        1.0  0.3905362901017972  0.37776008219366863  0.744394977869757  1.0000
  C   C6        1.0  0.3160017932373873  0.39624342395254386  0.6886315168112025  1.0000
  C   C7        1.0  0.2574630259201976  0.43620677724160095  0.7636414646863099  1.0000
  C   C8        1.0  0.18149084482811892  0.45529655472610964  0.7056625359525797  1.0000
  N   N2        1.0  0.12042212709611622  0.4706383555472047  0.6590476278705082  1.0000
  C   C9        1.0  0.2729665213654659  0.4579298290493863  0.8949234185917612  1.0000
  C   C10       1.0  0.34671627937144694  0.4398354141771763  0.9510745123952313  1.0000
  C   C11       1.0  0.40524337377357444  0.40005202080968205  0.8765223078468725  1.0000
  C   C12       1.0  0.4379457053720138  0.23953736873432252  0.5761499531408352  1.0000
  C   C13       1.0  0.4964726661446957  0.19966865626502828  0.5016479795966402  1.0000
  C   C14       1.0  0.5702361994403429  0.2547895690120172  0.5147839182601175  1.0000
  H   H1        1.0  0.5395537617687305  0.4655639057088632  0.7442941196234212  1.0000
  H   H2        1.0  0.3036743664623422  0.3812963323675824  0.5866038302182051  1.0000
  H   H3        1.0  0.22809755301038903  0.4888011238839809  0.9537626076168635  1.0000
  H   H4        1.0  0.3585302143816315  0.4563403883402586  0.05272903571208176  1.0000
  H   H5        1.0  0.4617189550219951  0.3850478800909909  0.9226287388452161  1.0000
  H   H6        1.0  0.3814586784694971  0.1942005139486147  0.5654948187100015  1.0000
  H   H7        1.0  0.48464795699514257  0.1256007359654181  0.4338124810569839  1.0000
  H   H8        1.0  0.6151050328697016  0.22304837961449797  0.4564558064029216  1.0000
  C   C15       1.0  0.9215883563802373  0.08055832363299187  0.6427912040825103  1.0000
  C   C16       1.0  0.957500360342605  0.0906618346538588  0.5232165822221369  1.0000
  C   C17       1.0  0.974852585942493  0.9786122518760924  0.46199897151727565  1.0000
  C   C18       1.0  0.957500944720101  0.8554252717237427  0.5231674914948714  1.0000
  C   C19       1.0  0.9216616580204992  0.8433557039676373  0.6428427466778011  1.0000
  C   C20       1.0  0.9037481330687542  0.9564900533293093  0.7017256695386758  1.0000
  C   C21       1.0  0.013427320648125018  0.9891182853345702  0.33633038472481225  1.0000
  O   O1        1.0  0.06027493221038305  0.9031911029806979  0.3149435962642031  1.0000
  C   C22       1.0  0.9988580206560824  0.09704458436326724  0.23493201164350586  1.0000
  C   C23       1.0  0.9262145859618736  0.1532691772657926  0.2168912576206894  1.0000
  C   C24       1.0  0.9127887436368372  0.2543777014212718  0.11988529062269793  1.0000
  N   N3        1.0  0.8389170230883626  0.31139066065920784  0.10264762049842813  1.0000
  C   C25       1.0  0.9720540387705653  0.29887160921644185  0.03958912904078149  1.0000
  C   C26       1.0  0.043997522625573326  0.24245215707410717  0.0557165939125055  1.0000
  C   C27       1.0  0.0573637463718113  0.14176557936931955  0.15241347544925166  1.0000
  H   H9        1.0  0.8547961088217808  0.2688090538725476  0.869678073849901  1.0000
  H   H10       1.0  0.9727656977701017  0.18585617136627897  0.47824027860044027  1.0000
  H   H11       1.0  0.9713463712154681  0.7688496214390746  0.4765990976476766  1.0000
  H   H12       1.0  0.8760702433394316  0.9479501584254798  0.793898251362088  1.0000
  H   H13       1.0  0.8542319406065707  0.6132447551414487  0.8691890136003282  1.0000
  H   H14       1.0  0.8797422772726343  0.11782120700914023  0.2770601111371622  1.0000
  H   H15       1.0  0.7943293677741098  0.2789752371910339  0.16195890918100075  1.0000
  H   H16       1.0  0.8282871487147169  0.3865594981991525  0.030539119311322915  1.0000
  H   H17       1.0  0.962399422720546  0.37681999745496064  0.9643114480550832  1.0000
  H   H18       1.0  0.0895302607252646  0.2768240836872897  0.9931386299544758  1.0000
  H   H19       1.0  0.11362984141145516  0.09957773605989506  0.16353660021246985  1.0000
  C   C28       1.0  0.9216960923749259  0.462047603827173  0.2614402572435488  1.0000
  C   C29       1.0  0.0018338560111039737  0.48021072659122255  0.2656148121463193  1.0000
  C   C30       1.0  0.04215635532190576  0.49083899328132086  0.15042473878666884  1.0000
  C   C31       1.0  0.0016504679175448622  0.48013884651967853  0.03036097981403807  1.0000
  C   C32       1.0  0.921553922617766  0.46186639087136094  0.02419366283839941  1.0000
  C   C33       1.0  0.8820185151674562  0.45326661120648404  0.14027561387206222  1.0000
  C   C34       1.0  0.12686620836193785  0.508663288040913  0.1548050363919795  1.0000
  O   O2        1.0  0.1645004728168744  0.4567591877573529  0.0720283912159887  1.0000
  C   C35       1.0  0.16887863997187047  0.5853846705011523  0.253008593980687  1.0000
  C   C36       1.0  0.24372591800091947  0.551930332659017  0.2972836475878897  1.0000
  C   C37       1.0  0.2847118818766592  0.6239891923761927  0.3888386109072266  1.0000
  O   O3        1.0  0.3589355600178017  0.5853328395617308  0.43019137979494726  1.0000
  C   C38       1.0  0.40700984074261415  0.6493069793657578  0.5225137500987047  1.0000
  C   C39       1.0  0.2504264353309176  0.7318887920343662  0.4359596231757512  1.0000
  C   C40       1.0  0.17647502914932045  0.766715556228396  0.39124726305514024  1.0000
  C   C41       1.0  0.13593184669948277  0.694442992192909  0.29996948143622104  1.0000
  H   H20       1.0  0.7705972304648442  0.42578957459470623  0.4610488615818229  1.0000
  H   H21       1.0  0.033080876162701944  0.4846667240908056  0.35875829986493324  1.0000
  H   H22       1.0  0.032720774976364275  0.4873509619056531  0.9415053074574877  1.0000
  H   H23       1.0  0.8202381542837524  0.43926331907056704  0.13625362154264686  1.0000
  H   H24       1.0  0.8908566463580652  0.45376649464602914  0.6944573558190656  1.0000
  H   H25       1.0  0.2703241525899096  0.46877190273259184  0.2615724455480186  1.0000
  H   H26       1.0  0.46222917341376357  0.5983552238537311  0.5369791498732503  1.0000
  H   H27       1.0  0.37930608884101025  0.6462967828514308  0.6174857123521673  1.0000
  H   H28       1.0  0.41881456779505943  0.7518366322941159  0.4858224255028858  1.0000
  H   H29       1.0  0.2804959732779153  0.789643691975072  0.5066098008763293  1.0000
  H   H30       1.0  0.1505973704321084  0.8503945264898378  0.4270462765766512  1.0000
  H   H31       1.0  0.07920259878264946  0.7246966637274894  0.26511404694166774  1.0000
  Zn  Zn1       1.0  0.8375597887841835  0.45828957356566646  0.6359530479118105  1.0000
  Zn  Zn2       1.0  0.005682890737267021  0.465623488834241  0.6496797208113805  1.0000
  C   C42       1.0  0.921578594120358  0.4567264294768274  0.8800164838658815  1.0000
  C   C43       1.0  0.9216659214338833  0.46718835174784834  0.40561656233197696  1.0000
  C   C44       1.0  0.921644826851305  0.6991718026375662  0.6376574160143669  1.0000
  C   C45       1.0  0.9215996311713932  0.22474141562332584  0.6479756946341144  1.0000
  O   O4        1.0  0.9854576362561552  0.47169115007696183  0.45921264783171134  1.0000
  O   O5        1.0  0.9853884235522082  0.4577889234183352  0.8368382515634127  1.0000
  O   O6        1.0  0.985441046989056  0.6535665905464201  0.6411315194104434  1.0000
  O   O7        1.0  0.9854049554693232  0.27591348976051  0.6549192779246626  1.0000
  O   O8        1.0  0.8578376666799654  0.6479995701381072  0.630713486107457  1.0000
  O   O9        1.0  0.8577850434024983  0.4522234634725162  0.8264201491187324  1.0000
  O   O10       1.0  0.857854256444136  0.46612564524421374  0.44879298395547207  1.0000
  O   O11       1.0  0.857801575635126  0.27034797561483903  0.644499711417371  1.0000
