data_image0
_chemical_formula_structural       NC8NC6H8C6SCOC6H10C7OC3NC3H11Zn2C4O8
_chemical_formula_sum              "N3 C44 H29 S1 O10 Zn2"
_cell_length_a       17.457602349358154
_cell_length_b       10.302038109246572
_cell_length_c       10.298749378158432
_cell_angle_alpha    85.56336078908824
_cell_angle_beta     92.88501269270333
_cell_angle_gamma    91.70619204985762

_space_group_name_H-M_alt    "P 1"
_space_group_IT_number       1

loop_
  _space_group_symop_operation_xyz
  'x, y, z'

loop_
  _atom_site_type_symbol
  _atom_site_label
  _atom_site_symmetry_multiplicity
  _atom_site_fract_x
  _atom_site_fract_y
  _atom_site_fract_z
  _atom_site_occupancy
  N   N1        1.0  0.722574345572359  0.4525893062793038  0.6265752822594024  1.0000
  C   C1        1.0  0.6614866772757394  0.4066756388100914  0.615952345004966  1.0000
  C   C2        1.0  0.5854910368558279  0.3495647488336593  0.6027469546814419  1.0000
  C   C3        1.0  0.5269770102370346  0.38971181186629633  0.6776570353216638  1.0000
  C   C4        1.0  0.4524199131801038  0.3347186429980826  0.6650664273403113  1.0000
  C   C5        1.0  0.390315827936551  0.37710801163121577  0.7443990264734801  1.0000
  C   C6        1.0  0.3157675086043566  0.39557606245091104  0.6886328416206877  1.0000
  C   C7        1.0  0.2572534541162323  0.43553923550347196  0.7636508610309067  1.0000
  C   C8        1.0  0.18126688931931262  0.4546131554813235  0.7056690915909978  1.0000
  N   N2        1.0  0.1201866065283661  0.46994220893451155  0.6590518991581042  1.0000
  C   C9        1.0  0.2727956497702271  0.4572774057216591  0.894943663091379  1.0000
  C   C10       1.0  0.3465593751729391  0.4391982224748203  0.9510975348028754  1.0000
  C   C11       1.0  0.40506190152094923  0.39941502870071544  0.8765373036298139  1.0000
  C   C12       1.0  0.4376652265414331  0.2389012533018633  0.576132594085567  1.0000
  C   C13       1.0  0.4961676252286744  0.19903277617876225  0.5016225917012711  1.0000
  C   C14       1.0  0.5699400290694464  0.25413825491455766  0.5147632157969908  1.0000
  H   H1        1.0  0.5393415601514355  0.46488371499729664  0.7443041309558722  1.0000
  H   H2        1.0  0.3034101880896324  0.38061660194661906  0.5865968558096242  1.0000
  H   H3        1.0  0.2279460216144678  0.4881487117511394  0.9537891511662746  1.0000
  H   H4        1.0  0.3584032468125792  0.4557150041922853  0.05276043662368102  1.0000
  H   H5        1.0  0.46154893775365885  0.3844234417900272  0.9226460056409407  1.0000
  H   H6        1.0  0.3811709452693312  0.1935771180391339  0.5654736165416563  1.0000
  H   H7        1.0  0.4843169866370737  0.12497715807179732  0.4337772149267425  1.0000
  H   H8        1.0  0.6147895828569252  0.22239741867039586  0.4564287822261328  1.0000
  C   C15       1.0  0.9213114739022659  0.07998429610191615  0.6427677927630335  1.0000
  C   C16       1.0  0.8557163491109516  0.08189730292411834  0.557884136713561  1.0000
  C   C17       1.0  0.8234397781659826  0.9659064109102364  0.5151950692361402  1.0000
  C   C18       1.0  0.8559631133416261  0.8467754782433682  0.5578502817429307  1.0000
  C   C19       1.0  0.9214568354794219  0.8425375304771839  0.6428712474456568  1.0000
  C   C20       1.0  0.9538327358822146  0.9597821387857013  0.6848074770494927  1.0000
  S   S1        1.0  0.740178071382506  0.9698155744604695  0.40577706957580206  1.0000
  C   C21       1.0  0.7965701754861977  0.980782546977188  0.26394949054753836  1.0000
  O   O1        1.0  0.8150649609722481  0.8763255784383766  0.2191063895326173  1.0000
  C   C22       1.0  0.8218668898799617  0.10805783580182315  0.200512932801455  1.0000
  C   C23       1.0  0.8761009435392266  0.11277191256589769  0.10342810381206635  1.0000
  C   C24       1.0  0.9007528034909277  0.23218876144615086  0.043713634348721886  1.0000
  C   C25       1.0  0.8715855188884654  0.34814973994571186  0.07983561160280117  1.0000
  C   C26       1.0  0.8175820718128234  0.34491841589397065  0.17558612449592426  1.0000
  C   C27       1.0  0.792674515891661  0.22579402052100295  0.2355999070264463  1.0000
  H   H9        1.0  0.0448617633320223  0.2836786394510664  0.8029250543206827  1.0000
  H   H10       1.0  0.8296112303046104  0.1732825128807316  0.5244736041197999  1.0000
  H   H11       1.0  0.8301051172146457  0.7578979778503596  0.5239713639403805  1.0000
  H   H12       1.0  0.0044022858938561615  0.9573870456005169  0.7502437960768702  1.0000
  H   H13       1.0  0.9464913040073251  0.5136176019603937  0.67488500552713  1.0000
  H   H14       1.0  0.8998310767897509  0.024245515613485757  0.07406629180128221  1.0000
  H   H15       1.0  0.9425965926161809  0.23477452392852238  0.9694276053674806  1.0000
  H   H16       1.0  0.8907580821710247  0.44049468008442827  0.0335235092983841  1.0000
  H   H17       1.0  0.7948572784003367  0.4348717150202095  0.20326925752475056  1.0000
  H   H18       1.0  0.7503811950114863  0.22657643692429819  0.30871679048409373  1.0000
  C   C28       1.0  0.9213487621093579  0.46128736065876574  0.2614155624219434  1.0000
  C   C29       1.0  0.9632787931263003  0.5799541824634475  0.2548347157250239  1.0000
  C   C30       1.0  0.9837115058741484  0.640727432021374  0.13420550463800596  1.0000
  C   C31       1.0  0.963281851586659  0.5800031657144664  0.019590941981990184  1.0000
  C   C32       1.0  0.9214194990609667  0.4612344288357395  0.024223443176875303  1.0000
  C   C33       1.0  0.9005423969826829  0.40280305080049694  0.14556535630640433  1.0000
  C   C34       1.0  0.028611345336841287  0.7654256555718697  0.12720748661994596  1.0000
  O   O2        1.0  0.07655401408353502  0.7858564273695015  0.03977868973516663  1.0000
  C   C35       1.0  0.019124459941093574  0.8669381182828773  0.2193345310552115  1.0000
  C   C36       1.0  0.9473529358627849  0.8863744399850784  0.2701792740052016  1.0000
  C   C37       1.0  0.9387895385993564  0.9834794825097117  0.3561918020242212  1.0000
  N   N3        1.0  0.865748831388233  0.002138209439243699  0.40790067799257934  1.0000
  C   C38       1.0  0.0021122797950805516  0.062475979265891546  0.3907707754044527  1.0000
  C   C39       1.0  0.07327959395144479  0.04496347414257729  0.3394175811578699  1.0000
  C   C40       1.0  0.08179883700934676  0.9481681007821527  0.2537782887106328  1.0000
  H   H19       1.0  0.843138247076605  0.23609641353559718  0.481373453196283  1.0000
  H   H20       1.0  0.9808085071804217  0.6245545758410478  0.3438179412440989  1.0000
  H   H21       1.0  0.9794708871599158  0.6262208028277785  0.9265123999250569  1.0000
  H   H22       1.0  0.8682255615279175  0.31133011153222356  0.14988650945541737  1.0000
  H   H23       1.0  0.8425984029040225  0.23659568475116632  0.8257149177476335  1.0000
  H   H24       1.0  0.8978392597978252  0.8272199034889487  0.2420852001805347  1.0000
  H   H25       1.0  0.8181636777530499  0.9438028402049656  0.38277920578083924  1.0000
  H   H26       1.0  0.8587331084561178  0.0743331086956247  0.47182406832856616  1.0000
  H   H27       1.0  0.99623137663378  0.1378156252969025  0.4570325704859761  1.0000
  H   H28       1.0  0.12197411891919985  0.10654148998913193  0.3660383987219846  1.0000
  H   H29       1.0  0.13753264283472943  0.9359592729622832  0.21532835638299197  1.0000
  Zn  Zn1       1.0  0.8373166552509875  0.4575934967170088  0.6359548310478262  1.0000
  Zn  Zn2       1.0  0.005444281557281938  0.4649273723771772  0.6496829824298866  1.0000
  C   C41       1.0  0.9214034474044424  0.4560718851488186  0.8800355824575306  1.0000
  C   C42       1.0  0.9213593256763368  0.4664507022666442  0.4056025086315227  1.0000
  C   C43       1.0  0.9214249084671607  0.6983989136398479  0.6376756987955123  1.0000
  C   C44       1.0  0.9213378069525234  0.2241221113229217  0.6479624566424962  1.0000
  O   O3        1.0  0.9851664278050768  0.47096107002591814  0.4592027260798375  1.0000
  O   O4        1.0  0.9852013232123534  0.4571267798490162  0.8368543402471778  1.0000
  O   O5        1.0  0.9852177933147048  0.6528088823869751  0.6411469494057191  1.0000
  O   O6        1.0  0.985149900324892  0.2752789742802544  0.6549100148544562  1.0000
  O   O7        1.0  0.8576109791096695  0.6472418923126542  0.6307277939316809  1.0000
  O   O8        1.0  0.8575945092947048  0.4515613497261106  0.8264351157326084  1.0000
  O   O9        1.0  0.8575596137849817  0.4653955947679411  0.4487819400191999  1.0000
  O   O10       1.0  0.8575430863089224  0.2697134897287041  0.6444893261690832  1.0000
