data_image0
_chemical_formula_structural       NC11NC3H8C7OC3OC4H12C7OC3FC3H9Zn2C4O8
_chemical_formula_sum              "N2 C45 H29 O11 F1 Zn2"
_cell_length_a       17.807433833752565
_cell_length_b       10.299371110280156
_cell_length_c       10.29938172300155
_cell_angle_alpha    85.59389208423815
_cell_angle_beta     88.50784037207825
_cell_angle_gamma    90.69823053252264

_space_group_name_H-M_alt    "P 1"
_space_group_IT_number       1

loop_
  _space_group_symop_operation_xyz
  'x, y, z'

loop_
  _atom_site_type_symbol
  _atom_site_label
  _atom_site_symmetry_multiplicity
  _atom_site_fract_x
  _atom_site_fract_y
  _atom_site_fract_z
  _atom_site_occupancy
  N   N1        1.0  0.7078450579165023  0.4381076584197672  0.5351227894048367  1.0000
  C   C1        1.0  0.6570100241344591  0.4033979100786145  0.6016737657540572  1.0000
  C   C2        1.0  0.5937661182617976  0.36022184343631136  0.6844546869891286  1.0000
  C   C3        1.0  0.6054646166132703  0.2967029334207929  0.8071522911038262  1.0000
  C   C4        1.0  0.5441287026841616  0.25520606278431224  0.8876498313878649  1.0000
  C   C5        1.0  0.470939795793577  0.2769149971971998  0.8460904605238164  1.0000
  C   C6        1.0  0.4582646003252771  0.3405883406546455  0.722932710327687  1.0000
  C   C7        1.0  0.3805081083250471  0.3636266842778608  0.6785931250376913  1.0000
  C   C8        1.0  0.3617435961032882  0.34672078407422235  0.5490075995332115  1.0000
  C   C9        1.0  0.2885247487880545  0.3683909788161368  0.5074041447233253  1.0000
  C   C10       1.0  0.2331275171608051  0.4072853911230774  0.5945660461563693  1.0000
  C   C11       1.0  0.15777225989472124  0.42961370307121016  0.5516015130471899  1.0000
  N   N2        1.0  0.0971920057599909  0.4475640070501603  0.517061155366694  1.0000
  C   C12       1.0  0.2512005812524948  0.42440173223695776  0.723620506889525  1.0000
  C   C13       1.0  0.3243666201937737  0.402696673403929  0.7654793791426207  1.0000
  C   C14       1.0  0.5204578228326496  0.38208065057926177  0.6424515843585032  1.0000
  H   H1        1.0  0.6619226029350042  0.2792969802233103  0.8405121245246416  1.0000
  H   H2        1.0  0.5533046393691405  0.2057779892784759  0.982369766760353  1.0000
  H   H3        1.0  0.4242855017924295  0.24237516857630714  0.9095182152642176  1.0000
  H   H4        1.0  0.4034290400645511  0.3150609683196832  0.4802810113741076  1.0000
  H   H5        1.0  0.2750978718323896  0.3544842651113518  0.407365360953591  1.0000
  H   H6        1.0  0.2087982758024922  0.4548383809620582  0.7918319322585468  1.0000
  H   H7        1.0  0.33726530031639834  0.41814875782032757  0.8653359086909822  1.0000
  H   H8        1.0  0.5119805062739071  0.43287114510978597  0.5479664050146382  1.0000
  C   C15       1.0  0.9024714907926416  0.06146325979638556  0.5259793292197259  1.0000
  C   C16       1.0  0.8938380846856565  0.07050762361210161  0.39039711867295823  1.0000
  C   C17       1.0  0.8886349897194143  0.9578618612305566  0.322220757831275  1.0000
  C   C18       1.0  0.8938753232193661  0.8352407235725111  0.3907064716859667  1.0000
  C   C19       1.0  0.90257275602112  0.8241985993757189  0.5262154795720746  1.0000
  C   C20       1.0  0.9066238121504179  0.9379008162553034  0.5931146035633896  1.0000
  C   C21       1.0  0.8803022204825516  0.9673030383137751  0.17886282210819715  1.0000
  O   O1        1.0  0.9111090886762933  0.8829968361221798  0.11341188636186716  1.0000
  C   C22       1.0  0.8370122520675956  0.07230333503961961  0.10976144560365442  1.0000
  C   C23       1.0  0.8580326352708463  0.11794280649849731  0.981646000494103  1.0000
  C   C24       1.0  0.8174086089699129  0.21595245247925265  0.9141509600610149  1.0000
  O   O2        1.0  0.8414153870220283  0.258312069266178  0.786941669186001  1.0000
  C   C25       1.0  0.8056181285344489  0.3569078208385339  0.7071687393884964  1.0000
  C   C26       1.0  0.7543779013079097  0.26829468427716674  0.9755619939729478  1.0000
  C   C27       1.0  0.7325864708103171  0.22234627662555329  0.10219617550115778  1.0000
  C   C28       1.0  0.7733439436344657  0.12462098855193693  0.16893286103785865  1.0000
  H   H9        1.0  0.9199101086767686  0.25176284113391123  0.7815588036664005  1.0000
  H   H10       1.0  0.8919866907595962  0.16538413950885755  0.3374542218495622  1.0000
  H   H11       1.0  0.8904299503221428  0.7482838173954092  0.3381447819443697  1.0000
  H   H12       1.0  0.9132800192120613  0.9301244849711381  0.6976385310447042  1.0000
  H   H13       1.0  0.9065388391720355  0.4925245614030614  0.5781174422051818  1.0000
  H   H14       1.0  0.9066145666071336  0.07821563608802329  0.9340202570435543  1.0000
  H   H15       1.0  0.8362802583086693  0.3707207757626958  0.6118771009284769  1.0000
  H   H16       1.0  0.8067171129875295  0.4504026906237131  0.7541359888873869  1.0000
  H   H17       1.0  0.7467455815715467  0.3272397861697047  0.6901359476458069  1.0000
  H   H18       1.0  0.7217538976534983  0.3439891261160122  0.9261878391965106  1.0000
  H   H19       1.0  0.6837208066074639  0.26222766217514937  0.14861337056591295  1.0000
  H   H20       1.0  0.7545867740620525  0.08904070100917716  0.26617997925023285  1.0000
  C   C29       1.0  0.9025853513220151  0.4427313191260196  0.14472676322135158  1.0000
  C   C30       1.0  0.9263425198467502  0.31285328020772374  0.15244472733788283  1.0000
  C   C31       1.0  0.9391412165025484  0.2478224467114476  0.03909096279686519  1.0000
  C   C32       1.0  0.9262707041751945  0.31314467138574154  0.9171821013819339  1.0000
  C   C33       1.0  0.9024588616633669  0.4429304935661451  0.9074680504529917  1.0000
  C   C34       1.0  0.8909433516725256  0.5070813573873836  0.021814690017272653  1.0000
  C   C35       1.0  0.9634667079057994  0.11024419724546064  0.04716417925467131  1.0000
  O   O3        1.0  0.9403178031714686  0.03643753300145458  0.9640336655567778  1.0000
  C   C36       1.0  0.014058600040708136  0.05639960786263254  0.149445063420111  1.0000
  C   C37       1.0  0.007988984696668311  0.9242907539843938  0.1949581131442759  1.0000
  C   C38       1.0  0.05602184298509627  0.8722499967747072  0.2902695537660003  1.0000
  F   F1        1.0  0.04935226425435579  0.7450202674494665  0.33420763163955014  1.0000
  C   C39       1.0  0.1109011182163464  0.9512068159371821  0.3402161553330467  1.0000
  C   C40       1.0  0.11805246940959613  0.08213648937745144  0.2945874851894208  1.0000
  C   C41       1.0  0.07016864243450738  0.13459263838249735  0.19934023692899605  1.0000
  H   H21       1.0  0.8566489927119503  0.6871869015297456  0.3375806607327676  1.0000
  H   H22       1.0  0.9341190567166692  0.2616514557418075  0.2468733398165095  1.0000
  H   H23       1.0  0.935575697464092  0.2628209595455253  0.8297086784780343  1.0000
  H   H24       1.0  0.8726279923887014  0.6072073376790488  0.015060675692310843  1.0000
  H   H25       1.0  0.8927059106288725  0.4924350432312983  0.5763340300517434  1.0000
  H   H26       1.0  0.9656589815688774  0.8617461160689849  0.1575294185105809  1.0000
  H   H27       1.0  0.14810797085932226  0.9109018735202347  0.4138938134971586  1.0000
  H   H28       1.0  0.16097174070889508  0.14294769393257667  0.33262721599685574  1.0000
  H   H29       1.0  0.077568372209039  0.23573172086828853  0.1637681197064993  1.0000
  Zn  Zn1       1.0  0.820202174803706  0.44083308364800966  0.5299180754510426  1.0000
  Zn  Zn2       1.0  0.9848348709471962  0.44482796489068743  0.522276452094004  1.0000
  C   C42       1.0  0.9024804280800529  0.4377191038399577  0.7632920724257297  1.0000
  C   C43       1.0  0.9025584156511762  0.4479436269916661  0.2889024996473524  1.0000
  C   C44       1.0  0.9025505994981526  0.6800239296546569  0.5209958121798446  1.0000
  C   C45       1.0  0.9024881878368234  0.2056372395139925  0.5311988312566776  1.0000
  O   O4        1.0  0.9650266252377632  0.45120329594150266  0.3343892358601388  1.0000
  O   O5        1.0  0.9649646254570113  0.4374904774883013  0.7120051467490487  1.0000
  O   O6        1.0  0.9650204473174527  0.6331546686122218  0.5163492418256763  1.0000
  O   O7        1.0  0.9649707472167127  0.2555391127192812  0.5300450460188495  1.0000
  O   O8        1.0  0.8400662423531317  0.630121934457571  0.5221494841270775  1.0000
  O   O9        1.0  0.8400104207078856  0.4344593036347806  0.7178053202878902  1.0000
  O   O10       1.0  0.840072420791479  0.4481720764249826  0.34018784797493207  1.0000
  O   O11       1.0  0.8400165427499796  0.2525078839392174  0.5358437554991853  1.0000
