data_image0
_chemical_formula_structural       NC10NC5H10C7OC3FC3H9C7OC3FC3H9Zn2C4O8
_chemical_formula_sum              "N2 C45 H28 O10 F2 Zn2"
_cell_length_a       19.4436361288709
_cell_length_b       10.29937835083307
_cell_length_c       10.29938172300155
_cell_angle_alpha    85.56710995607625
_cell_angle_beta     89.68829794462899
_cell_angle_gamma    89.43853249218071

_space_group_name_H-M_alt    "P 1"
_space_group_IT_number       1

loop_
  _space_group_symop_operation_xyz
  'x, y, z'

loop_
  _atom_site_type_symbol
  _atom_site_label
  _atom_site_symmetry_multiplicity
  _atom_site_fract_x
  _atom_site_fract_y
  _atom_site_fract_z
  _atom_site_occupancy
  N   N1        1.0  0.6481293452337386  0.40898863027791044  0.5619159397891806  1.0000
  C   C1        1.0  0.5892939344380751  0.4188920287359792  0.5762986647402635  1.0000
  C   C2        1.0  0.5159652997871855  0.43124289851614117  0.5942894231583178  1.0000
  C   C3        1.0  0.4737843024703143  0.3992372508753095  0.4996197228413166  1.0000
  C   C4        1.0  0.39788107641202  0.4096763230993208  0.5049464842649767  1.0000
  C   C5        1.0  0.3581271045010781  0.38493623922187803  0.6120220400975476  1.0000
  C   C6        1.0  0.2820085081513007  0.3888519435428972  0.5990621667483862  1.0000
  C   C7        1.0  0.24144744180492944  0.4465227855726104  0.6928255791522657  1.0000
  C   C8        1.0  0.1697857156977219  0.4501598100925901  0.6822812193995582  1.0000
  C   C9        1.0  0.1376901996071995  0.39572999093426264  0.5782600238018998  1.0000
  C   C10       1.0  0.0638992548830773  0.39942824824334777  0.5675603743235969  1.0000
  N   N2        1.0  0.004576340290197799  0.4024014530708173  0.5589585655107783  1.0000
  C   C11       1.0  0.1775262073758065  0.33735206547825625  0.4848799354455524  1.0000
  C   C12       1.0  0.24920437632383452  0.33366079483942723  0.4951725245897547  1.0000
  C   C13       1.0  0.3862399521917939  0.3444846787148852  0.7431217738270417  1.0000
  C   C14       1.0  0.44490705550837695  0.3876118061599201  0.7903588425771151  1.0000
  C   C15       1.0  0.48913970232412507  0.48546728677713746  0.7159790862388433  1.0000
  H   H1        1.0  0.4958865077232646  0.3701119073550969  0.4093165675033925  1.0000
  H   H2        1.0  0.3731956895171623  0.43216423733303877  0.41178529691481325  1.0000
  H   H3        1.0  0.26531823192679  0.48982162957205744  0.7736684580405433  1.0000
  H   H4        1.0  0.1394423695251936  0.49548181000124725  0.7551963776704527  1.0000
  H   H5        1.0  0.153183539196616  0.29424891242905016  0.40437151490394285  1.0000
  H   H6        1.0  0.2788816234885853  0.28609538679078206  0.4229539817792609  1.0000
  H   H7        1.0  0.3552564465907  0.28027063754051773  0.8073767700174947  1.0000
  H   H8        1.0  0.46004134072606  0.35355132302098013  0.8882975728357099  1.0000
  H   H9        1.0  0.45904994449783615  0.5761825425520248  0.6907157564354209  1.0000
  H   H10       1.0  0.5324235382284678  0.511059208252062  0.7790608478629604  1.0000
  C   C16       1.0  0.8262836285435835  0.024311371748865884  0.5605018663046686  1.0000
  C   C17       1.0  0.7545254030272356  0.02564109213592025  0.5450724910925024  1.0000
  C   C18       1.0  0.7182449862638042  0.9090259439926294  0.5387684129537766  1.0000
  C   C19       1.0  0.7546935786949853  0.7903939830496753  0.5450779710178595  1.0000
  C   C20       1.0  0.8264286172199882  0.7870686360948181  0.5603838700952892  1.0000
  C   C21       1.0  0.8617873044629049  0.9045554930810227  0.568349362273908  1.0000
  C   C22       1.0  0.6425584496458824  0.9103904927493534  0.5211021565747236  1.0000
  O   O1        1.0  0.6160024904629714  0.8261740813099939  0.454661710265867  1.0000
  C   C23       1.0  0.5969980637980608  0.007194421590670297  0.5788188764090396  1.0000
  C   C24       1.0  0.5357405123393016  0.048308577905732175  0.5155464811741417  1.0000
  C   C25       1.0  0.4920417830357354  0.13838659238000472  0.5699697476908046  1.0000
  F   F1        1.0  0.4333664376584301  0.1781453701288629  0.5077372852835025  1.0000
  C   C26       1.0  0.5087640072159537  0.1874041266250277  0.6884356771641382  1.0000
  C   C27       1.0  0.569033969642154  0.1460561781414007  0.7529308248935864  1.0000
  C   C28       1.0  0.6128748533700908  0.05604724624869872  0.6989110897372763  1.0000
  H   H11       1.0  0.9618202260594672  0.22927400935959819  0.587621839420295  1.0000
  H   H12       1.0  0.7268528832008692  0.11766170295877698  0.5364889766643663  1.0000
  H   H13       1.0  0.7268507348337019  0.7004384130459069  0.539256685447538  1.0000
  H   H14       1.0  0.9171075638036602  0.9027263739606356  0.5802435218509987  1.0000
  H   H15       1.0  0.8540508409201906  0.4584178860873869  0.5651670974289988  1.0000
  H   H16       1.0  0.5220510575529064  0.011536556806818421  0.4235020018705282  1.0000
  H   H17       1.0  0.4749175274259901  0.257028148737378  0.7305953253676087  1.0000
  H   H18       1.0  0.5816600841662734  0.1833350666609197  0.8451976959376162  1.0000
  H   H19       1.0  0.6587036728805308  0.023651771194149296  0.7516828449307522  1.0000
  C   C29       1.0  0.8264140112072764  0.40558777672124213  0.17907473337979662  1.0000
  C   C30       1.0  0.8481547457065197  0.27472633385716017  0.1877755767186413  1.0000
  C   C31       1.0  0.8598674677154466  0.20916588013401327  0.07494900029268847  1.0000
  C   C32       1.0  0.8480890185836297  0.2750206943110616  0.9525100271283065  1.0000
  C   C33       1.0  0.8262982238353007  0.40579217023743186  0.9418110186177189  1.0000
  C   C34       1.0  0.8157601963108477  0.47041974786203267  0.05568067783950936  1.0000
  C   C35       1.0  0.882127972668768  0.0705805445053711  0.08403076485888183  1.0000
  O   O2        1.0  0.8609301357784577  0.9977252544342039  3.659518187171251e-05  1.0000
  C   C36       1.0  0.9284410565544886  0.014649371438427039  0.18830016883344447  1.0000
  C   C37       1.0  0.9228752771394475  0.8827861110079788  0.23363970239938148  1.0000
  C   C38       1.0  0.9668456943483504  0.8287642820236758  0.3308395114918703  1.0000
  F   F2        1.0  0.9607309842152423  0.7018050357076797  0.3745785008478255  1.0000
  C   C39       1.0  0.01709297508119012  0.9054623882637237  0.382878663532386  1.0000
  C   C40       1.0  0.02364900064509845  0.036101852794329314  0.3374660403879364  1.0000
  C   C41       1.0  0.9798150497887838  0.09053294663806266  0.240336011883586  1.0000
  H   H20       1.0  0.7843761291564436  0.6519446199833081  0.3700312894349611  1.0000
  H   H21       1.0  0.8552706387371326  0.2232023104216545  0.28252999800312617  1.0000
  H   H22       1.0  0.8566042706195511  0.2243118303533307  0.8654213132857493  1.0000
  H   H23       1.0  0.7989993871816637  0.5713038738372496  0.04816892333539058  1.0000
  H   H24       1.0  0.817372811209662  0.45570030302452147  0.6102752904939361  1.0000
  H   H25       1.0  0.8841179552900658  0.8219836287892313  0.19459773314808593  1.0000
  H   H26       1.0  0.0511530105106206  0.8636228830999734  0.45801907248502216  1.0000
  H   H27       1.0  0.06294567746470014  0.09514656037679181  0.37714272640251156  1.0000
  H   H28       1.0  0.9865964227039806  0.1913705665741896  0.20500356522862262  1.0000
  Zn  Zn1       1.0  0.750992247795008  0.40708424373696483  0.5610700181161115  1.0000
  Zn  Zn2       1.0  0.9017134256063469  0.4042952343826778  0.55981516998287  1.0000
  C   C42       1.0  0.8263176105012715  0.4005797136189184  0.7976383239594826  1.0000
  C   C43       1.0  0.8263897090628298  0.41080137276171746  0.3232469776492739  1.0000
  C   C44       1.0  0.8263984671525956  0.6428899335141325  0.5552310373533578  1.0000
  C   C45       1.0  0.8263088006737652  0.16848959347405046  0.5656543341634739  1.0000
  O   O3        1.0  0.8835794534534226  0.4114870227450409  0.37115629240550785  1.0000
  O   O4        1.0  0.8835217524893101  0.39777629020852245  0.748776234811634  1.0000
  O   O5        1.0  0.8835862739978031  0.5934448718347469  0.5530306420161131  1.0000
  O   O6        1.0  0.8835148805305464  0.21581845133499833  0.5669017882533183  1.0000
  O   O7        1.0  0.769190741437069  0.5955610277378078  0.5539834002670498  1.0000
  O   O8        1.0  0.7691262202325768  0.3998940064572003  0.7497289235758824  1.0000
  O   O9        1.0  0.7691839214708095  0.41360469331667926  0.3721074197788967  1.0000
  O   O10       1.0  0.769119348528577  0.21793611264361878  0.5678530129958048  1.0000
