data_image0
_chemical_formula_structural       NC9NC5H8C7OC3NC3H11C6NCOC6H11Zn2C4O8
_chemical_formula_sum              "N4 C44 H30 O10 Zn2"
_cell_length_a       17.807436237873137
_cell_length_b       10.298746005989749
_cell_length_c       10.299662537453274
_cell_angle_alpha    85.54306763902353
_cell_angle_beta     89.37814808442572
_cell_angle_gamma    88.3993582553778

_space_group_name_H-M_alt    "P 1"
_space_group_IT_number       1

loop_
  _space_group_symop_operation_xyz
  'x, y, z'

loop_
  _atom_site_type_symbol
  _atom_site_label
  _atom_site_symmetry_multiplicity
  _atom_site_fract_x
  _atom_site_fract_y
  _atom_site_fract_z
  _atom_site_occupancy
  N   N1        1.0  0.7077382065220157  0.3883992434911223  0.5571796969136216  1.0000
  C   C1        1.0  0.6471488733553805  0.35321073431185535  0.5461534678223556  1.0000
  C   C2        1.0  0.5717824022296244  0.3094401040604744  0.532438036051242  1.0000
  C   C3        1.0  0.5536985875442715  0.23805796135297408  0.42742869426738217  1.0000
  C   C4        1.0  0.4805216338242437  0.19544857757535028  0.4140292572489075  1.0000
  C   C5        1.0  0.4243797452470224  0.22384378828802642  0.5056066874429792  1.0000
  C   C6        1.0  0.3466115067498228  0.17867588287419522  0.49144863888007917  1.0000
  C   C7        1.0  0.2844392993045037  0.2604291015413691  0.5173929286686829  1.0000
  C   C8        1.0  0.2111200197878076  0.21761665821815313  0.5040071611231656  1.0000
  C   C9        1.0  0.1478979258380095  0.30206131239723155  0.5303155201225023  1.0000
  N   N2        1.0  0.0970803501454556  0.36994897173607955  0.5514667139108529  1.0000
  C   C10       1.0  0.199389382085178  0.09279300475949648  0.464651738303707  1.0000
  C   C11       1.0  0.2607042195503319  0.011025935766979966  0.4386990578185832  1.0000
  C   C12       1.0  0.3339040576120981  0.0534438807873443  0.4518822593306684  1.0000
  C   C13       1.0  0.4431549809776222  0.2957202565600692  0.6108352927511573  1.0000
  C   C14       1.0  0.5163848093625645  0.33813928790688785  0.6240790643945975  1.0000
  H   H1        1.0  0.596101168627728  0.21559734226777105  0.35571304422277406  1.0000
  H   H2        1.0  0.46761533908412906  0.14179251922457858  0.3311038265286639  1.0000
  H   H3        1.0  0.2929419835792723  0.35789120873547176  0.5462763199660587  1.0000
  H   H4        1.0  0.1429226042511032  0.05875811449371482  0.4540546258808902  1.0000
  H   H5        1.0  0.2515034312108655  0.9143844364299679  0.40861527707141887  1.0000
  H   H6        1.0  0.3805413119519995  0.9877005640458167  0.43282958348367107  1.0000
  H   H7        1.0  0.4014690531891951  0.31764130596354745  0.6838454379056782  1.0000
  H   H8        1.0  0.5298197102177965  0.3930164140856536  0.7059629171643493  1.0000
  C   C15       1.0  0.902376968745613  0.9977735778535264  0.5543065313992299  1.0000
  C   C16       1.0  0.9375372272172091  0.004660596182455512  0.43128507453952536  1.0000
  C   C17       1.0  0.9545260576558453  0.8910573310191545  0.36840205832769213  1.0000
  C   C18       1.0  0.9375377971523295  0.7694239875734585  0.4312359285666738  1.0000
  C   C19       1.0  0.9024487498184957  0.7605643510881569  0.5543510332156201  1.0000
  C   C20       1.0  0.8849101726826003  0.8753032501035665  0.614953310271932  1.0000
  C   C21       1.0  0.9922934378841061  0.8981079901041984  0.23903101801023707  1.0000
  O   O1        1.0  0.038166697503087654  0.8079658384565339  0.2131453879498202  1.0000
  C   C22       1.0  0.978022090846616  0.007360384025412614  0.13903368715480258  1.0000
  C   C23       1.0  0.9068871182182929  0.07012808075856425  0.1279698992267888  1.0000
  C   C24       1.0  0.8937356771722516  0.1724591263387898  0.03225507874446132  1.0000
  N   N3        1.0  0.8213979763389943  0.23612566639378985  0.022112324388552596  1.0000
  C   C25       1.0  0.9517658580225978  0.21162834480112935  0.9462685400290325  1.0000
  C   C26       1.0  0.022215332968951174  0.14872908023737996  0.95548629598742  1.0000
  C   C27       1.0  0.03530837964092637  0.046825392624059825  0.050897762277215985  1.0000
  H   H9        1.0  0.8369830929142411  0.19200598442982586  0.7876040423714685  1.0000
  H   H10       1.0  0.9524832898187668  0.09848685159805903  0.38484349882880586  1.0000
  H   H11       1.0  0.951093375594023  0.6816083246453175  0.3833386587193386  1.0000
  H   H12       1.0  0.8578116645330356  0.869242349560517  0.709782416350274  1.0000
  H   H13       1.0  0.8364306234614532  0.5364925504873306  0.7871691733338186  1.0000
  H   H14       1.0  0.8613831814846665  0.03885580907655872  0.1926008569739095  1.0000
  H   H15       1.0  0.7777394954751041  0.2077163752306983  0.08570473135438195  1.0000
  H   H16       1.0  0.8109855785169  0.31226176847732523  0.9510260010034339  1.0000
  H   H17       1.0  0.9423083071150881  0.2904566366120047  0.8719194301317059  1.0000
  H   H18       1.0  0.06679910759484442  0.17901024424747258  0.8885365068212088  1.0000
  H   H19       1.0  0.09040595924717443  0.9995699799402914  0.056616917133708755  1.0000
  C   C28       1.0  0.9024645930006395  0.3793070416584494  0.1729520564237308  1.0000
  C   C29       1.0  0.9791571704028192  0.4080500355526049  0.1680146707615906  1.0000
  C   C30       1.0  0.018012177238810212  0.4206350671078136  0.04884073587713145  1.0000
  C   C31       1.0  0.9790256839271767  0.4077461668397324  0.9328732850090926  1.0000
  C   C32       1.0  0.9023611586119469  0.37903085036902984  0.9357055136837316  1.0000
  C   C33       1.0  0.8645775500237076  0.3645257976300196  0.0563059793366969  1.0000
  N   N4        1.0  0.09624625614177518  0.45201625150526326  0.047211302139029465  1.0000
  C   C34       1.0  0.14941252769400815  0.4096433695141617  0.9522157923100671  1.0000
  O   O2        1.0  0.13570101975439108  0.3117265456073637  0.8908595801983163  1.0000
  C   C35       1.0  0.22154839504551171  0.4765596642649286  0.9288110851201159  1.0000
  C   C36       1.0  0.23062382462583408  0.6042107343413863  0.9650393826757315  1.0000
  C   C37       1.0  0.29878402285175554  0.6665418530532838  0.9418525709034875  1.0000
  C   C38       1.0  0.35841512758426264  0.6026838334455078  0.8819991046256872  1.0000
  C   C39       1.0  0.3499494420254765  0.4764503748765363  0.8447559785943795  1.0000
  C   C40       1.0  0.2819172926060589  0.4136561171586626  0.8676118046915806  1.0000
  H   H20       1.0  0.7576237133295338  0.3263025860381039  0.3894386397524132  1.0000
  H   H21       1.0  0.00925803150342519  0.4198439041567741  0.25699415647600077  1.0000
  H   H22       1.0  0.008125110513507394  0.4223324758062774  0.8403340528465293  1.0000
  H   H23       1.0  0.8054585901615859  0.342351123246301  0.059247999176820665  1.0000
  H   H24       1.0  0.8727102525714954  0.3697080044032304  0.6092163764100924  1.0000
  H   H25       1.0  0.11675370470185875  0.49825227878567047  0.12583580105283354  1.0000
  H   H26       1.0  0.1849808678839051  0.6569131992902149  0.009485987934708673  1.0000
  H   H27       1.0  0.30525599175938467  0.7647230871244062  0.9698793439811983  1.0000
  H   H28       1.0  0.411096870385641  0.6511698099716738  0.8641116188390856  1.0000
  H   H29       1.0  0.39614802572079544  0.42713918109596793  0.7981044439066043  1.0000
  H   H30       1.0  0.27673266634391314  0.315636518193241  0.8381911179351031  1.0000
  Zn  Zn1       1.0  0.8200939363806733  0.38307142531899485  0.5555385641703219  1.0000
  Zn  Zn2       1.0  0.9847245996450279  0.3752661989952495  0.553118522867124  1.0000
  C   C41       1.0  0.9023785276895925  0.3739090434177814  0.7915285070171105  1.0000
  C   C42       1.0  0.9024418062347777  0.38443013437220763  0.3171286811582599  1.0000
  C   C43       1.0  0.9024320253210815  0.6163826978483513  0.5491674117270589  1.0000
  C   C44       1.0  0.9023882522700953  0.14195492214868155  0.5594898464230864  1.0000
  O   O3        1.0  0.9649106369836172  0.38318178216569776  0.36459728009581216  1.0000
  O   O4        1.0  0.9648605610226448  0.369232429777272  0.7422227788154963  1.0000
  O   O5        1.0  0.964902918640661  0.5650330116686479  0.5465144920831895  1.0000
  O   O6        1.0  0.9648682232023897  0.18738121226396243  0.560305470277793  1.0000
  O   O7        1.0  0.8399502566429468  0.5709564147152388  0.5483516175786634  1.0000
  O   O8        1.0  0.8399078991777593  0.3751573932817758  0.744059835155205  1.0000
  O   O9        1.0  0.8399579753962243  0.3891067009734934  0.36643277499945004  1.0000
  O   O10       1.0  0.8399155615978434  0.1933061217470744  0.5621410625507672  1.0000
