data_image0
_chemical_formula_structural       NC10NC3NCH9C6SCOC6H10C7OC3OC4H12Zn2C4O8
_chemical_formula_sum              "N3 C45 H31 S1 O11 Zn2"
_cell_length_a       19.437513618241372
_cell_length_b       10.302038109246572
_cell_length_c       10.299374482448636
_cell_angle_alpha    85.55445882342696
_cell_angle_beta     90.32903884356655
_cell_angle_gamma    89.54061355658763

_space_group_name_H-M_alt    "P 1"
_space_group_IT_number       1

loop_
  _space_group_symop_operation_xyz
  'x, y, z'

loop_
  _atom_site_type_symbol
  _atom_site_label
  _atom_site_symmetry_multiplicity
  _atom_site_fract_x
  _atom_site_fract_y
  _atom_site_fract_z
  _atom_site_occupancy
  N   N1        1.0  0.6483237703533683  0.410472112034987  0.5758785647875275  1.0000
  C   C1        1.0  0.5893937351166953  0.42747879870453165  0.5729060537021287  1.0000
  C   C2        1.0  0.515957383669305  0.44872708946072914  0.5692164174760137  1.0000
  C   C3        1.0  0.4741790554070889  0.34756569300615636  0.5575353010168917  1.0000
  C   C4        1.0  0.3982917365911272  0.35763008692132603  0.5503158385349924  1.0000
  C   C5        1.0  0.3587230909524654  0.43843909326446884  0.6160777162105193  1.0000
  C   C6        1.0  0.2825404431466937  0.429835473751047  0.607631502342352  1.0000
  C   C7        1.0  0.24938316725384474  0.30851958846964567  0.6122493378664868  1.0000
  C   C8        1.0  0.1776482796997411  0.3021515444287717  0.60507968550586  1.0000
  C   C9        1.0  0.1380999157633521  0.41662671002480756  0.5936543415912401  1.0000
  C   C10       1.0  0.0642505174634823  0.4099206202700181  0.5863165204881473  1.0000
  N   N2        1.0  0.0048806993047677  0.40452951388888025  0.5804173708674913  1.0000
  C   C11       1.0  0.1705404508141151  0.537631877307643  0.5897817418180784  1.0000
  C   C12       1.0  0.2422597794223975  0.5442538307205467  0.5970134715197986  1.0000
  C   C13       1.0  0.3874120189263516  0.5306737727205371  0.7060202721271454  1.0000
  N   N3        1.0  0.4444106482079601  0.5938767785953776  0.6856287713254823  1.0000
  C   C14       1.0  0.4882631071596782  0.5846525899563226  0.5725154052631465  1.0000
  H   H1        1.0  0.4965477531321036  0.2525368831054642  0.545393548200189  1.0000
  H   H2        1.0  0.3735721936328049  0.28815310393903015  0.49198099748687607  1.0000
  H   H3        1.0  0.278816366329545  0.21862680134011092  0.6232515121391449  1.0000
  H   H4        1.0  0.1530376611336015  0.20794761266486006  0.6089470278005182  1.0000
  H   H5        1.0  0.1404215813817989  0.6268692088456937  0.5810916551307959  1.0000
  H   H6        1.0  0.266388950761874  0.6388704637955973  0.5931307563592287  1.0000
  H   H7        1.0  0.3574024545229928  0.5510283074048636  0.7903941080096222  1.0000
  H   H8        1.0  0.5310274193544248  0.6549457027449515  0.5782938965083257  1.0000
  H   H9        1.0  0.4586116424403836  0.6127822281526567  0.481872708335235  1.0000
  C   C15       1.0  0.8265403770163372  0.026223389003719566  0.5781070384896161  1.0000
  C   C16       1.0  0.7677381612384866  0.031991587339480265  0.4978364660657515  1.0000
  C   C17       1.0  0.7388043225565438  0.9178978109303647  0.4574173485287685  1.0000
  C   C18       1.0  0.7679594594364137  0.7968553132982965  0.4977852752821803  1.0000
  C   C19       1.0  0.8266707064098104  0.7887680929576283  0.5782002747652668  1.0000
  C   C20       1.0  0.8556938088099325  0.9041098815732936  0.6178596145469739  1.0000
  S   S1        1.0  0.6641654618874719  0.9267007295985553  0.353854950141659  1.0000
  C   C21       1.0  0.7147714759003404  0.9343859932911142  0.20807262390173364  1.0000
  O   O1        1.0  0.7313681925657296  0.8288524767412196  0.16193240722675517  1.0000
  C   C22       1.0  0.737472584278874  0.06018912500871698  0.142862011910301  1.0000
  C   C23       1.0  0.7861321320363234  0.061741113173118034  0.04197174348064747  1.0000
  C   C24       1.0  0.8082540252568338  0.17972301318011508  0.9805283343405842  1.0000
  C   C25       1.0  0.7820887595225819  0.2973870170804629  0.018697724616312472  1.0000
  C   C26       1.0  0.7336363458812268  0.2973044760757311  0.11823754368445871  1.0000
  C   C27       1.0  0.7112850783329708  0.17962996183798952  0.17999821550415596  1.0000
  H   H10       1.0  0.9372959592609784  0.2226563271647164  0.7295754110836659  1.0000
  H   H11       1.0  0.7443363470896583  0.12491100491528218  0.4662617991263045  1.0000
  H   H12       1.0  0.7447793737056688  0.7094976161108251  0.46572488462962003  1.0000
  H   H13       1.0  0.901026471218945  0.8987426884560197  0.6797395480621686  1.0000
  H   H14       1.0  0.8491127476573817  0.4583768833625489  0.608453462995816  1.0000
  H   H15       1.0  0.8074198541148484  0.9718291522968203  0.01094418079741133  1.0000
  H   H16       1.0  0.8457967003051735  0.17986900114215199  0.9033062212540948  1.0000
  H   H17       1.0  0.7992936518707235  0.3886159305276413  0.9710409622711085  1.0000
  H   H18       1.0  0.713250598410542  0.388584704942869  0.14751587946847344  1.0000
  H   H19       1.0  0.6733395712515818  0.182878662027272  0.2560828275250633  1.0000
  C   C28       1.0  0.8266692794269278  0.4075821425128088  0.1967719286690599  1.0000
  C   C29       1.0  0.8985356225321314  0.4210451896879328  0.19531714775199527  1.0000
  C   C30       1.0  0.9346963604886965  0.42930805902821145  0.07729468230836423  1.0000
  C   C31       1.0  0.8983711602776948  0.4209840751892855  0.9600761957904571  1.0000
  C   C32       1.0  0.826541771113251  0.40740931631815647  0.959535311941091  1.0000
  C   C33       1.0  0.7910870419065068  0.40112816870208956  0.07839447872894856  1.0000
  C   C34       1.0  0.010662768333776995  0.4421645731366868  0.07572438996034503  1.0000
  O   O2        1.0  0.044407496597124174  0.388072902980104  0.990300390395086  1.0000
  C   C35       1.0  0.04834457376572687  0.5164000480810302  0.17098087661813177  1.0000
  C   C36       1.0  0.11546222151259022  0.4785723379730604  0.20999513498570366  1.0000
  C   C37       1.0  0.15222313115826802  0.5482069348548964  0.29867486055314774  1.0000
  O   O3        1.0  0.218781115564332  0.505215431671356  0.33481032893051466  1.0000
  C   C38       1.0  0.2618979010747955  0.566352734789336  0.42375894286653915  1.0000
  C   C39       1.0  0.1214862476124361  0.6580797109541223  0.3482113761167638  1.0000
  C   C40       1.0  0.055172103259954364  0.6972269238188629  0.3086969518105316  1.0000
  C   C41       1.0  0.01880824676696191  0.6273527557720329  0.22026328516903382  1.0000
  H   H20       1.0  0.6911659186564811  0.3801867085346511  0.40699445964992376  1.0000
  H   H21       1.0  0.926557258740933  0.42366940619107196  0.28626550455982014  1.0000
  H   H22       1.0  0.9262345595003167  0.4263738633373848  0.8690379774242869  1.0000
  H   H23       1.0  0.735683341868607  0.390748291734095  0.07871229298406979  1.0000
  H   H24       1.0  0.7990128180141726  0.4011101856917254  0.6319552874522838  1.0000
  H   H25       1.0  0.13930757030962648  0.39388296295323655  0.17241004838655916  1.0000
  H   H26       1.0  0.3114123977313168  0.5121830337484201  0.4343415261638488  1.0000
  H   H27       1.0  0.23705386902676695  0.5649662975005063  0.5206771759957132  1.0000
  H   H28       1.0  0.2724926544837929  0.668157527808898  0.3862445131964638  1.0000
  H   H29       1.0  0.14845646915624355  0.7140544477267126  0.41675242256657397  1.0000
  H   H30       1.0  0.03197298631937029  0.78239446112248  0.3463192544297904  1.0000
  H   H31       1.0  0.9679379579127968  0.6609195573147257  0.18939548330592948  1.0000
  Zn  Zn1       1.0  0.7512184016525031  0.4087537164978605  0.5771958749585546  1.0000
  Zn  Zn2       1.0  0.9019860706090229  0.4062372400216938  0.5791107296231883  1.0000
  C   C42       1.0  0.8265634606374557  0.40226958337409036  0.8153560841922372  1.0000
  C   C43       1.0  0.8266426582609643  0.41272298386284034  0.3409506689706343  1.0000
  C   C44       1.0  0.826643375954929  0.6446321347464097  0.5730072382386249  1.0000
  C   C45       1.0  0.826562691218885  0.17035887340562716  0.5832995833211188  1.0000
  O   O4        1.0  0.8838492676232236  0.41348764309319574  0.390065047978402  1.0000
  O   O5        1.0  0.8837860233819176  0.39959399732308776  0.7676946615898974  1.0000
  O   O6        1.0  0.8838497844928057  0.5953048352167973  0.5719962441929816  1.0000
  O   O7        1.0  0.8837854550834068  0.21777681536824267  0.5857633673451068  1.0000
  O   O8        1.0  0.7694189657285143  0.5972141420114763  0.570543236576359  1.0000
  O   O9        1.0  0.7693552048926275  0.4015048640628256  0.7662415849161259  1.0000
  O   O10       1.0  0.7694184494329637  0.4153984649408393  0.38861040984659145  1.0000
  O   O11       1.0  0.7693546368724705  0.2196876279072948  0.5843088265832304  1.0000
