data_image0
_chemical_formula_structural       NC12NC2H8C7OC6OCH12C7OC6H10Zn2C4O8
_chemical_formula_sum              "N2 C45 H30 O11 Zn2"
_cell_length_a       19.240039667572717
_cell_length_b       10.299359160628079
_cell_length_c       10.299382801718286
_cell_angle_alpha    85.57723515363111
_cell_angle_beta     89.98040902502626
_cell_angle_gamma    90.02126226386561

_space_group_name_H-M_alt    "P 1"
_space_group_IT_number       1

loop_
  _space_group_symop_operation_xyz
  'x, y, z'

loop_
  _atom_site_type_symbol
  _atom_site_label
  _atom_site_symmetry_multiplicity
  _atom_site_fract_x
  _atom_site_fract_y
  _atom_site_fract_z
  _atom_site_occupancy
  N   N1        1.0  0.6550215868305911  0.42104608982984226  0.5676410252573121  1.0000
  C   C1        1.0  0.5948732180449858  0.42104617379812614  0.5676409433316318  1.0000
  C   C2        1.0  0.5200551809522456  0.4210462910615351  0.5676408060426368  1.0000
  C   C3        1.0  0.48354973831130654  0.35659832696163263  0.6710442029492101  1.0000
  C   C4        1.0  0.4108789523495306  0.35648745884072985  0.6711307302007885  1.0000
  C   C5        1.0  0.3737229460749654  0.4210463835873688  0.5676405783731722  1.0000
  C   C6        1.0  0.4109426181891553  0.48560549536029485  0.4641506211121198  1.0000
  C   C7        1.0  0.48361326872190713  0.48549439175665454  0.4642372708322622  1.0000
  C   C8        1.0  0.2965178556371741  0.42104630490692796  0.5676404829466624  1.0000
  C   C9        1.0  0.2592998872943089  0.3077904511212961  0.6094956087288295  1.0000
  C   C10       1.0  0.1866292368561062  0.3078973372547895  0.6094042979322492  1.0000
  C   C11       1.0  0.1501855686771729  0.4210461757420676  0.5676405438391707  1.0000
  C   C12       1.0  0.0753675314541237  0.42104606204177064  0.5676407924846403  1.0000
  N   N2        1.0  0.015219214555775698  0.4210460212551883  0.5676410008986834  1.0000
  C   C13       1.0  0.186689411379593  0.5341950900491392  0.5258767368657451  1.0000
  C   C14       1.0  0.259360145608937  0.5343021562782726  0.5257852634992553  1.0000
  H   H1        1.0  0.5112399152189363  0.30670143458776233  0.7517786961899564  1.0000
  H   H2        1.0  0.38376091092258713  0.30738887337051146  0.7529808426419959  1.0000
  H   H3        1.0  0.383874128842649  0.5347041078743366  0.38230045782614486  1.0000
  H   H4        1.0  0.511352863206975  0.5353911839157963  0.3835030533735131  1.0000
  H   H5        1.0  0.2863697494151993  0.21863860960384507  0.6406509234484843  1.0000
  H   H6        1.0  0.1588909713952758  0.21964488500735735  0.641592705666346  1.0000
  H   H7        1.0  0.1589978533850971  0.6224475177617768  0.4936883436787074  1.0000
  H   H8        1.0  0.2864767623291764  0.6234540769660841  0.49462990401896056  1.0000
  C   C15       1.0  0.8350419562925939  0.03966776953911011  0.5676095079571424  1.0000
  C   C16       1.0  0.7775704790867921  0.04493262241701257  0.4832128412106924  1.0000
  C   C17       1.0  0.7490818745045725  0.9306032607142454  0.43955233770581037  1.0000
  C   C18       1.0  0.7777359868735728  0.8096711579316146  0.4834679466040601  1.0000
  C   C19       1.0  0.8352055225175339  0.8024143309596474  0.5676837541021584  1.0000
  C   C20       1.0  0.8636235653882275  0.9179988169626507  0.6090587412839652  1.0000
  C   C21       1.0  0.6879147319474209  0.938299144912261  0.35161914777132086  1.0000
  O   O1        1.0  0.6437449668439725  0.027174036807515733  0.3631856478784752  1.0000
  C   C22       1.0  0.676853883036579  0.845241971634973  0.25057198916583645  1.0000
  C   C23       1.0  0.7333971487956857  0.7918809247394548  0.18651702468594689  1.0000
  C   C24       1.0  0.7222434639048392  0.7054759875683366  0.09043554121239628  1.0000
  C   C25       1.0  0.6547300659476388  0.6715550502849326  0.05567296609415173  1.0000
  C   C26       1.0  0.5979530966679953  0.7259506231594448  0.11841617604612487  1.0000
  C   C27       1.0  0.6090432188262848  0.8124144585322447  0.21454408086415167  1.0000
  O   O2        1.0  0.6463297488425173  0.584309567221403  0.9587749914340624  1.0000
  C   C28       1.0  0.5808406088362893  0.5414565871222843  0.9139070722035085  1.0000
  H   H9        1.0  0.9433088459127644  0.2369709677983538  0.7272842368851988  1.0000
  H   H10       1.0  0.7552241194358528  0.13825439591838973  0.45022817050167263  1.0000
  H   H11       1.0  0.7546687137003674  0.7210281952144326  0.4530165923484908  1.0000
  H   H12       1.0  0.9079551843480949  0.9131330663231707  0.674027245786551  1.0000
  H   H13       1.0  0.8570734303711884  0.47212515645180875  0.6004017602434601  1.0000
  H   H14       1.0  0.7862334195130117  0.8179733227274517  0.20964805902150196  1.0000
  H   H15       1.0  0.7663614371142096  0.6650191243562034  0.0422544332659236  1.0000
  H   H16       1.0  0.5450880803555679  0.702134902718897  0.09364053158611174  1.0000
  H   H17       1.0  0.5645369971991379  0.8528253281440629  0.26167443116826616  1.0000
  H   H18       1.0  0.5895305098773959  0.47304661144167937  0.8374325110496277  1.0000
  H   H19       1.0  0.5503083119591694  0.6257967520148345  0.8713971923395123  1.0000
  H   H20       1.0  0.5516501343805944  0.48990272526273493  0.9954425268737741  1.0000
  C   C29       1.0  0.8351930516667165  0.4209678464247577  0.18627681541422492  1.0000
  C   C30       1.0  0.9082104587907056  0.4218313224442054  0.18497323428813806  1.0000
  C   C31       1.0  0.9450380492343597  0.4207787228882798  0.0672574846091687  1.0000
  C   C32       1.0  0.9080410988673999  0.42185935986604695  0.9497276683520748  1.0000
  C   C33       1.0  0.8350543919168738  0.4211143054254707  0.9490163638402729  1.0000
  C   C34       1.0  0.7990536687490223  0.4203281407325874  0.06785672806026288  1.0000
  C   C35       1.0  0.022135236805361114  0.4230744267061193  0.06562920549015461  1.0000
  O   O3        1.0  0.052771549468525025  0.483784726413788  0.9711082537559621  1.0000
  C   C36       1.0  0.06447723040398845  0.3564896589128619  0.17112888460685927  1.0000
  C   C37       1.0  0.12981516750861366  0.4069506292361815  0.202235203617259  1.0000
  C   C38       1.0  0.1704628456700843  0.3440152627433908  0.30048348328754426  1.0000
  C   C39       1.0  0.14662354374808473  0.22970900106531023  0.3678363023471163  1.0000
  C   C40       1.0  0.08220692578170286  0.17780103363219357  0.336706823465041  1.0000
  C   C41       1.0  0.041361173544264496  0.24035767888085058  0.2385605676782625  1.0000
  H   H21       1.0  0.6973987055649071  0.42135007944400815  0.3959016073810202  1.0000
  H   H22       1.0  0.936525715034833  0.4247818625462898  0.27557236191896695  1.0000
  H   H23       1.0  0.9363628939871272  0.4220307099585534  0.8587761985723525  1.0000
  H   H24       1.0  0.7427627495362865  0.4196632645076155  0.0680574556679463  1.0000
  H   H25       1.0  0.8070163552100202  0.42193309212618746  0.6212014087975706  1.0000
  H   H26       1.0  0.14913016020971148  0.4956257569576117  0.15130835198045034  1.0000
  H   H27       1.0  0.2205011486894497  0.38389994095864544  0.3243600496866883  1.0000
  H   H28       1.0  0.1781861996776104  0.1810805886220921  0.4437749605264385  1.0000
  H   H29       1.0  0.06402314655505692  0.08866998633380652  0.3882623925746511  1.0000
  H   H30       1.0  0.9921567267352374  0.1971907543569813  0.21449746056773988  1.0000
  Zn  Zn1       1.0  0.7589668485619983  0.42104260419107487  0.5676485063337489  1.0000
  Zn  Zn2       1.0  0.9112739673973757  0.42103891518829895  0.567644117715906  1.0000
  C   C42       1.0  0.8350779626093198  0.4159128093690707  0.8048417873530245  1.0000
  C   C43       1.0  0.835164516867271  0.4261703486543764  0.33045096427487297  1.0000
  C   C44       1.0  0.8351719616229784  0.658238036377697  0.5624945032069688  1.0000
  C   C45       1.0  0.835070465534665  0.1838435613193503  0.5727983175094149  1.0000
  O   O4        1.0  0.8929546969557605  0.42790929008999545  0.3788354596708048  1.0000
  O   O5        1.0  0.8928853614279029  0.4141700882473245  0.7564535871554812  1.0000
  O   O6        1.0  0.8929604874063888  0.6098507739557149  0.5607564407141254  1.0000
  O   O7        1.0  0.8928795190248627  0.2322286136546179  0.5745325087396689  1.0000
  O   O8        1.0  0.7773612449595682  0.6098529057274271  0.5607601153046529  1.0000
  O   O9        1.0  0.7772861193250864  0.41417378034810803  0.7564571926521888  1.0000
  O   O10       1.0  0.77735545517326  0.4279129366338994  0.3788375037588174  1.0000
  O   O11       1.0  0.7772802772198307  0.23223225092818045  0.5745346501948401  1.0000
