data_image0
_chemical_formula_structural       NC10NC3NCH9C6NCOC6H11C7OC3NC3H11Zn2C4O8
_chemical_formula_sum              "N5 C44 H31 O10 Zn2"
_cell_length_a       19.437513618241372
_cell_length_b       10.29965916528486
_cell_length_c       10.298749378158432
_cell_angle_alpha    85.57464278776027
_cell_angle_beta     90.35618214226261
_cell_angle_gamma    89.53922106887035

_space_group_name_H-M_alt    "P 1"
_space_group_IT_number       1

loop_
  _space_group_symop_operation_xyz
  'x, y, z'

loop_
  _atom_site_type_symbol
  _atom_site_label
  _atom_site_symmetry_multiplicity
  _atom_site_fract_x
  _atom_site_fract_y
  _atom_site_fract_z
  _atom_site_occupancy
  N   N1        1.0  0.6479500951186956  0.4105604646953147  0.5760832298397598  1.0000
  C   C1        1.0  0.5890191088350359  0.42757037201920944  0.573113921941319  1.0000
  C   C2        1.0  0.5155815752109051  0.4488226903668333  0.5694282890583944  1.0000
  C   C3        1.0  0.47380155344760627  0.34763767920124056  0.557726598095617  1.0000
  C   C4        1.0  0.3979123048628724  0.3577031501951977  0.5505087483999174  1.0000
  C   C5        1.0  0.358359138935291  0.43853958638008383  0.6162899841872245  1.0000
  C   C6        1.0  0.2821744813749047  0.4299328271564953  0.6078416344607835  1.0000
  C   C7        1.0  0.2490198374710583  0.3085914498065083  0.6124357611788716  1.0000
  C   C8        1.0  0.17728323253867273  0.3022209425136426  0.6052644803887741  1.0000
  C   C9        1.0  0.1377306156449414  0.4167190898447646  0.5938611423015223  1.0000
  C   C10       1.0  0.0638794619801096  0.4100104383235299  0.5865216173274665  1.0000
  N   N2        1.0  0.004508232615582901  0.4046172724791153  0.5806210979347315  1.0000
  C   C11       1.0  0.1701687090495673  0.5377497952353054  0.5900122285988845  1.0000
  C   C12       1.0  0.2418897674874737  0.5443742761444592  0.5972456400676935  1.0000
  C   C13       1.0  0.3870694610127592  0.5308078331574111  0.7062554061476767  1.0000
  N   N3        1.0  0.444062216535439  0.5940213896591298  0.6858753255296979  1.0000
  C   C14       1.0  0.487886470868668  0.5847780390220039  0.5727542796845162  1.0000
  H   H1        1.0  0.49616836774513257  0.2525865087390855  0.5455654575004569  1.0000
  H   H2        1.0  0.37317900361245443  0.28820231145561914  0.49215717090048416  1.0000
  H   H3        1.0  0.2784568844925063  0.21868092423320018  0.6234207603153434  1.0000
  H   H4        1.0  0.1526747282322117  0.20799725844031136  0.6091134269573615  1.0000
  H   H5        1.0  0.14004657845480173  0.627005074670248  0.5813393074182871  1.0000
  H   H6        1.0  0.2660168156977988  0.6390107483007947  0.5933814013049825  1.0000
  H   H7        1.0  0.3570807711487229  0.5511795703549867  0.7906376303497236  1.0000
  H   H8        1.0  0.5306513744500913  0.6550872058089523  0.5785469462361819  1.0000
  H   H9        1.0  0.45821197239089373  0.6128999912143782  0.4821124406015169  1.0000
  C   C15       1.0  0.8261719345212963  0.02622911763816904  0.5782359675135473  1.0000
  C   C16       1.0  0.82662826765042  0.03551341102021266  0.4414162569316564  1.0000
  C   C17       1.0  0.8278726852959962  0.9233376190657434  0.37259170684983567  1.0000
  C   C18       1.0  0.8267579208490174  0.8003209333768303  0.4417143119604554  1.0000
  C   C19       1.0  0.8262929753199392  0.7889384294945203  0.5784796855541221  1.0000
  C   C20       1.0  0.8262447043723876  0.9024963647491884  0.6459716359361205  1.0000
  N   N4        1.0  0.8272822748051742  0.9364314715637492  0.23250830989884408  1.0000
  C   C21       1.0  0.8595257559978525  0.844771547248562  0.15318701087178144  1.0000
  O   O1        1.0  0.9069914385908464  0.7711579522126262  0.20077241606873786  1.0000
  C   C22       1.0  0.8395165306573991  0.8389195694611735  0.014556499432033965  1.0000
  C   C23       1.0  0.7758943984324344  0.889841070089099  0.9673977925633142  1.0000
  C   C24       1.0  0.75744769071367  0.8831456768184953  0.8366313210609171  1.0000
  C   C25       1.0  0.80198215406004  0.8253232563743232  0.7517355565431991  1.0000
  C   C26       1.0  0.8649985257090024  0.7736244423794159  0.7975102391592963  1.0000
  C   C27       1.0  0.8837078749983143  0.7799591337270082  0.9281755714635276  1.0000
  H   H10       1.0  0.8246544679390745  0.21599076008063034  0.8363134425350618  1.0000
  H   H11       1.0  0.8265446754981814  0.1301284394283655  0.38758847642847494  1.0000
  H   H12       1.0  0.8250449763124332  0.7135631362287164  0.38888352579358454  1.0000
  H   H13       1.0  0.8259021226295602  0.8944736809191356  0.7514443102569428  1.0000
  H   H14       1.0  0.8251993024125105  0.4571382763192424  0.6309308789711652  1.0000
  H   H15       1.0  0.8076479034103395  0.022895386121183137  0.18631482657539866  1.0000
  H   H16       1.0  0.7398469125397009  0.9331335395545711  0.031425818024489516  1.0000
  H   H17       1.0  0.7084128897382749  0.9223991321523094  0.8012191160051194  1.0000
  H   H18       1.0  0.7875658688655233  0.8202144001126177  0.6505876273081914  1.0000
  H   H19       1.0  0.8994180235479088  0.7285634771122094  0.7316976535566964  1.0000
  H   H20       1.0  0.9329147801154761  0.7395168690756108  0.961371105845648  1.0000
  C   C28       1.0  0.8262007336558205  0.40761232344002307  0.19695638672697657  1.0000
  C   C29       1.0  0.8638000001689667  0.5238476891343362  0.18745233888020296  1.0000
  C   C30       1.0  0.882122273979718  0.5834367141642149  0.06539921893650447  1.0000
  C   C31       1.0  0.8638027422440637  0.5238965037370953  0.9522083598737474  1.0000
  C   C32       1.0  0.8262641675851196  0.4075552350413858  0.9597592860051165  1.0000
  C   C33       1.0  0.8075433596282159  0.3503346281376798  0.0825567996704133  1.0000
  C   C34       1.0  0.9223846396447476  0.7055307546578073  0.055270487566285276  1.0000
  O   O2        1.0  0.9653769277423385  0.7231565230851349  0.9644765603880141  1.0000
  C   C35       1.0  0.913876050338787  0.8076210610714918  0.14808426011384812  1.0000
  C   C36       1.0  0.8495147768043873  0.8312673518331397  0.20397657219248755  1.0000
  C   C37       1.0  0.8418343781101311  0.9288951705574318  0.2906100603097619  1.0000
  N   N5        1.0  0.776334975426076  0.9518380721047475  0.34745554354942687  1.0000
  C   C38       1.0  0.8986180171190512  0.004198044790122424  0.3207546322579282  1.0000
  C   C39       1.0  0.9624374426498179  0.9825113923499904  0.26439670940338456  1.0000
  C   C40       1.0  0.9700782423402211  0.8851958970625335  0.17813962091691926  1.0000
  H   H21       1.0  0.7560682780989149  0.18695584983318914  0.42236605578254016  1.0000
  H   H22       1.0  0.879519209784528  0.5674304802956551  0.2752124707571624  1.0000
  H   H23       1.0  0.8783196801972758  0.5691754508456646  0.8580012593873367  1.0000
  H   H24       1.0  0.7785643850545432  0.2607356882760212  0.08913095631677082  1.0000
  H   H25       1.0  0.7555841673431954  0.18748686342270116  0.7667455563537859  1.0000
  H   H26       1.0  0.8051141607055402  0.7750015181252823  0.179350386801449  1.0000
  H   H27       1.0  0.7336637497769062  0.8962785721490021  0.3256665948716486  1.0000
  H   H28       1.0  0.7700427550875886  0.024459676384856355  0.41188621410646253  1.0000
  H   H29       1.0  0.8933434069304349  0.07989857499370911  0.38744457906206686  1.0000
  H   H30       1.0  0.0061034563981468  0.04124923046895779  0.2876076826456464  1.0000
  H   H31       1.0  0.020057621339397702  0.8697184622963696  0.13577059426396665  1.0000
  Zn  Zn1       1.0  0.7508450771001639  0.40884189810867677  0.5774002690285616  1.0000
  Zn  Zn2       1.0  0.901613256038174  0.4063251689773575  0.5793147261191076  1.0000
  C   C41       1.0  0.826249836088138  0.40239251733932235  0.8155715342170535  1.0000
  C   C42       1.0  0.8262101437046936  0.4127761608344094  0.34114360983739944  1.0000
  C   C43       1.0  0.8262661330639524  0.644770608524355  0.5732579782158544  1.0000
  C   C44       1.0  0.8261937950403637  0.1703965102382472  0.5834572339312465  1.0000
  O   O3        1.0  0.8834290390758596  0.41354844064291885  0.39026068375781775  1.0000
  O   O4        1.0  0.8834604998061376  0.39970911868252124  0.7679071147398226  1.0000
  O   O5        1.0  0.8834728886370335  0.595432505377743  0.5722371944977043  1.0000
  O   O6        1.0  0.8834165987913707  0.21782506410376823  0.5859305059666551  1.0000
  O   O7        1.0  0.7690416828971868  0.597342003842517  0.5707844885208728  1.0000
  O   O8        1.0  0.7690292943050259  0.40162017741867495  0.7664543400102013  1.0000
  O   O9        1.0  0.7689978334834281  0.41545945424025943  0.38880634748041776  1.0000
  O   O10       1.0  0.7689853932027517  0.21973606840528803  0.5844762670623951  1.0000
