data_image0
_chemical_formula_structural       NC10NC3NH7C7OC3FC3H9C7OC3FC3H9Zn2C4O8
_chemical_formula_sum              "N3 C43 H25 O10 F2 Zn2"
_cell_length_a       19.210446455230148
_cell_length_b       10.29937835083307
_cell_length_c       10.29938172300155
_cell_angle_alpha    85.56710995607625
_cell_angle_beta     89.97418890370308
_cell_angle_gamma    89.96745330776054

_space_group_name_H-M_alt    "P 1"
_space_group_IT_number       1

loop_
  _space_group_symop_operation_xyz
  'x, y, z'

loop_
  _atom_site_type_symbol
  _atom_site_label
  _atom_site_symmetry_multiplicity
  _atom_site_fract_x
  _atom_site_fract_y
  _atom_site_fract_z
  _atom_site_occupancy
  N   N1        1.0  0.6559582140819403  0.41987689828925934  0.5671796536570144  1.0000
  C   C1        1.0  0.5957298747686566  0.4220845258058423  0.5674105667239553  1.0000
  C   C2        1.0  0.520925695628617  0.4248215796144832  0.5676966389813063  1.0000
  C   C3        1.0  0.4853254115285005  0.5410586917554179  0.5827960185519987  1.0000
  C   C4        1.0  0.4126599552421675  0.5412102201659859  0.5827434055845848  1.0000
  C   C5        1.0  0.3757590062543519  0.42553058537531196  0.5677830465150822  1.0000
  C   C6        1.0  0.2984367519079487  0.4241740386805928  0.5676325990921902  1.0000
  C   C7        1.0  0.2607020628886496  0.5277320330920796  0.5042603887402739  1.0000
  C   C8        1.0  0.1879235720096609  0.5263297400564473  0.5041514635648585  1.0000
  C   C9        1.0  0.1518783934471632  0.4216269567237958  0.5673637251252022  1.0000
  C   C10       1.0  0.0769487523453663  0.4203248087622635  0.5672270351297573  1.0000
  N   N2        1.0  0.0167108026961929  0.41927783759966686  0.5671171712536995  1.0000
  C   C11       1.0  0.188889441739978  0.31819465203899866  0.6307109139329898  1.0000
  C   C12       1.0  0.2616697455472512  0.31932268209721015  0.6308701135400956  1.0000
  C   C13       1.0  0.4139693087126193  0.311113844834662  0.5529716367467705  1.0000
  N   N3        1.0  0.484739494978938  0.3135589217511794  0.5531369396825299  1.0000
  H   H1        1.0  0.5134343172933993  0.6304974654874151  0.5948348903695606  1.0000
  H   H2        1.0  0.3853989221344795  0.631231206816905  0.596176927607833  1.0000
  H   H3        1.0  0.2874445295580842  0.6089752888290212  0.4532615953378809  1.0000
  H   H4        1.0  0.1597920857437634  0.6067455871724385  0.4544831399890048  1.0000
  H   H5        1.0  0.1615075070211541  0.23681535974413204  0.680279855553855  1.0000
  H   H6        1.0  0.2891561853098978  0.23902636690108525  0.6819761387439853  1.0000
  H   H7        1.0  0.3876960624343105  0.22022990432543232  0.5394919593273553  1.0000
  C   C14       1.0  0.8362644544494852  0.038192547886212846  0.5672124413254005  1.0000
  C   C15       1.0  0.76363944865158  0.03831676385167815  0.5512002892808643  1.0000
  C   C16       1.0  0.7269207943254032  0.9210921217791452  0.5446015635779555  1.0000
  C   C17       1.0  0.7638096557429275  0.8030724800375135  0.551207135027104  1.0000
  C   C18       1.0  0.8364111944697232  0.8009522479737016  0.5670956226262085  1.0000
  C   C19       1.0  0.8721969855416905  0.9190331142669397  0.5753482766402813  1.0000
  C   C20       1.0  0.650320026662222  0.921185172336309  0.526320627003763  1.0000
  O   O1        1.0  0.6234432933574323  0.8365226332790466  0.45966450928355496  1.0000
  C   C21       1.0  0.6042093088658486  0.017223708134616933  0.5836673329873332  1.0000
  C   C22       1.0  0.5422118166223383  0.057308766410981926  0.5198974410328467  1.0000
  C   C23       1.0  0.4979852426484657  0.14665266279615463  0.5739658129453178  1.0000
  F   F1        1.0  0.43860114740979417  0.18542572235338217  0.511256824931771  1.0000
  C   C24       1.0  0.5149094575284107  0.1959511225384709  0.6925675501921547  1.0000
  C   C25       1.0  0.575907431476988  0.1556156810625211  0.7575521740414077  1.0000
  C   C26       1.0  0.6202778769836337  0.06634325538635544  0.7038884879813991  1.0000
  H   H8        1.0  0.9734382224682728  0.24543213655609986  0.5954331605701595  1.0000
  H   H9        1.0  0.7356326675700906  0.12987248936323947  0.5423920354123075  1.0000
  H   H10       1.0  0.7356304932524167  0.7126491633588116  0.5451597267477428  1.0000
  H   H11       1.0  0.9281854680669263  0.9181333494715636  0.5876917138475326  1.0000
  H   H12       1.0  0.864367071889256  0.4727655383263145  0.5721031809256745  1.0000
  H   H13       1.0  0.5283570044934397  0.020306768913469053  0.42774178427131937  1.0000
  H   H14       1.0  0.48065414013034063  0.26500653971740173  0.7344523177929219  1.0000
  H   H15       1.0  0.5886860590687513  0.19310668236460682  0.8499215867379737  1.0000
  H   H16       1.0  0.6666602709002527  0.03471768293403055  0.7570324370811952  1.0000
  C   C27       1.0  0.836396412028404  0.41947114322598544  0.1857863672895299  1.0000
  C   C28       1.0  0.858399756699999  0.2889749344710084  0.19466377570218607  1.0000
  C   C29       1.0  0.8702539587470353  0.2236112489659856  0.081932322908147  1.0000
  C   C30       1.0  0.8583332356475815  0.2892681907401742  0.9593976923159806  1.0000
  C   C31       1.0  0.8362792260403089  0.41967359156881123  0.9485217121725666  1.0000
  C   C32       1.0  0.8256139078199256  0.4841241352898542  0.06230578791935004  1.0000
  C   C33       1.0  0.8927833522718366  0.08539987934548998  0.09119487380887259  1.0000
  O   O2        1.0  0.8713294629652916  0.012188475589577807  0.007028548143511726  1.0000
  C   C34       1.0  0.9396558600786671  0.030246744294396333  0.1958404045916171  1.0000
  C   C35       1.0  0.9340228506309192  0.8982899813888499  0.2411347362692149  1.0000
  C   C36       1.0  0.9785243942763283  0.8450068347226092  0.338691646450459  1.0000
  F   F2        1.0  0.9723358234794055  0.7179448641537605  0.3823809758353569  1.0000
  C   C37       1.0  0.02937862078894038  0.9225490716342335  0.3911388764623842  1.0000
  C   C38       1.0  0.036013837743707366  0.05329867430926072  0.34577949738554636  1.0000
  C   C39       1.0  0.9916504088520648  0.10699337840543843  0.24829347608947772  1.0000
  H   H17       1.0  0.7938507469746067  0.6651217698512566  0.3764015171356514  1.0000
  H   H18       1.0  0.8656016038594971  0.23757045468990912  0.2894759879586468  1.0000
  H   H19       1.0  0.8669513449169995  0.23870237900964608  0.8723781341914281  1.0000
  H   H20       1.0  0.8086506419166009  0.5847266875587922  0.054657912278148535  1.0000
  H   H21       1.0  0.8272460017789589  0.46943178162379917  0.6169134972549695  1.0000
  H   H22       1.0  0.8947973722447324  0.8368363944009672  0.20177800353128084  1.0000
  H   H23       1.0  0.0638500734027696  0.8812817590381533  0.46655590038724415  1.0000
  H   H24       1.0  0.07578518606407236  0.11300354757055509  0.38577532720105645  1.0000
  H   H25       1.0  0.9985136951685821  0.20794492221544747  0.2130161036367848  1.0000
  Zn  Zn1       1.0  0.7600636158131971  0.4197005601074093  0.5671691221582666  1.0000
  Zn  Zn2       1.0  0.9126053813550701  0.4194435956158711  0.5671383401156227  1.0000
  C   C40       1.0  0.8362988468812426  0.4144614606371637  0.8043491749610869  1.0000
  C   C41       1.0  0.8363718163340618  0.42468433100186975  0.32995841419171335  1.0000
  C   C42       1.0  0.8363806802143408  0.6567730388860717  0.5619425450236966  1.0000
  C   C43       1.0  0.8362899306382738  0.1823711924913396  0.5723651136169963  1.0000
  O   O3        1.0  0.8942523657492821  0.4263307417793225  0.37833218940304114  1.0000
  O   O4        1.0  0.8941939678050317  0.41261903989375903  0.7559516631968952  1.0000
  O   O5        1.0  0.8942592686802231  0.6082887054509645  0.5602065944059751  1.0000
  O   O6        1.0  0.8941870128386643  0.23066108557456166  0.5740771608286941  1.0000
  O   O7        1.0  0.7784819322745864  0.6084830702378201  0.5602303014488683  1.0000
  O   O8        1.0  0.7784166317070678  0.41281496503133863  0.7559753007555685  1.0000
  O   O9        1.0  0.7784750299287495  0.4265266212444674  0.3783542655730807  1.0000
  O   O10       1.0  0.7784096769985416  0.23085695577636334  0.5740993343676744  1.0000
