data_image0
_chemical_formula_structural       NC10NC3NCH9C6NCOC6H11C6SCOC6H10Zn2C4O8
_chemical_formula_sum              "N4 C44 H30 O10 S1 Zn2"
_cell_length_a       19.437513618241372
_cell_length_b       10.29965916528486
_cell_length_c       10.302041481415108
_cell_angle_alpha    85.55947833871805
_cell_angle_beta     90.34339533155027
_cell_angle_gamma    89.53922106887035

_space_group_name_H-M_alt    "P 1"
_space_group_IT_number       1

loop_
  _space_group_symop_operation_xyz
  'x, y, z'

loop_
  _atom_site_type_symbol
  _atom_site_label
  _atom_site_symmetry_multiplicity
  _atom_site_fract_x
  _atom_site_fract_y
  _atom_site_fract_z
  _atom_site_occupancy
  N   N1        1.0  0.6481167780578709  0.4109357388631787  0.5765111751952634  1.0000
  C   C1        1.0  0.5891861393598135  0.4279464287500532  0.5735427596955576  1.0000
  C   C2        1.0  0.5157490371739061  0.44919971844856055  0.5698582344963881  1.0000
  C   C3        1.0  0.47397038520432255  0.34801779127104293  0.558160060371395  1.0000
  C   C4        1.0  0.39808198153723207  0.35808516453386496  0.5509443799353868  1.0000
  C   C5        1.0  0.3585211152932041  0.4389042640323386  0.6167058457649803  1.0000
  C   C6        1.0  0.28233744669214006  0.43029973137667965  0.6082600351139278  1.0000
  C   C7        1.0  0.24918226500226542  0.3089571432416818  0.6128527811086251  1.0000
  C   C8        1.0  0.1774464995361918  0.3025885259444163  0.6056836555823542  1.0000
  C   C9        1.0  0.1378952175111471  0.4170896786325238  0.5942837446656182  1.0000
  C   C10       1.0  0.06404492300720212  0.41038296144775077  0.5869464255196626  1.0000
  N   N2        1.0  0.0046743843543347  0.40499135068896464  0.5810476794748662  1.0000
  C   C11       1.0  0.1703337614675623  0.5381213984067124  0.5904359877193144  1.0000
  C   C12       1.0  0.2420539731661724  0.5447439729456856  0.597667225251481  1.0000
  C   C13       1.0  0.3872209060662656  0.5311488003656497  0.7066442294284678  1.0000
  N   N3        1.0  0.44421604727033454  0.594367728050541  0.6862702738600905  1.0000
  C   C14       1.0  0.48805354349297675  0.5851541905367932  0.5731832255259945  1.0000
  H   H1        1.0  0.49633862307849363  0.25296982588520445  0.5460025746974662  1.0000
  H   H2        1.0  0.3733555108914161  0.2885997043895445  0.4926103394768122  1.0000
  H   H3        1.0  0.2786180261255617  0.21904372256488425  0.6238344788025831  1.0000
  H   H4        1.0  0.1528375446740944  0.20836382747877624  0.6095314453847305  1.0000
  H   H5        1.0  0.1402126461203336  0.6273789635955322  0.5817656731070329  1.0000
  H   H6        1.0  0.2661814737222303  0.6393814635245978  0.5938041478509124  1.0000
  H   H7        1.0  0.3572223384639803  0.55149829857452  0.7910010933133311  1.0000
  H   H8        1.0  0.5308177689879369  0.6554618306627971  0.5789741511439215  1.0000
  H   H9        1.0  0.4583896555006375  0.6133000314433446  0.4825686280310313  1.0000
  C   C15       1.0  0.8263383654621453  0.02660382445065368  0.5786632658831399  1.0000
  C   C16       1.0  0.8268107146337618  0.03592417675419579  0.4418846752324921  1.0000
  C   C17       1.0  0.8280631888445358  0.9237665235535512  0.37308080974907587  1.0000
  C   C18       1.0  0.8269403329421964  0.8007316205582219  0.4421826406835374  1.0000
  C   C19       1.0  0.8264593777312845  0.7893130720749606  0.5789069106764535  1.0000
  C   C20       1.0  0.8264032062119462  0.9028532197833004  0.6463785769608801  1.0000
  N   N4        1.0  0.8274891764415956  0.9368972951196682  0.23303951360085917  1.0000
  C   C21       1.0  0.8597419429433161  0.8452582759831475  0.15374205387551854  1.0000
  O   O1        1.0  0.9072020552141069  0.771632139783492  0.2013131577076972  1.0000
  C   C22       1.0  0.8397489456167399  0.839442834354972  0.01515320658689645  1.0000
  C   C23       1.0  0.776132333764899  0.8903767636900021  0.9680086728426169  1.0000
  C   C24       1.0  0.7577009334996828  0.8837158340058988  0.8372815020249984  1.0000
  C   C25       1.0  0.802245334699058  0.8259157878943088  0.7524112521643787  1.0000
  C   C26       1.0  0.8652563479880389  0.7742049099527663  0.7981721776120545  1.0000
  C   C27       1.0  0.8839504016631031  0.7805051643691582  0.9287982396279824  1.0000
  H   H10       1.0  0.8247906884680705  0.21629745041089277  0.836663178044865  1.0000
  H   H11       1.0  0.8267334235328571  0.13055339150803924  0.38807307218374243  1.0000
  H   H12       1.0  0.8252335727493194  0.7139877469973088  0.38936773233343347  1.0000
  H   H13       1.0  0.8260482778940054  0.8948027385630363  0.7518195524197646  1.0000
  H   H14       1.0  0.8253595649150737  0.4574990953543916  0.6313423403599105  1.0000
  H   H15       1.0  0.8078602124313303  0.023373383998929187  0.18685991331261453  1.0000
  H   H16       1.0  0.7400773527855865  0.9336523585287556  0.03201745525764488  1.0000
  H   H17       1.0  0.708670277858162  0.9229786222488146  0.80187993978836  1.0000
  H   H18       1.0  0.7878408898272973  0.8208335892335039  0.6512937220281403  1.0000
  H   H19       1.0  0.8996835498131842  0.7291612896342353  0.732379371389074  1.0000
  H   H20       1.0  0.93315342092868  0.7400541510136209  0.9619837973913423  1.0000
  C   C28       1.0  0.8264117969814445  0.40808751672784216  0.19749827523917118  1.0000
  C   C29       1.0  0.8579723879705419  0.5306569019827885  0.18702593029547177  1.0000
  C   C30       1.0  0.8739819075469638  0.5911146905752653  0.06486358834033967  1.0000
  C   C31       1.0  0.8580376204828944  0.5302519612810075  0.951921220121871  1.0000
  C   C32       1.0  0.826385978048035  0.40782939434207166  0.960071955569767  1.0000
  C   C33       1.0  0.8107876661706342  0.34732619564267075  0.08343294368138054  1.0000
  S   S1        1.0  0.914913904415544  0.7469615469669317  0.05291153101194812  1.0000
  C   C34       1.0  0.9996544517816766  0.6757496896736852  0.05653595265535549  1.0000
  O   O2        1.0  0.02657593233926958  0.6521286434944342  0.9498108573407649  1.0000
  C   C35       1.0  0.03757139058653869  0.6437755908466796  0.18053293497637424  1.0000
  C   C36       1.0  0.09859285611953417  0.5690365975080227  0.18147819017032152  1.0000
  C   C37       1.0  0.13444684836374177  0.5375428174172245  0.2978766324153459  1.0000
  C   C38       1.0  0.11000960638069968  0.5802967702022588  0.4145167283803468  1.0000
  C   C39       1.0  0.0497275671944204  0.6548646288731164  0.41496109740963316  1.0000
  C   C40       1.0  0.013668278431551162  0.6867359576043315  0.2988595678972257  1.0000
  H   H21       1.0  0.7668225162754365  0.1771804886365671  0.4245439014697834  1.0000
  H   H22       1.0  0.8703395063442421  0.5793773621546847  0.27351314537260807  1.0000
  H   H23       1.0  0.8706963006710973  0.5786360380144604  0.8581263393966299  1.0000
  H   H24       1.0  0.7864582972001213  0.25283368989414656  0.09058584071685649  1.0000
  H   H25       1.0  0.8145398607886765  0.3611113424953796  0.6358470766965651  1.0000
  H   H26       1.0  0.11846090026519485  0.5342482604990084  0.09240138364364903  1.0000
  H   H27       1.0  0.18120510903048515  0.4797801188897317  0.2976064390888862  1.0000
  H   H28       1.0  0.13782684044296611  0.5557823899772416  0.5045250855001355  1.0000
  H   H29       1.0  0.030927626735012925  0.6882481530218236  0.5054050913346355  1.0000
  H   H30       1.0  0.967432278045711  0.7454319841848553  0.30236396359751816  1.0000
  Zn  Zn1       1.0  0.751011605867433  0.4092168251700268  0.5778278185598043  1.0000
  Zn  Zn2       1.0  0.9017795607001148  0.4066995914823275  0.5797417002775211  1.0000
  C   C41       1.0  0.8263884846538806  0.40270467421267675  0.8159275035205131  1.0000
  C   C42       1.0  0.82640432855073  0.41321335348813015  0.34164216417884363  1.0000
  C   C43       1.0  0.8264331467255788  0.645146627289076  0.5736867726752779  1.0000
  C   C44       1.0  0.8263596147825455  0.17076984098265546  0.5838829630962623  1.0000
  O   O3        1.0  0.8836174743033675  0.4139726884606565  0.3907444764052488  1.0000
  O   O4        1.0  0.8836047279434527  0.40003383754385946  0.7682774091550906  1.0000
  O   O5        1.0  0.8836400217910588  0.5958087931706604  0.5726662957444768  1.0000
  O   O6        1.0  0.8835821290136442  0.2181977430157631  0.5863554918120448  1.0000
  O   O7        1.0  0.7692089861042003  0.597718674497016  0.5712140263653374  1.0000
  O   O8        1.0  0.7691736925033775  0.4019452791597147  0.7668250710438242  1.0000
  O   O9        1.0  0.7691864389547666  0.4158840853492456  0.3892905772155133  1.0000
  O   O10       1.0  0.7691510936574575  0.2201091305828684  0.5849016899661845  1.0000
