data_image0
_chemical_formula_structural       NC10NC3NCH9C7OC6OCH12C6SCOC6H10Zn2C4O8
_chemical_formula_sum              "N3 C45 H31 O11 S1 Zn2"
_cell_length_a       19.437513618241372
_cell_length_b       10.299359160628079
_cell_length_c       10.302041481415108
_cell_angle_alpha    85.54689826212588
_cell_angle_beta     90.34339533155027
_cell_angle_gamma    89.54510135387923

_space_group_name_H-M_alt    "P 1"
_space_group_IT_number       1

loop_
  _space_group_symop_operation_xyz
  'x, y, z'

loop_
  _atom_site_type_symbol
  _atom_site_label
  _atom_site_symmetry_multiplicity
  _atom_site_fract_x
  _atom_site_fract_y
  _atom_site_fract_z
  _atom_site_occupancy
  N   N1        1.0  0.6481924255593291  0.4109997154141152  0.5762014683740466  1.0000
  C   C1        1.0  0.589262698891602  0.4280111766226302  0.5732293189504301  1.0000
  C   C2        1.0  0.5158267362035605  0.4492654300164589  0.5695401285573669  1.0000
  C   C3        1.0  0.47404265935191264  0.3480789149115544  0.5578641643262532  1.0000
  C   C4        1.0  0.3981547954483369  0.35814674466279084  0.5506462740559595  1.0000
  C   C5        1.0  0.3585982623307434  0.43896950876985974  0.6163899997250979  1.0000
  C   C6        1.0  0.282414132396552  0.43036458595587734  0.6079460778081549  1.0000
  C   C7        1.0  0.24925244490817794  0.3090164957416166  0.6125654590536396  1.0000
  C   C8        1.0  0.1775163379878673  0.3026475896699172  0.6053977314678733  1.0000
  C   C9        1.0  0.137971194956879  0.41715393422369607  0.593972687026592  1.0000
  C   C10       1.0  0.0641205408714278  0.41044691293390856  0.5866368400356063  1.0000
  N   N2        1.0  0.0047497131466548  0.40505505770143646  0.5807392774739291  1.0000
  C   C11       1.0  0.1704162280445465  0.5381911419813354  0.5900983630665217  1.0000
  C   C12       1.0  0.24213679481334402  0.5448140168100142  0.5973281469134126  1.0000
  C   C13       1.0  0.3873029988065074  0.53121822777933  0.7063081352927043  1.0000
  N   N3        1.0  0.4443015295015307  0.594440022022092  0.6859203028817504  1.0000
  C   C14       1.0  0.4881385317391718  0.585226066735701  0.5728352769611045  1.0000
  H   H1        1.0  0.49640580121717137  0.2530266397326957  0.545727542113652  1.0000
  H   H2        1.0  0.3734245993306212  0.28865813381503425  0.49232748597237896  1.0000
  H   H3        1.0  0.27868338531183806  0.21909899808924882  0.6235668931529745  1.0000
  H   H4        1.0  0.1529023312564194  0.2084186187409358  0.6092662040207375  1.0000
  H   H5        1.0  0.1402998982531775  0.6274527544070416  0.5814084560121309  1.0000
  H   H6        1.0  0.2662693693706545  0.6394557985696445  0.5934442961526067  1.0000
  H   H7        1.0  0.3573055222451907  0.5515686487025895  0.7906605323700229  1.0000
  H   H8        1.0  0.5309065267873174  0.6555368948455349  0.5786107697317859  1.0000
  H   H9        1.0  0.45847615278971976  0.6133731838689265  0.4822145013258632  1.0000
  C   C15       1.0  0.8263934069584856  0.0266503741056503  0.5784379216676931  1.0000
  C   C16       1.0  0.769490443771968  0.03290874844062319  0.49333536954971224  1.0000
  C   C17       1.0  0.7412833850178917  0.9190728487283737  0.44932535149758457  1.0000
  C   C18       1.0  0.7696543160986805  0.7976444163557262  0.4935925051745216  1.0000
  C   C19       1.0  0.8265553309361475  0.7893941964422206  0.5785142125036578  1.0000
  C   C20       1.0  0.8546922073746921  0.9044876041160469  0.6202383171018917  1.0000
  C   C21       1.0  0.680721590462622  0.9278251336857906  0.3606404778625065  1.0000
  O   O1        1.0  0.6369999179340533  0.017422829191612532  0.37164802172706013  1.0000
  C   C22       1.0  0.6697577732358913  0.8350044071310718  0.2594757154092562  1.0000
  C   C23       1.0  0.7257202285682701  0.7807443435210779  0.19614688841338856  1.0000
  C   C24       1.0  0.714665238717173  0.6945747364856067  0.09994556292068024  1.0000
  C   C25       1.0  0.6478290916151294  0.6617865761580276  0.06433990955052438  1.0000
  C   C26       1.0  0.5916351031498173  0.7170857224695308  0.1263543200174635  1.0000
  C   C27       1.0  0.6026271794463999  0.8033152519779181  0.22260125607797  1.0000
  O   O2        1.0  0.6394995232952028  0.5747314174536845  0.967356956531324  1.0000
  C   C28       1.0  0.5746657002787737  0.5329831964585519  0.9216736360268802  1.0000
  H   H10       1.0  0.9335894089407561  0.22208157450161226  0.7394422760617814  1.0000
  H   H11       1.0  0.7473651120132462  0.12661691834857836  0.4600762692007003  1.0000
  H   H12       1.0  0.7468157266841715  0.7093983966312177  0.4628570937839671  1.0000
  H   H13       1.0  0.898585273880335  0.8988555540834138  0.6857513469827847  1.0000
  H   H14       1.0  0.8482070074515902  0.4587266640891399  0.6115006779555296  1.0000
  H   H15       1.0  0.778025884958824  0.805952398749435  0.21993859612412114  1.0000
  H   H16       1.0  0.7583302961981946  0.6534154550415625  0.0523306380081654  1.0000
  H   H17       1.0  0.539300751531129  0.6941556964550446  0.1009179939466105  1.0000
  H   H18       1.0  0.5585776439613898  0.8444355079189567  0.26916075816755436  1.0000
  H   H19       1.0  0.5832566093909817  0.46447059585873696  0.8453250104424863  1.0000
  H   H20       1.0  0.544435771910221  0.617849938476405  0.878788246808655  1.0000
  H   H21       1.0  0.5457821466712918  0.48186759935942225  0.002823792171851469  1.0000
  C   C29       1.0  0.8264872917751058  0.40815136413085007  0.19718919361568643  1.0000
  C   C30       1.0  0.8580544543375884  0.5307263070921489  0.18668994413364337  1.0000
  C   C31       1.0  0.8740672153661366  0.5911868370432041  0.06451433141854213  1.0000
  C   C32       1.0  0.8581196651389931  0.5303213480290005  0.9515853228463707  1.0000
  C   C33       1.0  0.8264614590024314  0.40789323004094613  0.9597629306053221  1.0000
  C   C34       1.0  0.8108599032382359  0.3473872879239204  0.0831371994446295  1.0000
  S   S1        1.0  0.9150075679840051  0.7470407600531948  0.05252806499532037  1.0000
  C   C35       1.0  0.9997442973172325  0.6758256737758848  0.056168117965760045  1.0000
  O   O3        1.0  0.026664511429390858  0.6522035565393041  0.9494482075783948  1.0000
  C   C36       1.0  0.03765952182666554  0.6438501251361728  0.18017211874710704  1.0000
  C   C37       1.0  0.0986769802189027  0.5691077428812925  0.18113377949051368  1.0000
  C   C38       1.0  0.1345292839200316  0.5376125347570484  0.29753913476371574  1.0000
  C   C39       1.0  0.11009433419567793  0.5803684261494637  0.4141698460413452  1.0000
  C   C40       1.0  0.0498162929747501  0.654939665976725  0.4145978470860108  1.0000
  C   C41       1.0  0.013758712997277822  0.6868124398607065  0.2984893216717792  1.0000
  H   H22       1.0  0.7668856309590312  0.1772338659417263  0.42428550499070083  1.0000
  H   H23       1.0  0.8704241848650389  0.5794489764128503  0.2731664648478598  1.0000
  H   H24       1.0  0.8707809394457051  0.5787076186585076  0.8577798215959076  1.0000
  H   H25       1.0  0.7865254680398502  0.252890497568776  0.09031083801551243  1.0000
  H   H26       1.0  0.8146128369487027  0.36117305984134696  0.6355483065572916  1.0000
  H   H27       1.0  0.11854315918339098  0.5343178284525898  0.09206460916226855  1.0000
  H   H28       1.0  0.1812844476322497  0.4798472170753849  0.2972816206126807  1.0000
  H   H29       1.0  0.13791025391628908  0.5558529343603604  0.5041835841792512  1.0000
  H   H30       1.0  0.031018142377291724  0.6883247038462026  0.5050345131754068  1.0000
  H   H31       1.0  0.9675258596064665  0.7455111279156199  0.3019808333268881  1.0000
  Zn  Zn1       1.0  0.7510871612091119  0.4092807237796605  0.5775184890479721  1.0000
  Zn  Zn2       1.0  0.9018549810799854  0.4067633759521574  0.5794329233099493  1.0000
  C   C42       1.0  0.8264636908457469  0.4027682775395809  0.8156196034554779  1.0000
  C   C43       1.0  0.8264800981667897  0.41327743331374034  0.3413319574108422  1.0000
  C   C44       1.0  0.8265213514740013  0.645221223745952  0.5733256554972668  1.0000
  C   C45       1.0  0.82642238575844  0.17082292760758366  0.583625973783539  1.0000
  O   O4        1.0  0.8836932846312697  0.41403680271705734  0.3904341029597631  1.0000
  O   O5        1.0  0.8836797909380667  0.4000973197660851  0.767970095350869  1.0000
  O   O6        1.0  0.883725581285147  0.5958811524849295  0.5723160084457788  1.0000
  O   O7        1.0  0.883647442842618  0.21825298018058215  0.5860880918588003  1.0000
  O   O8        1.0  0.7692946479968223  0.5977911204116992  0.5708633198389892  1.0000
  O   O9        1.0  0.7692488579801802  0.40200884805310366  0.7665173376694625  1.0000
  O   O10       1.0  0.7692623517624593  0.4159482862747812  0.38897978420970425  1.0000
  O   O11       1.0  0.769216509965722  0.2201644544164003  0.584633870454663  1.0000
