data_image0
_chemical_formula_structural       NC10NC3NCH9C6NCOC6H11C6NCOC6H11Zn2C4O8
_chemical_formula_sum              "N5 C44 H31 O10 Zn2"
_cell_length_a       19.437513618241372
_cell_length_b       10.29965916528486
_cell_length_c       10.299662537453274
_cell_angle_alpha    85.55779495060091
_cell_angle_beta     90.33361086240306
_cell_angle_gamma    89.53922106887035

_space_group_name_H-M_alt    "P 1"
_space_group_IT_number       1

loop_
  _space_group_symop_operation_xyz
  'x, y, z'

loop_
  _atom_site_type_symbol
  _atom_site_label
  _atom_site_symmetry_multiplicity
  _atom_site_fract_x
  _atom_site_fract_y
  _atom_site_fract_z
  _atom_site_occupancy
  N   N1        1.0  0.6482454409206108  0.4109756213648734  0.5761807337836249  1.0000
  C   C1        1.0  0.5893150705245092  0.42798639441912845  0.5732116292111347  1.0000
  C   C2        1.0  0.5158783013665481  0.44923978734857095  0.5695262487051393  1.0000
  C   C3        1.0  0.4741007067432152  0.34805818792385423  0.5578253590258657  1.0000
  C   C4        1.0  0.3982129552695844  0.358125763351514  0.5506080035787249  1.0000
  C   C5        1.0  0.35864614513734044  0.4389430203825746  0.616384734938487  1.0000
  C   C6        1.0  0.2824632399157685  0.43033872435684306  0.6079369637201684  1.0000
  C   C7        1.0  0.24930764310788453  0.30899600754489587  0.6125307758514191  1.0000
  C   C8        1.0  0.1775725256273781  0.3026275911081189  0.6053599861210339  1.0000
  C   C9        1.0  0.138022273989891  0.41712906319245824  0.5939574288873122  1.0000
  C   C10       1.0  0.064172642673791  0.4104225515805271  0.5866184064936362  1.0000
  N   N2        1.0  0.0048026371825048  0.40503110608945847  0.5807182911441173  1.0000
  C   C11       1.0  0.1704611657280487  0.5381608907709159  0.5901087787424  1.0000
  C   C12       1.0  0.242180723827062  0.5447832627091815  0.5973416948970443  1.0000
  C   C13       1.0  0.38733780677745017  0.5311850368733155  0.7063439964381335  1.0000
  N   N3        1.0  0.44433478949330535  0.5944045353841267  0.6859653113639663  1.0000
  C   C14       1.0  0.4881825071543768  0.585194166279092  0.5728520115811495  1.0000
  H   H1        1.0  0.49647004347877755  0.2530105631595465  0.545665051175424  1.0000
  H   H2        1.0  0.3734917571798362  0.2886419375772191  0.4922604217544997  1.0000
  H   H3        1.0  0.2787424116440677  0.21908227918912715  0.6235150227804855  1.0000
  H   H4        1.0  0.1529632229805685  0.20840278483728847  0.6092086691296452  1.0000
  H   H5        1.0  0.140340834052233  0.6274186988796882  0.5814364514476518  1.0000
  H   H6        1.0  0.2663085735496104  0.639420861521603  0.5934777207414561  1.0000
  H   H7        1.0  0.357331614531114  0.5515321716194674  0.7907204424937155  1.0000
  H   H8        1.0  0.5309462092331675  0.6555016441582304  0.5786442814749164  1.0000
  H   H9        1.0  0.4585268094149686  0.6133425459739892  0.4822163792772083  1.0000
  C   C15       1.0  0.8264668338069207  0.026643646656293596  0.5783333240468209  1.0000
  C   C16       1.0  0.8269515457907545  0.035967831144731566  0.44152298231405096  1.0000
  C   C17       1.0  0.8282102388788012  0.923812105651726  0.3727031450533784  1.0000
  C   C18       1.0  0.8270811371674088  0.8007752666005306  0.4418210169332717  1.0000
  C   C19       1.0  0.8265878240540837  0.7893528874542992  0.5785770253985902  1.0000
  C   C20       1.0  0.8265255540690698  0.9028911447798004  0.6460643542103681  1.0000
  N   N4        1.0  0.8276488841896065  0.9369468008153691  0.23262934043528083  1.0000
  C   C21       1.0  0.8599088180381991  0.845310003390053  0.1533134730034138  1.0000
  O   O1        1.0  0.9073646305671895  0.7716825343702192  0.20089561974820924  1.0000
  C   C22       1.0  0.839928347144936  0.839498444665516  0.014692454408957056  1.0000
  C   C23       1.0  0.7763159964791113  0.8904336948693256  0.9675369767738569  1.0000
  C   C24       1.0  0.7578964120650223  0.8837764278248728  0.8367794596197511  1.0000
  C   C25       1.0  0.8024484843111371  0.8259787595597573  0.751889508413619  1.0000
  C   C26       1.0  0.86545536147234  0.7742665995145869  0.7976610565683648  1.0000
  C   C27       1.0  0.8841376084350547  0.7805631941241375  0.9283174414499005  1.0000
  H   H10       1.0  0.824895837341202  0.21633004412147594  0.836393126987941  1.0000
  H   H11       1.0  0.8268791184827899  0.13059855356151706  0.38769888771512906  1.0000
  H   H12       1.0  0.8253791506806443  0.7140328727777338  0.3889938484006028  1.0000
  H   H13       1.0  0.8261610954074293  0.8948377093741512  0.7515298061977425  1.0000
  H   H14       1.0  0.8254832718311599  0.457537441627632  0.6310246271743758  1.0000
  H   H15       1.0  0.8080240941492872  0.02342418352845188  0.1864390202509314  1.0000
  H   H16       1.0  0.7402552300288892  0.9337074963463547  0.03156061786009556  1.0000
  H   H17       1.0  0.7088689562142293  0.9230402079286598  0.8013696794456084  1.0000
  H   H18       1.0  0.7880531790059635  0.8208993939525017  0.6507485053713653  1.0000
  H   H19       1.0  0.8998885100184214  0.7292248225415463  0.731852977540016  1.0000
  H   H20       1.0  0.9333376282047529  0.740111250994484  0.9615107027388259  1.0000
  C   C28       1.0  0.8265747171448907  0.4081380181977805  0.19707985171238818  1.0000
  C   C29       1.0  0.8968116686502575  0.43934082226183113  0.1941699905781693  1.0000
  C   C30       1.0  0.9323958977842518  0.4531722925049997  0.07602275551800841  1.0000
  C   C31       1.0  0.8966912316552228  0.43903276426225446  0.9590250628557957  1.0000
  C   C32       1.0  0.8264799721853893  0.407858535468979  0.959830513056545  1.0000
  C   C33       1.0  0.7918767877900231  0.39214166267665407  0.07943200294183139  1.0000
  N   N5        1.0  0.004044743589363575  0.4870625023234769  0.0764621320386698  1.0000
  C   C34       1.0  0.05273121194126351  0.4464016988866022  0.9828560655764322  1.0000
  O   O2        1.0  0.040167154632604785  0.34805528741142666  0.9211133621188647  1.0000
  C   C35       1.0  0.11879790501813337  0.5156272731290132  0.9613687333883068  1.0000
  C   C36       1.0  0.12711840729834534  0.6435557781140198  0.9978690991909618  1.0000
  C   C37       1.0  0.18954386045419214  0.7080690020968947  0.9764937568536363  1.0000
  C   C38       1.0  0.24414925044216496  0.6461330377552028  0.9181944604756684  1.0000
  C   C39       1.0  0.23638725289085838  0.519641570382801  0.8806956936152166  1.0000
  C   C40       1.0  0.17407903296130578  0.4546693705260205  0.9017433032902451  1.0000
  H   H21       1.0  0.693925964435495  0.3504878477351232  0.40973760223116473  1.0000
  H   H22       1.0  0.9243788158339755  0.4521000787657037  0.28394538648077194  1.0000
  H   H23       1.0  0.9233414699071297  0.4545519935420774  0.8672560853521087  1.0000
  H   H24       1.0  0.737734186807182  0.36807082998948193  0.08081108799146941  1.0000
  H   H25       1.0  0.7993250717080351  0.3975844804142046  0.6325579566522266  1.0000
  H   H26       1.0  0.022828762601878383  0.533952043920555  0.15563875925469972  1.0000
  H   H27       1.0  0.08532251996977469  0.6947866397345803  0.04112709790986835  1.0000
  H   H28       1.0  0.19547798528395544  0.8064472983072366  0.0047163995710062245  1.0000
  H   H29       1.0  0.29239857015619775  0.696305552670262  0.9017071587838403  1.0000
  H   H30       1.0  0.2786922276401129  0.47181945129664293  0.8352482779808765  1.0000
  H   H31       1.0  0.16932386499595964  0.35649403442650063  0.8721606974257194  1.0000
  Zn  Zn1       1.0  0.7511401497245989  0.4092566707827556  0.5774976827870186  1.0000
  Zn  Zn2       1.0  0.9019079315699721  0.4067393834730051  0.579412008783444  1.0000
  C   C41       1.0  0.826495507732976  0.40273784888361597  0.8156526389902115  1.0000
  C   C42       1.0  0.8265542201852027  0.41325981641642695  0.34125720147683825  1.0000
  C   C43       1.0  0.8265620648735781  0.6451865889232771  0.5733556756212914  1.0000
  C   C44       1.0  0.8264876113419617  0.1708095169457826  0.5835542329337446  1.0000
  O   O3        1.0  0.883762927796881  0.4140177756682477  0.3903709120627423  1.0000
  O   O4        1.0  0.8837160579039539  0.4000683472480884  0.7679914833757142  1.0000
  O   O5        1.0  0.883769032175457  0.5958487833960053  0.5723349618021971  1.0000
  O   O6        1.0  0.8837099020921192  0.21823734970498432  0.5860273356096914  1.0000
  O   O7        1.0  0.7693381277528083  0.597758705411219  0.5708823553006754  1.0000
  O   O8        1.0  0.769285153734301  0.40197982955472833  0.7665388081261104  1.0000
  O   O9        1.0  0.7693320238598014  0.4159292132913588  0.3889166753722888  1.0000
  O   O10       1.0  0.769278998138655  0.22014877800388444  0.5845731962857097  1.0000
