data_image0
_chemical_formula_structural       NC12NC2H8C7OC3FC3H9C7OC3FC3H9Zn2C4O8
_chemical_formula_sum              "N2 C44 H26 O10 F2 Zn2"
_cell_length_a       19.240039667572717
_cell_length_b       10.29937835083307
_cell_length_c       10.29938172300155
_cell_angle_alpha    85.56710995607625
_cell_angle_beta     89.98344622294188
_cell_angle_gamma    90.0188676237696

_space_group_name_H-M_alt    "P 1"
_space_group_IT_number       1

loop_
  _space_group_symop_operation_xyz
  'x, y, z'

loop_
  _atom_site_type_symbol
  _atom_site_label
  _atom_site_symmetry_multiplicity
  _atom_site_fract_x
  _atom_site_fract_y
  _atom_site_fract_z
  _atom_site_occupancy
  N   N1        1.0  0.654949189034422  0.42096602875618516  0.5672931544136173  1.0000
  C   C1        1.0  0.5948008202446158  0.4209661127199369  0.5672930724673664  1.0000
  C   C2        1.0  0.5199827831453592  0.42096622997534205  0.5672929351497715  1.0000
  C   C3        1.0  0.4834817153056933  0.35652471093091553  0.6707118946380575  1.0000
  C   C4        1.0  0.4108109342762001  0.35641384720984237  0.670798449170616  1.0000
  C   C5        1.0  0.37365054825954946  0.42096632248612376  0.5672927074584058  1.0000
  C   C6        1.0  0.4108658406330014  0.48551898480619826  0.4637871602648411  1.0000
  C   C7        1.0  0.48353649610677146  0.4854078856072441  0.46387383732424947  1.0000
  C   C8        1.0  0.296445457820806  0.42096624379732495  0.5672926120521304  1.0000
  C   C9        1.0  0.2592312068355714  0.30771147806187016  0.6091758656802222  1.0000
  C   C10       1.0  0.1865605514182015  0.30781835937589563  0.6090845286264726  1.0000
  C   C11       1.0  0.1501131708654179  0.4209661146346686  0.5672926729766448  1.0000
  C   C12       1.0  0.0752951336519667  0.42096600095058934  0.5672929216492009  1.0000
  N   N2        1.0  0.015146816760446399  0.42096596017855203  0.5672931300722965  1.0000
  C   C13       1.0  0.18661330119079328  0.5341139457106869  0.5255007644277776  1.0000
  C   C14       1.0  0.25928403043233306  0.5342210071115936  0.5254092647599256  1.0000
  H   H1        1.0  0.5111752985064429  0.30663285804406626  0.7514584329626979  1.0000
  H   H2        1.0  0.3836963129881041  0.30732039682030443  0.752660400569934  1.0000
  H   H3        1.0  0.3837939311456001  0.5346124622363095  0.38192515801426663  1.0000
  H   H4        1.0  0.5112726843087865  0.5352996382978046  0.383127574805165  1.0000
  H   H5        1.0  0.2863039442851261  0.21856036185726446  0.6403533318391115  1.0000
  H   H6        1.0  0.1588251705315935  0.21956672375730557  0.6412948568212558  1.0000
  H   H7        1.0  0.1589188586230358  0.622365556795119  0.49329045078611666  1.0000
  H   H8        1.0  0.2863977718208697  0.6233722024846644  0.4942317538208203  1.0000
  C   C15       1.0  0.8349780740630915  0.039581052635746294  0.567357140555111  1.0000
  C   C16       1.0  0.7624647833841575  0.039584684538420456  0.5513324221718519  1.0000
  C   C17       1.0  0.725802611378243  0.9222990760746258  0.5447273430230102  1.0000
  C   C18       1.0  0.7626347286551409  0.8043406833302585  0.551339297369104  1.0000
  C   C19       1.0  0.835124588361092  0.8023409963653199  0.5672403472464134  1.0000
  C   C20       1.0  0.8708553320858935  0.9204812801557439  0.5754991932926541  1.0000
  C   C21       1.0  0.6493196745335071  0.922264941350683  0.5264331521821592  1.0000
  O   O1        1.0  0.6224842842541081  0.8375577770894593  0.45977238396821596  1.0000
  C   C22       1.0  0.6032798863607236  0.018226916498441437  0.5837718796066615  1.0000
  C   C23       1.0  0.5413777615068032  0.05820903627014862  0.5199912601970929  1.0000
  C   C24       1.0  0.49721921887997006  0.1474795003723972  0.5740519795647825  1.0000
  F   F1        1.0  0.4379264709836042  0.18615396061950595  0.5113327162934602  1.0000
  C   C25       1.0  0.5141174001554005  0.19680606049924854  0.6926566452164362  1.0000
  C   C26       1.0  0.5750215442193285  0.15657189796214266  0.7576518235736531  1.0000
  C   C27       1.0  0.6193237370691362  0.06737314344824741  0.7039958149525845  1.0000
  H   H9        1.0  0.9719408350926809  0.24704839991404004  0.5956015950411127  1.0000
  H   H10       1.0  0.7345010836194424  0.13109390855354253  0.5425193222768645  1.0000
  H   H11       1.0  0.7344989126464038  0.7138705789389523  0.5452870132360768  1.0000
  H   H12       1.0  0.926757690556231  0.919674476711878  0.5878523182132251  1.0000
  H   H13       1.0  0.8630374627662009  0.4742007036956816  0.5722527427644253  1.0000
  H   H14       1.0  0.5275442614861559  0.021184034718902955  0.4278332061309422  1.0000
  H   H15       1.0  0.4799147758596093  0.26580460132686357  0.7345354856036115  1.0000
  H   H16       1.0  0.587780515139316  0.1940841164581546  0.8500234473621284  1.0000
  H   H17       1.0  0.6656347834574815  0.03582458272816291  0.7571477896196954  1.0000
  C   C28       1.0  0.8351098286588028  0.4208598670733459  0.18593108935192193  1.0000
  C   C29       1.0  0.8570793267751964  0.29040019191539046  0.19481230501359859  1.0000
  C   C30       1.0  0.8689152941442803  0.22505618871990118  0.08208290335768442  1.0000
  C   C31       1.0  0.8570129080485163  0.29069333773528805  0.9595462101172245  1.0000
  C   C32       1.0  0.8349928229315762  0.4210621208445864  0.9486664139582124  1.0000
  C   C33       1.0  0.8243439105934472  0.4854949562379276  0.062448644279995635  1.0000
  C   C34       1.0  0.8914100319213774  0.08688222612985719  0.09134935252990983  1.0000
  O   O2        1.0  0.8699891439725596  0.013635201073721293  0.0071793146880474445  1.0000
  C   C35       1.0  0.9382104382842413  0.031806916579256495  0.19600299368460394  1.0000
  C   C36       1.0  0.9325860937903022  0.8998408008184853  0.2412963506799426  1.0000
  C   C37       1.0  0.9770191831176962  0.8466315429853577  0.3388609609840987  1.0000
  F   F2        1.0  0.970840131864562  0.7195592971263198  0.3825492195576974  1.0000
  C   C38       1.0  0.027795183323781947  0.9242582165063238  0.3913169903266245  1.0000
  C   C39       1.0  0.03442019368312943  0.055018836067464605  0.34595875934447995  1.0000
  C   C40       1.0  0.9901250066550454  0.1086398806515183  0.24846506182355932  1.0000
  H   H18       1.0  0.7926296093007541  0.6664398523390751  0.37653887750171955  1.0000
  H   H19       1.0  0.8642700957226737  0.23900766983371646  0.2896257634090422  1.0000
  H   H20       1.0  0.8656177605464993  0.24014183521710142  0.8725281431881493  1.0000
  H   H21       1.0  0.8074067383647143  0.5860693432833544  0.05479783347696032  1.0000
  H   H22       1.0  0.8259734939906045  0.47080531244457147  0.6170566360175962  1.0000
  H   H23       1.0  0.893420953836264  0.8383220851948556  0.2019328307391357  1.0000
  H   H24       1.0  0.06221361036621764  0.8830481391250408  0.46673997886305374  1.0000
  H   H25       1.0  0.07413036388914618  0.11478974430817779  0.3859614708149923  1.0000
  H   H26       1.0  0.996977735549378  0.20960282002616903  0.21318887692850774  1.0000
  Zn  Zn1       1.0  0.7588944510560547  0.420962543604243  0.567300636321225  1.0000
  Zn  Zn2       1.0  0.9112015698492167  0.42095885421585044  0.5672962486516238  1.0000
  C   C41       1.0  0.8350124135908311  0.4158500224907087  0.8044938801417358  1.0000
  C   C42       1.0  0.8350852707986871  0.4260730140113853  0.330103131998301  1.0000
  C   C43       1.0  0.8350941210441384  0.6581617366128689  0.5620872643640054  1.0000
  C   C44       1.0  0.8350035110632367  0.18375973954066072  0.5725098172548639  1.0000
  O   O3        1.0  0.8928767856948326  0.4278155276631632  0.3784869223081673  1.0000
  O   O4        1.0  0.8928184775809818  0.4141037288156606  0.7561063859973978  1.0000
  O   O5        1.0  0.8928836780073681  0.6097735027961941  0.5603613285055187  1.0000
  O   O6        1.0  0.892811533313063  0.2321457629486765  0.5742318824257753  1.0000
  O   O7        1.0  0.7772844356172652  0.6097756348740884  0.5603650025417395  1.0000
  O   O8        1.0  0.7772192354980783  0.41410742124478905  0.7561099905494522  1.0000
  O   O9        1.0  0.7772775438889339  0.4278191744203179  0.3784889654716359  1.0000
  O   O10       1.0  0.7772122914876041  0.2321494004424549  0.5742340229581815  1.0000
