data_image0
_chemical_formula_structural       NC10NC3NH7C6SCOC6H10C7OC4NC3H9Zn2C4O8
_chemical_formula_sum              "N4 C44 H26 S1 O10 Zn2"
_cell_length_a       19.210446455230148
_cell_length_b       10.302038109246572
_cell_length_c       10.299375074045738
_cell_angle_alpha    85.54623755187913
_cell_angle_beta     89.9839463016943
_cell_angle_gamma    89.9653702289085

_space_group_name_H-M_alt    "P 1"
_space_group_IT_number       1

loop_
  _space_group_symop_operation_xyz
  'x, y, z'

loop_
  _atom_site_type_symbol
  _atom_site_label
  _atom_site_symmetry_multiplicity
  _atom_site_fract_x
  _atom_site_fract_y
  _atom_site_fract_z
  _atom_site_occupancy
  N   N1        1.0  0.6557993826361812  0.42039500914782035  0.5674959087689018  1.0000
  C   C1        1.0  0.5955710213455352  0.42260187241898595  0.5677274364196276  1.0000
  C   C2        1.0  0.5207668149376755  0.4253379788422451  0.5680142706374378  1.0000
  C   C3        1.0  0.48516564280436003  0.5415329736379435  0.5831461565674709  1.0000
  C   C4        1.0  0.4125001787450385  0.5416844933036478  0.5830935823628576  1.0000
  C   C5        1.0  0.3756001196257572  0.4260467313371046  0.5681008761641217  1.0000
  C   C6        1.0  0.2982778780011845  0.42469065971975306  0.567950050663188  1.0000
  C   C7        1.0  0.2605353681735438  0.5282601817758545  0.5046029616429106  1.0000
  C   C8        1.0  0.187756894709027  0.5268583500880724  0.5044936479682443  1.0000
  C   C9        1.0  0.151719544672485  0.4221444610893559  0.5676804674886589  1.0000
  C   C10       1.0  0.0767899164891595  0.4208427642223307  0.5675434149624567  1.0000
  N   N2        1.0  0.0165519772304918  0.41979615572979756  0.567433259601339  1.0000
  C   C11       1.0  0.1887384090298685  0.3187006096178877  0.6310025680482709  1.0000
  C   C12       1.0  0.2615187053782114  0.31982822285832335  0.6311620837483105  1.0000
  C   C13       1.0  0.4138113009223196  0.31167141566628187  0.5532574716872873  1.0000
  N   N3        1.0  0.484581454571307  0.314115703884559  0.5534234507906206  1.0000
  H   H1        1.0  0.5132739037605463  0.6309390715641983  0.5952100614599716  1.0000
  H   H2        1.0  0.3852386170742876  0.6316717510237877  0.5965523661970387  1.0000
  H   H3        1.0  0.287271581954911  0.6095132997447528  0.4536238123424672  1.0000
  H   H4        1.0  0.1596192934525434  0.6072834411378232  0.45484480896528257  1.0000
  H   H5        1.0  0.1613625990203168  0.23731240602963566  0.6805517569512909  1.0000
  H   H6        1.0  0.2890113893507925  0.23952171238931275  0.6822487288790222  1.0000
  H   H7        1.0  0.3875385958339153  0.22082147466685176  0.5397522944225375  1.0000
  C   C14       1.0  0.8361130788345806  0.03881728062861933  0.5674244356971081  1.0000
  C   C15       1.0  0.7766104212125076  0.04371564279096618  0.4879118479472544  1.0000
  C   C16       1.0  0.7473318290049051  0.9291939931352976  0.4478656892785249  1.0000
  C   C17       1.0  0.7768343176704088  0.8085826931931493  0.48785780063833095  1.0000
  C   C18       1.0  0.836244951627895  0.8013639246832078  0.5675159910384746  1.0000
  C   C19       1.0  0.8656137765016568  0.9171350339414733  0.6068012115713353  1.0000
  S   S1        1.0  0.6718037040451632  0.9368930518350835  0.3452653979359823  1.0000
  C   C20       1.0  0.7229895348803514  0.9453578494623193  0.19882836696734207  1.0000
  O   O1        1.0  0.7397765866690887  0.8400797478249323  0.15247345218419595  1.0000
  C   C21       1.0  0.7459507603146367  0.07151064189144041  0.13332406617590387  1.0000
  C   C22       1.0  0.7951720273049823  0.07380652361225781  0.03180470878699082  1.0000
  C   C23       1.0  0.8175476258234833  0.19212885990679207  0.9700751274944057  1.0000
  C   C24       1.0  0.7910785908800008  0.30939517228670366  0.008582614614159212  1.0000
  C   C25       1.0  0.7420667505771562  0.30857203695599256  0.10874883456457107  1.0000
  C   C26       1.0  0.7194591129224156  0.1905536026183916  0.17079864222637098  1.0000
  H   H8        1.0  0.9481879920516852  0.2368885391969766  0.7174651264728205  1.0000
  H   H9        1.0  0.7529298883967196  0.13628883385438217  0.4566388440850555  1.0000
  H   H10       1.0  0.7533780700938528  0.7208821629584965  0.45609620618750735  1.0000
  H   H11       1.0  0.9114864333933924  0.9124384281159108  0.6680967884409661  1.0000
  H   H12       1.0  0.8589542776842479  0.4713047457150573  0.5974798879332901  1.0000
  H   H13       1.0  0.8167068949289198  0.9842181155931167  0.0005020751738067375  1.0000
  H   H14       1.0  0.8555237546218449  0.19284870071537763  0.8923676553954154  1.0000
  H   H15       1.0  0.8084808117010347  0.40088883506699124  0.9607032886147135  1.0000
  H   H16       1.0  0.721444282773766  0.399542484689019  0.1382905815462543  1.0000
  H   H17       1.0  0.6810752907447892  0.19322257565279677  0.24737379944182858  1.0000
  C   C27       1.0  0.8362026900517152  0.4202328789358032  0.18608345176003538  1.0000
  C   C28       1.0  0.8897999471454583  0.51323254065701  0.1776418164703566  1.0000
  C   C29       1.0  0.916292322220997  0.5612198611372592  0.05612688157944645  1.0000
  C   C30       1.0  0.8896872026885225  0.5129950490909634  0.94241649130498  1.0000
  C   C31       1.0  0.8361552938158081  0.4199483414547558  0.9488569818877997  1.0000
  C   C32       1.0  0.8095980271245989  0.37435711269741656  0.07116848975824408  1.0000
  C   C33       1.0  0.973386981298665  0.6584206375454431  0.04715109925492489  1.0000
  O   O2        1.0  0.0178697372241845  0.6536629032997274  0.9575078761527287  1.0000
  C   C34       1.0  0.9800083943285677  0.7610305573121163  0.1397887692629416  1.0000
  C   C35       1.0  0.046211277877943324  0.8074705323355735  0.1715394187693009  1.0000
  C   C36       1.0  0.05297356162835154  0.9054476440410133  0.25776674215185236  1.0000
  C   C37       1.0  0.120958783214417  0.9516753824206505  0.29054816599572586  1.0000
  N   N4        1.0  0.17561124125598893  0.9888316603527809  0.3168969755965947  1.0000
  C   C38       1.0  0.9935396264018584  0.9583847142155748  0.31197683748074767  1.0000
  C   C39       1.0  0.9275689828037035  0.9139555220906608  0.2797254358428263  1.0000
  C   C40       1.0  0.9206683052842959  0.8162485599784042  0.19377372768006929  1.0000
  H   H18       1.0  0.7357901711027973  0.24326712158665842  0.4094483912675573  1.0000
  H   H19       1.0  0.9115378737856972  0.5473895764000136  0.26582539675399985  1.0000
  H   H20       1.0  0.9104131666017887  0.5491878247658952  0.8486720808571402  1.0000
  H   H21       1.0  0.7682786893610498  0.3026604992986557  0.07687255482392508  1.0000
  H   H22       1.0  0.8159920208193798  0.38340382636922943  0.6239359783013847  1.0000
  H   H23       1.0  0.09248075690158997  0.7666833617739415  0.13014583308111916  1.0000
  H   H24       1.0  0.9981963002063925  0.03423680447730071  0.3786643293611951  1.0000
  H   H25       1.0  0.8816464738557647  0.9557205802147863  0.32097026007515006  1.0000
  H   H26       1.0  0.868959310921615  0.784948370681001  0.16847562395621685  1.0000
  Zn  Zn1       1.0  0.7599047868469871  0.4202187269590929  0.5674853285746289  1.0000
  Zn  Zn2       1.0  0.9124465545897558  0.4199618539172534  0.5674544748002612  1.0000
  C   C41       1.0  0.8361618227913911  0.41482965688845486  0.8046758031152748  1.0000
  C   C42       1.0  0.8361911846720549  0.4253525593655594  0.33026412759173973  1.0000
  C   C43       1.0  0.8362167438872807  0.6572283046144782  0.5623232498848625  1.0000
  C   C44       1.0  0.8361362112503004  0.18295235176948488  0.5726167498873098  1.0000
  O   O3        1.0  0.8940761282624069  0.42696762451065906  0.3786407699811285  1.0000
  O   O4        1.0  0.8940525511954167  0.413018651697979  0.756275369443965  1.0000
  O   O5        1.0  0.8940961202222547  0.6087586260963449  0.560573968345772  1.0000
  O   O6        1.0  0.8940325071910503  0.23122765952428992  0.5743420737117431  1.0000
  O   O7        1.0  0.7783187821906742  0.6089529214411307  0.5605977296668441  1.0000
  O   O8        1.0  0.7782752134346832  0.41321450700189  0.7562990617035765  1.0000
  O   O9        1.0  0.7782987906371255  0.42716343515180943  0.3786629007616009  1.0000
  O   O10       1.0  0.7782551695552692  0.23142346084251741  0.5743643018634921  1.0000
