data_image0
_chemical_formula_structural       NC12NC2H8C7OC6OCH12C7OC3FC3H9Zn2C4O8
_chemical_formula_sum              "N2 C45 H29 O11 F1 Zn2"
_cell_length_a       19.240039667572717
_cell_length_b       10.299359160628079
_cell_length_c       10.29938172300155
_cell_angle_alpha    85.58141560917656
_cell_angle_beta     89.98344622294188
_cell_angle_gamma    90.02126226386561

_space_group_name_H-M_alt    "P 1"
_space_group_IT_number       1

loop_
  _space_group_symop_operation_xyz
  'x, y, z'

loop_
  _atom_site_type_symbol
  _atom_site_label
  _atom_site_symmetry_multiplicity
  _atom_site_fract_x
  _atom_site_fract_y
  _atom_site_fract_z
  _atom_site_occupancy
  N   N1        1.0  0.6549809197087533  0.4209412390288232  0.5676489809563046  1.0000
  C   C1        1.0  0.594832550920822  0.42094132299110965  0.5676488990310788  1.0000
  C   C2        1.0  0.5200145138241838  0.4209414402444691  0.5676487617428465  1.0000
  C   C3        1.0  0.4835120069825904  0.3565010454265587  0.6710515843197193  1.0000
  C   C4        1.0  0.4108412234774712  0.3563901836395791  0.6711381110907031  1.0000
  C   C5        1.0  0.37368227894043976  0.4209415327536372  0.5676485340746464  1.0000
  C   C6        1.0  0.4108990127976879  0.4854930689082251  0.46415915162407306  1.0000
  C   C7        1.0  0.4835696657905735  0.48538197164747254  0.4642458008629402  1.0000
  C   C8        1.0  0.29647718849993926  0.4209414540662111  0.5676484386486667  1.0000
  C   C9        1.0  0.2592604084957026  0.3076886641378538  0.6095033319564418  1.0000
  C   C10       1.0  0.1865897554650303  0.30779554358726147  0.6094120216670253  1.0000
  C   C11       1.0  0.1501449015416669  0.4209413249058085  0.5676484995408366  1.0000
  C   C12       1.0  0.0753268643256771  0.4209412112237121  0.5676487481849253  1.0000
  N   N2        1.0  0.0151785474332464  0.4209411704523862  0.5676489565978109  1.0000
  C   C13       1.0  0.1866475584981555  0.5340871820402773  0.5258849245345947  1.0000
  C   C14       1.0  0.2593182901304143  0.5341942415734244  0.525793451676172  1.0000
  H   H1        1.0  0.5112044760806074  0.30661006293731585  0.7517856291398273  1.0000
  H   H2        1.0  0.3837255059152528  0.3072975897189685  0.7529877689148285  1.0000
  H   H3        1.0  0.3838281995850128  0.534585689868937  0.38230944295546276  1.0000
  H   H4        1.0  0.5113069680930838  0.5352728539421743  0.38351203182329807  1.0000
  H   H5        1.0  0.2863311551692799  0.21853910323564074  0.6406584736312728  1.0000
  H   H6        1.0  0.15885240388816477  0.21954544757900818  0.6416002506182281  1.0000
  H   H7        1.0  0.1589550866201077  0.6223372535148004  0.4936967101303704  1.0000
  H   H8        1.0  0.286434022296696  0.623343881642721  0.49463826524094956  1.0000
  C   C15       1.0  0.8350012882759261  0.03956291643097831  0.5676174638311897  1.0000
  C   C16       1.0  0.7775274149043656  0.044821591347721235  0.4832212658460553  1.0000
  C   C17       1.0  0.7490375707257553  0.9304890336313529  0.43956100484310867  1.0000
  C   C18       1.0  0.7776929299340251  0.8095601455364166  0.4834763698225004  1.0000
  C   C19       1.0  0.8351648566088411  0.8023094832864432  0.5676917095638234  1.0000
  C   C20       1.0  0.863584074186207  0.9178969979998638  0.6090664669380541  1.0000
  C   C21       1.0  0.6878679315949013  0.9381784809894678  0.351628303312715  1.0000
  O   O1        1.0  0.6436984948841794  0.02705421956968257  0.3631947391764816  1.0000
  C   C22       1.0  0.6768042137823506  0.8451139109103254  0.2505817059497628  1.0000
  C   C23       1.0  0.7333456609114275  0.7917481750964191  0.18652709724801664  1.0000
  C   C24       1.0  0.7221892481028847  0.70533620461823  0.09044614743633028  1.0000
  C   C25       1.0  0.6546748631767033  0.6714127226627774  0.05568376539858355  1.0000
  C   C26       1.0  0.5978996752841342  0.7258128884333008  0.11842662685824368  1.0000
  C   C27       1.0  0.6089925266781014  0.8122837605112831  0.21455399775656958  1.0000
  O   O2        1.0  0.6462717949723034  0.5841601465238111  0.958786328935366  1.0000
  C   C28       1.0  0.5807813810890866  0.5413038820264694  0.9139186589130532  1.0000
  H   H9        1.0  0.9432727113348297  0.23687780311716322  0.7272913058837478  1.0000
  H   H10       1.0  0.7551801187621934  0.13814095032228946  0.4502367783425838  1.0000
  H   H11       1.0  0.7546247921947746  0.7209149537349464  0.45302518470177255  1.0000
  H   H12       1.0  0.9079175377130684  0.9130360031512564  0.6740346105884552  1.0000
  H   H13       1.0  0.8570336933826656  0.4720227037851722  0.6004095339807018  1.0000
  H   H14       1.0  0.7861825883583918  0.8178422663104309  0.20965800310771487  1.0000
  H   H15       1.0  0.7663058533681699  0.6648758144775465  0.04226530710042087  1.0000
  H   H16       1.0  0.5450339555487732  0.7019953543788385  0.09365112000868558  1.0000
  H   H17       1.0  0.5644876431622324  0.8526980801346339  0.26168408628630546  1.0000
  H   H18       1.0  0.5894691108865658  0.4728883082945825  0.8374445225190259  1.0000
  H   H19       1.0  0.5502478772837495  0.6256409351327751  0.8714090151601255  1.0000
  H   H20       1.0  0.5515932215644443  0.4897559886831122  0.9954536607139284  1.0000
  C   C29       1.0  0.8351415569625059  0.42083507919804686  0.1862868893104801  1.0000
  C   C30       1.0  0.8571081418681811  0.29037767999863906  0.19513543634093522  1.0000
  C   C31       1.0  0.8689426500825469  0.22503481677412118  0.0823896717810022  1.0000
  C   C32       1.0  0.8570417296875508  0.2906708207044064  0.9598694148517084  1.0000
  C   C33       1.0  0.8350245557516777  0.4210373294408316  0.9490222645634847  1.0000
  C   C34       1.0  0.8243770822215671  0.4854690407591491  0.0628206296221927  1.0000
  C   C35       1.0  0.8914343023861568  0.08686326472366201  0.09162152057404715  1.0000
  O   O3        1.0  0.8700117788053457  0.013617517512136912  0.007433140818893902  1.0000
  C   C36       1.0  0.9382334788978661  0.0317889159996263  0.19626137022592682  1.0000
  C   C37       1.0  0.9326061875538566  0.8998251024782925  0.24152168135966612  1.0000
  C   C38       1.0  0.9770380886996914  0.8466167729171771  0.3390729674422224  1.0000
  F   F1        1.0  0.9708561998783336  0.7195467439206584  0.38272940563658553  1.0000
  C   C39       1.0  0.0278158223368703  0.9242420921875604  0.39154843541332895  1.0000
  C   C40       1.0  0.03444375262713151  0.055000430539972056  0.3462229484224102  1.0000
  C   C41       1.0  0.9901497629759508  0.10862053966811125  0.2487426782393174  1.0000
  H   H21       1.0  0.7926668214924443  0.6664107801524295  0.37695617356598365  1.0000
  H   H22       1.0  0.8642977632024514  0.2389860544947755  0.28993602544669694  1.0000
  H   H23       1.0  0.8656454533525912  0.2401202000918674  0.8728386892341047  1.0000
  H   H24       1.0  0.8074421558544925  0.586041673215385  0.055195003824077604  1.0000
  H   H25       1.0  0.8260063375937797  0.4707796532367079  0.6174249429008727  1.0000
  H   H26       1.0  0.8934396738651256  0.8383074600908678  0.20214275641166868  1.0000
  H   H27       1.0  0.062233329143693394  0.8830327337443533  0.466961104463534  1.0000
  H   H28       1.0  0.07415525753868346  0.11477029603617939  0.3862406272286665  1.0000
  H   H29       1.0  0.9970047464084526  0.209581717675009  0.21349177564724164  1.0000
  Zn  Zn1       1.0  0.7589261816525611  0.4209377539376815  0.5676564619911892  1.0000
  Zn  Zn2       1.0  0.911233300363338  0.42093406461365257  0.567652073397722  1.0000
  C   C42       1.0  0.8350440300229318  0.41582532201558586  0.8048484255765114  1.0000
  C   C43       1.0  0.8351171155138064  0.42604813518916096  0.33046023738993346  1.0000
  C   C44       1.0  0.8351311483825746  0.6581328088436322  0.5625024874911002  1.0000
  C   C45       1.0  0.8350299448371777  0.1837390880397718  0.5728062445634472  1.0000
  O   O4        1.0  0.8929086693208986  0.4277906184415927  0.3788444640456341  1.0000
  O   O5        1.0  0.8928500550177263  0.4140790588058294  0.7564604941397759  1.0000
  O   O6        1.0  0.8929196248194174  0.6097454191928977  0.5607644346519134  1.0000
  O   O7        1.0  0.8928390475640312  0.23212426732040936  0.5745404261615465  1.0000
  O   O8        1.0  0.7773203824769247  0.6097475512335959  0.5607681092220314  1.0000
  O   O9        1.0  0.7772508130172765  0.4140827511705407  0.7564640996164582  1.0000
  O   O10       1.0  0.7773094275964333  0.42779426513512675  0.3788465081222938  1.0000
  O   O11       1.0  0.7772398058197988  0.23212790475072964  0.5745425676048237  1.0000
