data_image0
_chemical_formula_structural       NC12NC2H8C7OC3NC3H11C6SCOC6H10Zn2C4O8
_chemical_formula_sum              "N3 C44 H29 O10 S1 Zn2"
_cell_length_a       17.80743265337812
_cell_length_b       10.298746005989749
_cell_length_c       10.302041481415108
_cell_angle_alpha    85.54475236709732
_cell_angle_beta     91.53022125456708
_cell_angle_gamma    89.44452832379845

_space_group_name_H-M_alt    "P 1"
_space_group_IT_number       1

loop_
  _space_group_symop_operation_xyz
  'x, y, z'

loop_
  _atom_site_type_symbol
  _atom_site_label
  _atom_site_symmetry_multiplicity
  _atom_site_fract_x
  _atom_site_fract_y
  _atom_site_fract_z
  _atom_site_occupancy
  N   N1        1.0  0.7075957468451426  0.4072383853189361  0.6017796661934403  1.0000
  C   C1        1.0  0.6567807509633922  0.43682104481505735  0.5330994681648558  1.0000
  C   C2        1.0  0.5935618808440736  0.47361972475525715  0.44766994762279366  1.0000
  C   C3        1.0  0.605297396295947  0.5276843454259732  0.3210843261585157  1.0000
  C   C4        1.0  0.543985667716064  0.5629785627240329  0.23805009974048175  1.0000
  C   C5        1.0  0.4707841649535111  0.5444718512723574  0.28094176893430634  1.0000
  C   C6        1.0  0.4580718511682176  0.4902882721667552  0.4079954138853392  1.0000
  C   C7        1.0  0.520240896637617  0.45499731417254896  0.4910131327308531  1.0000
  C   C8        1.0  0.3803019524901352  0.470666450564307  0.45374661483422085  1.0000
  C   C9        1.0  0.3615150634068315  0.4978158199311411  0.5807639645479019  1.0000
  C   C10       1.0  0.2882836173718746  0.47935067280109456  0.6236961909690062  1.0000
  C   C11       1.0  0.23289604506063513  0.4334816036374307  0.5404488192902859  1.0000
  C   C12       1.0  0.15752790554329593  0.4144631504167313  0.5847815991704641  1.0000
  N   N2        1.0  0.09693725862627832  0.39917359312973355  0.6204221043924074  1.0000
  C   C13       1.0  0.2509914110434484  0.40616313948823835  0.4139742982317327  1.0000
  C   C14       1.0  0.3241700101227583  0.42464315241400596  0.37078624539128446  1.0000
  H   H1        1.0  0.6617653324181292  0.5425200181423813  0.2866566318472801  1.0000
  H   H2        1.0  0.5531901609516368  0.6051094309538116  0.14029743901682723  1.0000
  H   H3        1.0  0.4241492456553761  0.5741301661348588  0.21536880367034406  1.0000
  H   H4        1.0  0.5117346672100244  0.41148105709475424  0.5886412538061947  1.0000
  H   H5        1.0  0.40319304047921756  0.5349780295749511  0.6463251831589054  1.0000
  H   H6        1.0  0.2748396116346575  0.5011678377387496  0.7216843127090136  1.0000
  H   H7        1.0  0.20859665620681833  0.3702681929745373  0.34882605087871155  1.0000
  H   H8        1.0  0.33708547774356173  0.40129021498823225  0.273101252675503  1.0000
  C   C15       1.0  0.902234199359532  0.021804593767771108  0.611082152866298  1.0000
  C   C16       1.0  0.9373823144591802  0.029626125259146985  0.49028814388267805  1.0000
  C   C17       1.0  0.9543649378866097  0.9164743061847698  0.42848217841971903  1.0000
  C   C18       1.0  0.9373828795449469  0.794389530502689  0.49023904479080005  1.0000
  C   C19       1.0  0.9023059848137822  0.7845972829720309  0.611131134545295  1.0000
  C   C20       1.0  0.8847733897205566  0.8988700088394552  0.6706224944138912  1.0000
  C   C21       1.0  0.9921195478727586  0.9245288484572319  0.30150311697991117  1.0000
  O   O1        1.0  0.037990247155892165  0.8356096462822356  0.27849285491275944  1.0000
  C   C22       1.0  0.9778383359311988  0.033397809223821406  0.2006359391299708  1.0000
  C   C23       1.0  0.9067022812085662  0.09426768970330657  0.18512506224724756  1.0000
  C   C24       1.0  0.8935413976667642  0.19624529308413274  0.08860946823982396  1.0000
  N   N3        1.0  0.8212027057803702  0.25798195963981874  0.07394418170365347  1.0000
  C   C25       1.0  0.9515630863337918  0.23696009326589018  0.006272468129043807  1.0000
  C   C26       1.0  0.02201346131714521  0.17594030870867217  0.019894855804749367  1.0000
  C   C27       1.0  0.0351159205605156  0.07438849730040098  0.11610351226984172  1.0000
  H   H9        1.0  0.8368633520083281  0.21429904105776876  0.8402358506208563  1.0000
  H   H10       1.0  0.9523237926162432  0.12384978806737923  0.4447920831172838  1.0000
  H   H11       1.0  0.9509337300947571  0.7069341440611979  0.44320064531432934  1.0000
  H   H12       1.0  0.8576842420928574  0.892088866198702  0.7637348715658656  1.0000
  H   H13       1.0  0.8363108397210232  0.5587708581458459  0.839766523024454  1.0000
  H   H14       1.0  0.8612047277971401  0.06178338476666534  0.24689489995291813  1.0000
  H   H15       1.0  0.7775505055154255  0.22840983388048475  0.13479114244953005  1.0000
  H   H16       1.0  0.8107832952094626  0.333838359708752  0.0022227887952388503  1.0000
  H   H17       1.0  0.9420982006068227  0.3155340637762589  0.9313487616477647  1.0000
  H   H18       1.0  0.06659062394358628  0.20740889710502697  0.9557491588127767  1.0000
  H   H19       1.0  0.09021405706106078  0.028602959520091176  0.12526781036865997  1.0000
  C   C28       1.0  0.9022841950161069  0.40332991652636996  0.2298203036991644  1.0000
  C   C29       1.0  0.9367369021103751  0.5257251955971887  0.22056434331825536  1.0000
  C   C30       1.0  0.95421362101269  0.5860944772162198  0.09901947727817939  1.0000
  C   C31       1.0  0.9368081644215721  0.5253198224459035  0.9854623194361407  1.0000
  C   C32       1.0  0.9022560226056039  0.4030719191659198  0.9923930302161703  1.0000
  C   C33       1.0  0.8852283231839441  0.34265477787493537  0.1151528203769594  1.0000
  S   S1        1.0  0.9988967476759237  0.7417151856390738  0.08864580546491752  1.0000
  C   C34       1.0  0.09143433721595806  0.66999170798963  0.09564092067689334  1.0000
  O   O2        1.0  0.12083296259926546  0.6462080135930051  0.9899869320569259  1.0000
  C   C35       1.0  0.13284005112769393  0.6377886737679481  0.2211461400266037  1.0000
  C   C36       1.0  0.19947800447794073  0.5626786769045626  0.2245247585835055  1.0000
  C   C37       1.0  0.2386310577223152  0.5309682782398935  0.3423497085414904  1.0000
  C   C38       1.0  0.21194356837469375  0.5738722207065683  0.4580119629915942  1.0000
  C   C39       1.0  0.14611304092280686  0.648806668270987  0.4560522628027408  1.0000
  C   C40       1.0  0.10673578544687046  0.6808958776609175  0.338516005955813  1.0000
  H   H20       1.0  0.8372342939717019  0.17275167363504762  0.4545691499614479  1.0000
  H   H21       1.0  0.9502372507161757  0.5743775079309668  0.3075280217983316  1.0000
  H   H22       1.0  0.9506269088962296  0.5736339809637341  0.8921555233550937  1.0000
  H   H23       1.0  0.8586694857048369  0.2482964860627659  0.12136803485689529  1.0000
  H   H24       1.0  0.8893244197228368  0.356419138707041  0.6677117734552009  1.0000
  H   H25       1.0  0.2211755541338385  0.5277683916780789  0.13624296729553453  1.0000
  H   H26       1.0  0.28969304300297427  0.4729212404480587  0.3439442313240222  1.0000
  H   H27       1.0  0.2423203773483209  0.5491897686570453  0.5491270936287396  1.0000
  H   H28       1.0  0.1255819121232018  0.68230563603661  0.5457438597039992  1.0000
  H   H29       1.0  0.05624400542713137  0.7398732416801967  0.3401761004502013  1.0000
  Zn  Zn1       1.0  0.8199512996411676  0.4049075903951991  0.6071669562475415  1.0000
  Zn  Zn2       1.0  0.9845817019475832  0.40149379011115616  0.6150454044154163  1.0000
  C   C41       1.0  0.9022591652075103  0.3979466190213947  0.8482500175053487  1.0000
  C   C42       1.0  0.9022756342896473  0.40845636292209897  0.3739625567341347  1.0000
  C   C43       1.0  0.9022887488460583  0.6404150411799268  0.6059476514391247  1.0000
  C   C44       1.0  0.9022459943248179  0.16598638146985634  0.616264989235404  1.0000
  O   O3        1.0  0.964749140395056  0.4088756595236187  0.4253278432652863  1.0000
  O   O4        1.0  0.9647363250860611  0.3949353473149271  0.8028639170107006  1.0000
  O   O5        1.0  0.964759371986925  0.5907316816471497  0.6072030018646064  1.0000
  O   O6        1.0  0.9647260373214618  0.21307933568024118  0.6209886583700106  1.0000
  O   O7        1.0  0.839806908087013  0.593322045992493  0.6012236995975899  1.0000
  O   O8        1.0  0.8397838613321542  0.39752727212036043  0.7968845456132827  1.0000
  O   O9        1.0  0.8397966767445731  0.411467539596309  0.41934691080471387  1.0000
  O   O10       1.0  0.8397735736634331  0.21567120643046556  0.615007823255451  1.0000
