data_image0
_chemical_formula_structural       NC10NC3NH7C7OC3NC3H11C7OC3NC3H11Zn2C4O8
_chemical_formula_sum              "N5 C43 H29 O10 Zn2"
_cell_length_a       19.210446455230148
_cell_length_b       10.298746005989749
_cell_length_c       10.298749378158432
_cell_angle_alpha    85.5599185525692
_cell_angle_beta     89.99958857852239
_cell_angle_gamma    89.95621662588981

_space_group_name_H-M_alt    "P 1"
_space_group_IT_number       1

loop_
  _space_group_symop_operation_xyz
  'x, y, z'

loop_
  _atom_site_type_symbol
  _atom_site_label
  _atom_site_symmetry_multiplicity
  _atom_site_fract_x
  _atom_site_fract_y
  _atom_site_fract_z
  _atom_site_occupancy
  N   N1        1.0  0.6554681883041262  0.42042664000477825  0.5673565948521595  1.0000
  C   C1        1.0  0.5952396717964656  0.42263428862866914  0.5675879981370224  1.0000
  C   C2        1.0  0.5204352729160899  0.42537136868030445  0.5678746781557742  1.0000
  C   C3        1.0  0.4848263585466056  0.5416085949240455  0.5830001262556217  1.0000
  C   C4        1.0  0.4121608738167336  0.5417601479962117  0.582947540946261  1.0000
  C   C5        1.0  0.375268529546241  0.4260803770675199  0.5679612442003492  1.0000
  C   C6        1.0  0.297946382047926  0.4247238203035886  0.567810494798989  1.0000
  C   C7        1.0  0.2601857343887177  0.5283079644188091  0.5044547880224666  1.0000
  C   C8        1.0  0.1874073650420159  0.5269056451757068  0.5043455547617459  1.0000
  C   C9        1.0  0.1513882274439422  0.42217671482621966  0.5675410550212692  1.0000
  C   C10       1.0  0.0764586907424689  0.42087455458024925  0.5674040758327681  1.0000
  N   N2        1.0  0.0162208250440979  0.41982757352714795  0.5672939794391338  1.0000
  C   C11       1.0  0.1884252152113415  0.3187182745807595  0.6308717648245101  1.0000
  C   C12       1.0  0.2612054382779481  0.3198463014515083  0.6310312185234475  1.0000
  C   C13       1.0  0.4134873393640144  0.3116635067492297  0.5531241786639385  1.0000
  N   N3        1.0  0.4842573078678806  0.31410863771012787  0.5532900166315684  1.0000
  H   H1        1.0  0.51292872377369  0.6310473138316546  0.5950590933333202  1.0000
  H   H2        1.0  0.3848935706216297  0.6317806331688662  0.5964014042041637  1.0000
  H   H3        1.0  0.2869075311118088  0.6095721698011531  0.4534688298268901  1.0000
  H   H4        1.0  0.1592556122237978  0.6073419535746609  0.4546900066363804  1.0000
  H   H5        1.0  0.1610636247065079  0.23731851131927062  0.6804277171774893  1.0000
  H   H6        1.0  0.2887124739273361  0.2395290428889445  0.6821246195107817  1.0000
  H   H7        1.0  0.3872204429271012  0.22078004451238042  0.539623972244399  1.0000
  C   C14       1.0  0.8358145664487802  0.038725092800076855  0.5673081228257766  1.0000
  C   C15       1.0  0.8683672891296949  0.047188092539792725  0.44478887708524106  1.0000
  C   C16       1.0  0.8840954811181024  0.9343453002269572  0.38214829444233267  1.0000
  C   C17       1.0  0.8683678069027564  0.8119514955802613  0.4447397361538499  1.0000
  C   C18       1.0  0.8358810861765307  0.8015191705994145  0.5673536693590813  1.0000
  C   C19       1.0  0.8196430352421402  0.9154717164998329  0.6277053842098632  1.0000
  C   C20       1.0  0.9190625594165133  0.9430896163219961  0.25331688626130844  1.0000
  O   O1        1.0  0.9615620414815474  0.8550433079501136  0.22809533461128528  1.0000
  C   C21       1.0  0.9058181330624953  0.051658140651937634  0.15310585611454197  1.0000
  C   C22       1.0  0.8399040812192473  0.11116075383755253  0.14100892624205597  1.0000
  C   C23       1.0  0.8276982279724985  0.2128605441370779  0.045096941663029355  1.0000
  N   N4        1.0  0.7606699541795022  0.273207122196766  0.03390365014998564  1.0000
  C   C24       1.0  0.8814493702546744  0.254665336320286  0.9599469700574867  1.0000
  C   C25       1.0  0.9467278712067827  0.19499917843152925  0.9701877976794191  1.0000
  C   C26       1.0  0.9588795541563256  0.09372397907868502  0.0657955606224756  1.0000
  H   H8        1.0  0.7752713380595634  0.23002768640691262  0.7996718764486008  1.0000
  H   H9        1.0  0.8822061582693868  0.141685997369154  0.3985611679740735  1.0000
  H   H10       1.0  0.8809179857757643  0.7247432937861635  0.39703605648664264  1.0000
  H   H11       1.0  0.7945541948718636  0.9081961891503901  0.722147430048756  1.0000
  H   H12       1.0  0.7747593436394071  0.5744887913668751  0.7992289605832676  1.0000
  H   H13       1.0  0.7977549344223305  0.07782099286189159  0.2049837123892142  1.0000
  H   H14       1.0  0.7202305386372702  0.2428146571854335  0.09686660120805901  1.0000
  H   H15       1.0  0.751007192162185  0.34884482360820446  0.9626615344529581  1.0000
  H   H16       1.0  0.8726706587098189  0.333038049395743  0.8854557115261907  1.0000
  H   H17       1.0  0.988023934223452  0.22730495521705962  0.9038806729627433  1.0000
  H   H18       1.0  0.009932672417877209  0.048996696197104894  0.0723147480320212  1.0000
  C   C27       1.0  0.8358157292208649  0.42015018145415106  0.18592985387762306  1.0000
  C   C28       1.0  0.8738487337828912  0.5369617988473105  0.17591055296023006  1.0000
  C   C29       1.0  0.8923821537173259  0.5968319539535538  0.05360558840158425  1.0000
  C   C30       1.0  0.8738515045312113  0.5370106598596565  0.9406665259782927  1.0000
  C   C31       1.0  0.8358799134839131  0.42009403773465603  0.9487319491390394  1.0000
  C   C32       1.0  0.8169430978888383  0.36258658408420175  0.07178584069528093  1.0000
  C   C33       1.0  0.9331091525852443  0.7195428031495426  0.04292572138273987  1.0000
  O   O2        1.0  0.9766058477248252  0.7378149479402862  0.9515723545889867  1.0000
  C   C34       1.0  0.9244929918777528  0.8215166603886714  0.13582299541437526  1.0000
  C   C35       1.0  0.8593729296760347  0.844200736281117  0.19253991434122586  1.0000
  C   C36       1.0  0.8515950285638342  0.9417240355176788  0.279247364974756  1.0000
  N   N5        1.0  0.7853235014801895  0.9636875850246662  0.3369323260739867  1.0000
  C   C37       1.0  0.9090410656701315  0.017886289194059657  0.3086396255984367  1.0000
  C   C38       1.0  0.9736127625987362  0.9971539422282898  0.2514635842840418  1.0000
  C   C39       1.0  0.9813505760114529  0.8999424067790016  0.16513296386692966  1.0000
  H   H19       1.0  0.7648745210755602  0.19841842973999002  0.4123015962823884  1.0000
  H   H20       1.0  0.8897496448745988  0.5807849601130537  0.26345656386754457  1.0000
  H   H21       1.0  0.8885358777365514  0.5825121391936916  0.8462603848359564  1.0000
  H   H22       1.0  0.7876298282508859  0.2725435069758657  0.07875712284107661  1.0000
  H   H23       1.0  0.7643846769810297  0.19894224415243866  0.7566872083187914  1.0000
  H   H24       1.0  0.8144541752897038  0.787263215519544  0.16850130666225915  1.0000
  H   H25       1.0  0.7421544278139584  0.9074823985996767  0.31570845200498177  1.0000
  H   H26       1.0  0.7789519415217067  0.036222760979314206  0.40142548844030657  1.0000
  H   H27       1.0  0.9036988597305663  0.09351597983430304  0.3753781363359898  1.0000
  H   H28       1.0  0.017788092495079733  0.05655272427749747  0.2740958239755109  1.0000
  H   H29       1.0  0.03191897639554675  0.8852124880238403  0.12212284976974486  1.0000
  Zn  Zn1       1.0  0.7595736060709241  0.4202502974539395  0.5673460248887001  1.0000
  Zn  Zn2       1.0  0.9121153913095108  0.41999333182926657  0.5673151854438627  1.0000
  C   C40       1.0  0.8358657921058803  0.4149305440844093  0.8045457132183889  1.0000
  C   C41       1.0  0.8358248711797657  0.42531472114518887  0.33011562435248054  1.0000
  C   C42       1.0  0.835864501926033  0.6573352227537925  0.5621694644305804  1.0000
  C   C43       1.0  0.8358261091774931  0.18290848212037059  0.5724919423020738  1.0000
  O   O3        1.0  0.8937167513303349  0.42694480449553307  0.3784939823300906  1.0000
  O   O4        1.0  0.8937495972578238  0.41310444999067597  0.7561435748796654  1.0000
  O   O5        1.0  0.8937477751660681  0.6088492948569959  0.5604230393697696  1.0000
  O   O6        1.0  0.8937185213625265  0.2311999690150912  0.574214420468192  1.0000
  O   O7        1.0  0.7779704239628831  0.6090436603572189  0.560446789868063  1.0000
  O   O8        1.0  0.7779722461817338  0.41330037593543856  0.7561672562198669  1.0000
  O   O9        1.0  0.777939400165162  0.4271406852952071  0.37851610213532805  1.0000
  O   O10       1.0  0.7779411702018928  0.2313958405179919  0.574236637648917  1.0000
