data_image0
_chemical_formula_structural       NC10NC5H10C6NCOC6H11C7OC3FC3H9Zn2C4O8
_chemical_formula_sum              "N3 C45 H30 O10 F1 Zn2"
_cell_length_a       19.4436361288709
_cell_length_b       10.29965916528486
_cell_length_c       10.29938172300155
_cell_angle_alpha    85.59399439143571
_cell_angle_beta     89.68829794462899
_cell_angle_gamma    89.4352492152202

_space_group_name_H-M_alt    "P 1"
_space_group_IT_number       1

loop_
  _space_group_symop_operation_xyz
  'x, y, z'

loop_
  _atom_site_type_symbol
  _atom_site_label
  _atom_site_symmetry_multiplicity
  _atom_site_fract_x
  _atom_site_fract_y
  _atom_site_fract_z
  _atom_site_occupancy
  N   N1        1.0  0.6480849292881838  0.4088999141187213  0.5625794227048133  1.0000
  C   C1        1.0  0.5892492063049007  0.4188026890149994  0.5769668110971349  1.0000
  C   C2        1.0  0.5159201823140634  0.43115278112974487  0.5949633854535978  1.0000
  C   C3        1.0  0.4737401939202398  0.3991491487061192  0.5002786139004232  1.0000
  C   C4        1.0  0.3978366387881306  0.40958756363994886  0.5056102910103613  1.0000
  C   C5        1.0  0.3580834467658231  0.3848490375076661  0.6126741969100427  1.0000
  C   C6        1.0  0.2819647269801951  0.388764495278614  0.5997161674387266  1.0000
  C   C7        1.0  0.2414018426596227  0.4464317060969085  0.6935067366397547  1.0000
  C   C8        1.0  0.16974000190146651  0.45006850161373  0.6829640895365185  1.0000
  C   C9        1.0  0.1376462016174683  0.39564210959767854  0.5789172633167696  1.0000
  C   C10       1.0  0.0638551403121389  0.3993401340481184  0.5682193553220312  1.0000
  N   N2        1.0  0.004532131994086  0.4023131516694549  0.5596189465706221  1.0000
  C   C11       1.0  0.1774840496498665  0.33726785987419183  0.4855096852026217  1.0000
  C   C12       1.0  0.24916233495885892  0.33357682165409686  0.4958005361532336  1.0000
  C   C13       1.0  0.3861975696224774  0.3444000240099283  0.7437548822819207  1.0000
  C   C14       1.0  0.4448633134304716  0.3875244359801737  0.7910122592954145  1.0000
  C   C15       1.0  0.4890928755203347  0.48537375518330395  0.716678582420238  1.0000
  H   H1        1.0  0.4958433172995996  0.3700256390464196  0.4099617436414398  1.0000
  H   H2        1.0  0.373150543000417  0.43207406193507314  0.41245969306211405  1.0000
  H   H3        1.0  0.265271267859825  0.4897278238095326  0.7743700046515802  1.0000
  H   H4        1.0  0.1393952270307663  0.49538764784871514  0.7559005896209632  1.0000
  H   H5        1.0  0.15314274022351332  0.2941674207902407  0.40498096768696756  1.0000
  H   H6        1.0  0.2788410815413684  0.2860144085340275  0.42355959512394903  1.0000
  H   H7        1.0  0.35521608825869483  0.2801900260357517  0.8079796405283994  1.0000
  H   H8        1.0  0.45999867234636055  0.35346609743997637  0.8889349507101356  1.0000
  H   H9        1.0  0.4590002580514805  0.5760832991242566  0.6914579697978491  1.0000
  H   H10       1.0  0.5323759046833269  0.5109640652776031  0.7797723951016255  1.0000
  C   C16       1.0  0.8262513388876268  0.024246876572139753  0.5609842073831122  1.0000
  C   C17       1.0  0.8267396741915228  0.03348342358948786  0.42416659681933866  1.0000
  C   C18       1.0  0.8279998771616732  0.9212817776944556  0.3553217617842348  1.0000
  C   C19       1.0  0.8268692174123189  0.7982908135996089  0.42446189993390915  1.0000
  C   C20       1.0  0.8263722851279115  0.7869560530287908  0.561225359261833  1.0000
  C   C21       1.0  0.8263081732948244  0.9005372212237117  0.6287125551360238  1.0000
  N   N3        1.0  0.8274425581609869  0.934328658291567  0.2152627554795472  1.0000
  C   C22       1.0  0.8596947374285392  0.8425831985621508  0.1352701996159429  1.0000
  O   O1        1.0  0.907134612985574  0.7689000502148616  0.18185339658430433  1.0000
  C   C23       1.0  0.8397242467075504  0.8367198785326381  0.9970723065496059  1.0000
  C   C24       1.0  0.776132800338718  0.8877403081268966  0.9512555201459287  1.0000
  C   C25       1.0  0.7577224982210865  0.881033442681497  0.8208881370819592  1.0000
  C   C26       1.0  0.8022631814301159  0.8231013389812372  0.7350631292062162  1.0000
  C   C27       1.0  0.8652493790513869  0.771304217291672  0.779508748012947  1.0000
  C   C28       1.0  0.8839222655596393  0.7776498709734107  0.909769477520709  1.0000
  H   H11       1.0  0.8246737102818674  0.21409976911833728  0.8190715308377123  1.0000
  H   H12       1.0  0.8266687534634716  0.1280801435911343  0.3703451756419769  1.0000
  H   H13       1.0  0.8251692122085398  0.7115179976841068  0.37167165098450416  1.0000
  H   H14       1.0  0.8259409186239574  0.8925513278495856  0.7341834171143711  1.0000
  H   H15       1.0  0.8252666270026914  0.4551758660153752  0.6136950673544643  1.0000
  H   H16       1.0  0.8078250898003614  0.02081225268983955  0.1694861058242838  1.0000
  H   H17       1.0  0.7400813815030195  0.9311199503365756  0.01603610297137581  1.0000
  H   H18       1.0  0.7087111280216952  0.9203634647489373  0.7865100961018845  1.0000
  H   H19       1.0  0.7878751015183989  0.8179838762836358  0.6342270020128007  1.0000
  H   H20       1.0  0.8996737307869719  0.7261584125480405  0.7129779920301833  1.0000
  H   H21       1.0  0.9331062076204972  0.7371299680449571  0.9419274181983677  1.0000
  C   C29       1.0  0.8263697024677866  0.4054992746948427  0.17973661485721704  1.0000
  C   C30       1.0  0.8481145621491616  0.27464607144628883  0.1883758364556234  1.0000
  C   C31       1.0  0.8598293508387419  0.20908974569942473  0.07551838806942057  1.0000
  C   C32       1.0  0.848048825747064  0.27494041336595343  0.953110425477572  1.0000
  C   C33       1.0  0.8262539086526564  0.40570365534151187  0.9424729963426186  1.0000
  C   C34       1.0  0.815713843854866  0.47032716372783634  0.05637308823981413  1.0000
  C   C35       1.0  0.8820942244566427  0.07051313601677855  0.08453489376796175  1.0000
  O   O2        1.0  0.8608986842041676  0.9976624332370722  0.0005064170431607895  1.0000
  C   C36       1.0  0.9284090714764899  0.014585484623996336  0.18877796014335324  1.0000
  C   C37       1.0  0.9228474488241578  0.8827305268879434  0.2340554002199493  1.0000
  C   C38       1.0  0.9668195689783957  0.8287120993570496  0.3312297708100742  1.0000
  F   F1        1.0  0.9607088610173781  0.7017608469570188  0.3749089759427202  1.0000
  C   C39       1.0  0.01706443193522378  0.9054053763449255  0.3833050394537032  1.0000
  C   C40       1.0  0.023616339314485923  0.03603661523674173  0.3379539335216435  1.0000
  C   C41       1.0  0.9797806726114647  0.09046428185793909  0.24084953623962457  1.0000
  H   H22       1.0  0.7843240544407761  0.6518406062398836  0.3708091786310672  1.0000
  H   H23       1.0  0.8552320793860814  0.22312529219130117  0.28310599543695036  1.0000
  H   H24       1.0  0.8565656762927908  0.2242347422626927  0.865997833184768  1.0000
  H   H25       1.0  0.7989498545269563  0.5712049375920523  0.048908839366758716  1.0000
  H   H26       1.0  0.817326922758887  0.455608645691709  0.6109607696103629  1.0000
  H   H27       1.0  0.8840920436685532  0.8219318730625381  0.19498479950398973  1.0000
  H   H28       1.0  0.05112578628316311  0.8635685055815677  0.4584257464752681  1.0000
  H   H29       1.0  0.06291115485113563  0.09507760510313101  0.37765842327707033  1.0000
  H   H30       1.0  0.9865588667939589  0.1912955526112905  0.20556457331635536  1.0000
  Zn  Zn1       1.0  0.7509478918819666  0.4069956474863796  0.5617326042694086  1.0000
  Zn  Zn2       1.0  0.9016691576120335  0.4042068137404635  0.5604764428111209  1.0000
  C   C42       1.0  0.8262734596323656  0.4004915269223335  0.7982978471749287  1.0000
  C   C43       1.0  0.826345235973683  0.4107125424642404  0.3239113141726946  1.0000
  C   C44       1.0  0.8263466778703606  0.6427864898938369  0.5560046627607795  1.0000
  C   C45       1.0  0.826271966047105  0.16841602019847013  0.566204567760612  1.0000
  O   O3        1.0  0.8835349587503384  0.4113981492760066  0.3718209517967219  1.0000
  O   O4        1.0  0.8834776899935104  0.3976882800278807  0.7494344379145554  1.0000
  O   O5        1.0  0.883536043386178  0.5933445414943379  0.5537809840889629  1.0000
  O   O6        1.0  0.8834765539429656  0.21574189802508825  0.5674743086794147  1.0000
  O   O7        1.0  0.7691404441172651  0.5954605641548592  0.5547347388229504  1.0000
  O   O8        1.0  0.769082090979411  0.3998058629357726  0.7503881238966101  1.0000
  O   O9        1.0  0.7691393600117992  0.41351568650973447  0.37277307636640855  1.0000
  O   O10       1.0  0.769080955185362  0.21785942599638175  0.568426530613837  1.0000
