data_image0
_chemical_formula_structural       NC12NC2H8C7OC3NC3H11C7OC6H10Zn2C4O8
_chemical_formula_sum              "N3 C44 H29 O10 Zn2"
_cell_length_a       19.240039667572717
_cell_length_b       10.298746005989749
_cell_length_c       10.299382801718286
_cell_angle_alpha    85.57508548997963
_cell_angle_beta     89.98040902502626
_cell_angle_gamma    90.00762981599719

_space_group_name_H-M_alt    "P 1"
_space_group_IT_number       1

loop_
  _space_group_symop_operation_xyz
  'x, y, z'

loop_
  _atom_site_type_symbol
  _atom_site_label
  _atom_site_symmetry_multiplicity
  _atom_site_fract_x
  _atom_site_fract_y
  _atom_site_fract_z
  _atom_site_occupancy
  N   N1        1.0  0.6548406031232306  0.42113472466806345  0.5675876730831362  1.0000
  C   C1        1.0  0.594692234326931  0.4211348086415847  0.5675875911543031  1.0000
  C   C2        1.0  0.5198741972192561  0.42113492591230806  0.5675874538609054  1.0000
  C   C3        1.0  0.4833769626382514  0.35668294200269424  0.6709932704208805  1.0000
  C   C4        1.0  0.41070619079658294  0.3565720669666197  0.6710798018349249  1.0000
  C   C5        1.0  0.3735419623301919  0.42113501844391243  0.5675872261879669  1.0000
  C   C6        1.0  0.4107534122287366  0.4856981569591583  0.4640948451005513  1.0000
  C   C7        1.0  0.483424076911587  0.485587046425658  0.46418149899200034  1.0000
  C   C8        1.0  0.2963368719024214  0.4211349397585644  0.5675871307644111  1.0000
  C   C9        1.0  0.2591333277675006  0.3078720218711064  0.6094465086578087  1.0000
  C   C10       1.0  0.1864626637163344  0.30797891467140315  0.609355193848264  1.0000
  C   C11       1.0  0.1500045849588705  0.42113481058564783  0.567587191661769  1.0000
  C   C12       1.0  0.0751865477503021  0.42113469687825855  0.5675874403115075  1.0000
  N   N2        1.0  0.0150382308571487  0.4211346560891325  0.5675876487270819  1.0000
  C   C13       1.0  0.1864940170731037  0.5342907823244145  0.5258191365920801  1.0000
  C   C14       1.0  0.2591647376665473  0.5343978552315842  0.5257276592058644  1.0000
  H   H1        1.0  0.51107349438872  0.3067829374123976  0.7517296370052942  1.0000
  H   H2        1.0  0.3835944025405171  0.3074704190727324  0.7529317576479291  1.0000
  H   H3        1.0  0.3836786697079084  0.5347998318985552  0.38224283844176465  1.0000
  H   H4        1.0  0.511157316566579  0.5354869507949755  0.3834454081933467  1.0000
  H   H5        1.0  0.2862145442215906  0.218714619690207  0.6406051705205371  1.0000
  H   H6        1.0  0.15873563804294347  0.2197209578580861  0.641546914958498  1.0000
  H   H7        1.0  0.158791219294293  0.622548714601407  0.4936274300298269  1.0000
  H   H8        1.0  0.2862700000435041  0.6235553365877822  0.4945689525795234  1.0000
  C   C15       1.0  0.8349095447341645  0.03973261668602279  0.5675704743632828  1.0000
  C   C16       1.0  0.8674447536993293  0.04821714704741753  0.44506691534859466  1.0000
  C   C17       1.0  0.8831653992132757  0.9353838432958034  0.3824341942179328  1.0000
  C   C18       1.0  0.8674452837377352  0.8129805379039202  0.4450177785349292  1.0000
  C   C19       1.0  0.8349759500197966  0.802526817026161  0.5676160286967735  1.0000
  C   C20       1.0  0.8187468383319727  0.916468420237429  0.6279599812458787  1.0000
  C   C21       1.0  0.9181129272939593  0.944152023410369  0.25361940876663547  1.0000
  O   O1        1.0  0.9605537310952704  0.856169587682102  0.22840729322721431  1.0000
  C   C22       1.0  0.9049155130809292  0.05267195688197046  0.15341429626795078  1.0000
  C   C23       1.0  0.8391060805009377  0.11206191362160567  0.14130692944924816  1.0000
  C   C24       1.0  0.8269444989207941  0.21371597865246716  0.04540069020985227  1.0000
  N   N3        1.0  0.7600223183467206  0.27394829003804033  0.03419669449253404  1.0000
  C   C25       1.0  0.8806355823681026  0.25558741898508663  0.9602670177555255  1.0000
  C   C26       1.0  0.9458109351655244  0.1960323695828503  0.9705183242685234  1.0000
  C   C27       1.0  0.9579185106490107  0.09480272480194873  0.06612035741587596  1.0000
  H   H9        1.0  0.7743976941540044  0.23099635996945556  0.7999046844683131  1.0000
  H   H10       1.0  0.8812746203245291  0.1427257598945637  0.39884539485014847  1.0000
  H   H11       1.0  0.8799888349700516  0.7257805125775617  0.3973201850224233  1.0000
  H   H12       1.0  0.7936714921095003  0.9091763028489271  0.7223899358964836  1.0000
  H   H13       1.0  0.7738866051281812  0.5754564972347151  0.7994617161355273  1.0000
  H   H14       1.0  0.7970047722040839  0.07866914814776593  0.20526916372922632  1.0000
  H   H15       1.0  0.7196283799615667  0.24350539083757372  0.09714747306238736  1.0000
  H   H16       1.0  0.75039335826864  0.349551037029769  0.9629587429452369  1.0000
  H   H17       1.0  0.8718901763549727  0.3339257831084885  0.8857803429785203  1.0000
  H   H18       1.0  0.9870610920347248  0.22838911530003392  0.9042237946827871  1.0000
  H   H19       1.0  0.00889135467362645  0.0501619423389319  0.07264786230328824  1.0000
  C   C28       1.0  0.8350120779243961  0.42105647638270693  0.18622346617764207  1.0000
  C   C29       1.0  0.9080293750765186  0.4219200062597026  0.1849198526329563  1.0000
  C   C30       1.0  0.9448570995787171  0.4208673410500363  0.06720414247309558  1.0000
  C   C31       1.0  0.9078600115823812  0.4219480454303206  0.9496742856442482  1.0000
  C   C32       1.0  0.8348733995216095  0.42120294451849993  0.9489630091049897  1.0000
  C   C33       1.0  0.7988727764792937  0.4204167307902047  0.0678034028409793  1.0000
  C   C34       1.0  0.021953994770047558  0.42316318805769737  0.06557577716349927  1.0000
  O   O2        1.0  0.0525825754003133  0.48387727444591877  0.9710525461038815  1.0000
  C   C35       1.0  0.06430446857084116  0.35657426717597707  0.17107795615839527  1.0000
  C   C36       1.0  0.12963597899194657  0.40703838489892874  0.20218238064721916  1.0000
  C   C37       1.0  0.17029167256968925  0.3440990929416037  0.30043302318149534  1.0000
  C   C38       1.0  0.1464669286350493  0.2297857016446574  0.36779013378912206  1.0000
  C   C39       1.0  0.0820569216410032  0.17787449655842802  0.33666260375511015  1.0000
  C   C40       1.0  0.04120320222103757  0.24043504364965784  0.23851399932316242  1.0000
  H   H20       1.0  0.6972176831415838  0.421438733242959  0.39584824379376826  1.0000
  H   H21       1.0  0.9363442555413591  0.42487073039568024  0.27551886948783566  1.0000
  H   H22       1.0  0.9361817848790479  0.4221194062104383  0.8587228094313071  1.0000
  H   H23       1.0  0.7425819419448558  0.4197518130949407  0.06800415541097227  1.0000
  H   H24       1.0  0.8068352585344983  0.4220217822893597  0.6211480233215174  1.0000
  H   H25       1.0  0.14893967807387165  0.49571904354976115  0.15125219976522009  1.0000
  H   H26       1.0  0.22032489589671966  0.38398625888194093  0.3243080921384991  1.0000
  H   H27       1.0  0.1780357778544548  0.1811542561038495  0.44373061768792543  1.0000
  H   H28       1.0  0.06388449409921537  0.08873788989358955  0.38822151922708903  1.0000
  H   H29       1.0  0.9920042531295664  0.1972654266773175  0.21445251288440592  1.0000
  Zn  Zn1       1.0  0.7587858652985671  0.42113123881188663  0.5675951542904389  1.0000
  Zn  Zn2       1.0  0.9110929846037737  0.421127549579017  0.5675907658110966  1.0000
  C   C41       1.0  0.8348976326739482  0.416001124029441  0.8047886279042462  1.0000
  C   C42       1.0  0.8349828805369123  0.42625930310774307  0.3303974197140096  1.0000
  C   C43       1.0  0.834960769269924  0.6583414655775937  0.5624322458282844  1.0000
  C   C44       1.0  0.8349196918207117  0.18391740113586863  0.5727538709370392  1.0000
  O   O3        1.0  0.8927728391547047  0.42799835300627076  0.3787818498226101  1.0000
  O   O4        1.0  0.8927052534446073  0.4142582942090356  0.7564004931359394  1.0000
  O   O5        1.0  0.8927554576304702  0.6099511850992596  0.560696000001115  1.0000
  O   O6        1.0  0.892722583015249  0.23230547138963775  0.5744862455845954  1.0000
  O   O7        1.0  0.7771562149121481  0.6099533170039371  0.5606996745116066  1.0000
  O   O8        1.0  0.7771060108715667  0.41426198654010626  0.7564040984940299  1.0000
  O   O9        1.0  0.7771735969077823  0.4280019997776203  0.378783893773716  1.0000
  O   O10       1.0  0.7771233407469759  0.2323091088900675  0.5744883869032074  1.0000
