data_image0
_chemical_formula_structural       NC9NC5H8C7OC4NC3H9C7OC3OC4H12Zn2C4O8
_chemical_formula_sum              "N3 C46 H29 O11 Zn2"
_cell_length_a       17.807436237873137
_cell_length_b       10.299371701877257
_cell_length_c       10.299374482448636
_cell_angle_alpha    85.56746279880974
_cell_angle_beta     89.37372472773512
_cell_angle_gamma    88.40037932452064

_space_group_name_H-M_alt    "P 1"
_space_group_IT_number       1

loop_
  _space_group_symop_operation_xyz
  'x, y, z'

loop_
  _atom_site_type_symbol
  _atom_site_label
  _atom_site_symmetry_multiplicity
  _atom_site_fract_x
  _atom_site_fract_y
  _atom_site_fract_z
  _atom_site_occupancy
  N   N1        1.0  0.707818115564963  0.38807950926877477  0.5575534552604593  1.0000
  C   C1        1.0  0.6472289877676338  0.3528923791901548  0.5465169004301562  1.0000
  C   C2        1.0  0.5718627720994778  0.3091234643856946  0.5327886245765061  1.0000
  C   C3        1.0  0.5537832472815344  0.23773244297477514  0.42775685529608776  1.0000
  C   C4        1.0  0.480606544485756  0.1951247223680468  0.4143449140939337  1.0000
  C   C5        1.0  0.424460615146201  0.22353050187844525  0.505932158351085  1.0000
  C   C6        1.0  0.3466926404856892  0.17836436599729955  0.49176085560257454  1.0000
  C   C7        1.0  0.2845199405754317  0.26011442682878827  0.5177291409715346  1.0000
  C   C8        1.0  0.211200909545306  0.2173036655559517  0.5043308110417091  1.0000
  C   C9        1.0  0.1479783298857932  0.30174498870001454  0.5306639468084411  1.0000
  N   N2        1.0  0.097160363664989  0.3696299702716632  0.5518350594230992  1.0000
  C   C10       1.0  0.1994710116998653  0.09248486993251559  0.46493875554660935  1.0000
  C   C11       1.0  0.2607863419006414  0.010720958746183618  0.43896207534428533  1.0000
  C   C12       1.0  0.3339859374785084  0.05313722602244919  0.4521577220639139  1.0000
  C   C13       1.0  0.4432315551075843  0.2954158385747998  0.6111833373646118  1.0000
  C   C14       1.0  0.5164611381794395  0.3378332006446716  0.6244395556137792  1.0000
  H   H1        1.0  0.5961889907646725  0.2152635659947295  0.35603345526657604  1.0000
  H   H2        1.0  0.4677036614548349  0.1414614260120417  0.3314025536654379  1.0000
  H   H3        1.0  0.2930221336545295  0.35757248032034084  0.5466411019329711  1.0000
  H   H4        1.0  0.1430044293324458  0.058451323110729536  0.45433165711553336  1.0000
  H   H5        1.0  0.251586108278849  0.9140832750201424  0.4088499396116143  1.0000
  H   H6        1.0  0.3806235029701141  0.9873967045677943  0.4330857821947127  1.0000
  H   H7        1.0  0.4015423994740341  0.3173453738041232  0.6842011004018105  1.0000
  H   H8        1.0  0.5298926869482569  0.3927173157512449  0.7063406708788678  1.0000
  C   C15       1.0  0.9024535555244488  0.9974860408537446  0.5545678064342545  1.0000
  C   C16       1.0  0.9061287688186506  0.006685217532086396  0.4178469583363871  1.0000
  C   C17       1.0  0.9071294120162948  0.894196551874713  0.3488388816952328  1.0000
  C   C18       1.0  0.9061380038916118  0.7714163888226363  0.4181642231611755  1.0000
  C   C19       1.0  0.902532097965092  0.7602131140381556  0.5548318687512266  1.0000
  C   C20       1.0  0.9005130820887572  0.8738581119737182  0.6222299746888047  1.0000
  C   C21       1.0  0.9117991651030158  0.9037290892255099  0.2045182232787246  1.0000
  O   O1        1.0  0.9479671912708945  0.8162814394531651  0.14904035288847295  1.0000
  C   C22       1.0  0.8754258984642915  0.012385406986140435  0.12313907631320764  1.0000
  C   C23       1.0  0.9076231479418209  0.05553246339256468  0.0026941825857762502  1.0000
  C   C24       1.0  0.873230671216498  0.1570841177779818  0.9244073921560854  1.0000
  C   C25       1.0  0.9068857700450651  0.20134666207917173  0.8017549059339459  1.0000
  N   N3        1.0  0.9339429687765417  0.23692418515367142  0.7031600436442007  1.0000
  C   C26       1.0  0.8060802481302886  0.2154350256135622  0.9655660668982247  1.0000
  C   C27       1.0  0.7732491303549669  0.172107791985737  0.08428069540521888  1.0000
  C   C28       1.0  0.8074259064409502  0.07086383601017165  0.16255925610011324  1.0000
  H   H9        1.0  0.8966732776927738  0.18738634099127993  0.812644440512929  1.0000
  H   H10       1.0  0.9090588476179877  0.10148265809566737  0.3649165345173073  1.0000
  H   H11       1.0  0.9074661989375393  0.6845285101794275  0.365131688427037  1.0000
  H   H12       1.0  0.897680172172042  0.8659623077429374  0.7276319973615522  1.0000
  H   H13       1.0  0.9017791828651569  0.4284189395290359  0.6073689567922902  1.0000
  H   H14       1.0  0.9597283168551995  0.010979736425770215  0.970351555808993  1.0000
  H   H15       1.0  0.7790088080619867  0.29394837186263545  0.905723310729873  1.0000
  H   H16       1.0  0.7210158942692882  0.21668304657630788  0.11547218028111494  1.0000
  H   H17       1.0  0.7802679451581338  0.037419466373420196  0.25311576797843593  1.0000
  C   C29       1.0  0.9025624295642368  0.3789337796255883  0.1733163118406531  1.0000
  C   C30       1.0  0.9810356340395412  0.3898795839698592  0.1697974842930281  1.0000
  C   C31       1.0  0.02052059900422898  0.3968762260095635  0.05073680056719154  1.0000
  C   C32       1.0  0.9808560548722332  0.3898242226152535  0.9345612488518058  1.0000
  C   C33       1.0  0.9024232115279334  0.37876538311110974  0.9360833231278249  1.0000
  C   C34       1.0  0.8637090059379212  0.3737261870931208  0.05596085466881329  1.0000
  C   C35       1.0  0.10347091283700616  0.4070715483906022  0.046984390389805064  1.0000
  O   O2        1.0  0.1403229328635578  0.35178309797137186  0.9605773876559773  1.0000
  C   C36       1.0  0.14461128965961523  0.4800036241229688  0.14117401380383043  1.0000
  C   C37       1.0  0.217903452183017  0.43981264446859414  0.17824907028468018  1.0000
  C   C38       1.0  0.25803864305599444  0.5081750123042106  0.26588736731593543  1.0000
  O   O3        1.0  0.3307201138367606  0.4628386023346336  0.3000985493001951  1.0000
  C   C39       1.0  0.3777963028013924  0.5224786754582567  0.3878209716071721  1.0000
  C   C40       1.0  0.22446637073027165  0.6191527526441689  0.3163331424985396  1.0000
  C   C41       1.0  0.15205148205127217  0.6606353775852691  0.2787351106264455  1.0000
  C   C42       1.0  0.11234987271421448  0.5920194541331696  0.19133139701611768  1.0000
  H   H18       1.0  0.7546020576333416  0.356284091891945  0.3874301242035838  1.0000
  H   H19       1.0  0.011633592204596477  0.3915216505722201  0.25994044094794666  1.0000
  H   H20       1.0  0.011280995236418345  0.3942380887514494  0.8427228150424355  1.0000
  H   H21       1.0  0.8032118985467162  0.3652869202313065  0.057869897883633836  1.0000
  H   H22       1.0  0.8723635450530571  0.37343022161744255  0.6092936860129048  1.0000
  H   H23       1.0  0.24394841969774994  0.35426618444275393  0.13995871535530835  1.0000
  H   H24       1.0  0.4318681008705658  0.46655908728632944  0.396966939736517  1.0000
  H   H25       1.0  0.3506680205680497  0.5219632445315889  0.4854534892163056  1.0000
  H   H26       1.0  0.38935671494500257  0.6239368440334676  0.35002511057741614  1.0000
  H   H27       1.0  0.25391177847482904  0.6741952965602009  0.3841112473041719  1.0000
  H   H28       1.0  0.12671212632929763  0.7466374520659722  0.31704420315841664  1.0000
  H   H29       1.0  0.05679934203842052  0.6273786423751546  0.1619344900653168  1.0000
  Zn  Zn1       1.0  0.8201738751905994  0.3827519039054117  0.5559107596263639  1.0000
  Zn  Zn2       1.0  0.984804582803483  0.3749469871144473  0.5534884284131714  1.0000
  C   C43       1.0  0.9024473250366537  0.3736236292350037  0.7919022946240009  1.0000
  C   C44       1.0  0.9025329308651058  0.3840768151452305  0.31749699500240114  1.0000
  C   C45       1.0  0.9025143274712087  0.616042803185342  0.5496066458117757  1.0000
  C   C46       1.0  0.9024658720802918  0.14165608354184211  0.5597927133422833  1.0000
  O   O4        1.0  0.9649995258077325  0.38283527386550964  0.36496608534541086  1.0000
  O   O5        1.0  0.9649316278442807  0.3689404396248612  0.7425943367395536  1.0000
  O   O6        1.0  0.9649848906980419  0.5646970280287045  0.5469388989015513  1.0000
  O   O7        1.0  0.9649462067953912  0.1870786974366656  0.5606214266348082  1.0000
  O   O8        1.0  0.8400321950183118  0.5706201962480435  0.5487777622245191  1.0000
  O   O9        1.0  0.8399789323344301  0.3748651681621009  0.7444331313546562  1.0000
  O   O10       1.0  0.8400468306281605  0.38875995748916004  0.3668033184835946  1.0000
  O   O11       1.0  0.8399935115940198  0.19300337175016735  0.562458757141389  1.0000
