data_image0
_chemical_formula_structural       NC10NC3NH7C7OC4NC3H9C7OC3NC3H11Zn2C4O8
_chemical_formula_sum              "N5 C44 H27 O10 Zn2"
_cell_length_a       19.210446455230148
_cell_length_b       10.299371701877257
_cell_length_c       10.298749378158432
_cell_angle_alpha    85.57636868446646
_cell_angle_beta     89.99958857852239
_cell_angle_gamma    89.95709994445667

_space_group_name_H-M_alt    "P 1"
_space_group_IT_number       1

loop_
  _space_group_symop_operation_xyz
  'x, y, z'

loop_
  _atom_site_type_symbol
  _atom_site_label
  _atom_site_symmetry_multiplicity
  _atom_site_fract_x
  _atom_site_fract_y
  _atom_site_fract_z
  _atom_site_occupancy
  N   N1        1.0  0.6554799392128734  0.42030872551884113  0.5677656315690347  1.0000
  C   C1        1.0  0.5952514409686536  0.42251619087824954  0.5679976705849656  1.0000
  C   C2        1.0  0.5204470647316  0.42525304371548445  0.5682851387938335  1.0000
  C   C3        1.0  0.484839111969706  0.5414806207085052  0.5834440594378183  1.0000
  C   C4        1.0  0.4121736284936025  0.5416321611997312  0.5833915177708182  1.0000
  C   C5        1.0  0.3752803272272372  0.42596199324548256  0.5683719090097854  1.0000
  C   C6        1.0  0.2979581685063963  0.42460554909397996  0.5682207689641574  1.0000
  C   C7        1.0  0.2601983777783318  0.5281810943342142  0.5048948910552695  1.0000
  C   C8        1.0  0.18741999683052  0.5267788915024407  0.504785253972174  1.0000
  C   C9        1.0  0.1513999928307125  0.42205865506057005  0.5679505957028259  1.0000
  C   C10       1.0  0.076470445356725  0.42075660291138717  0.5678132415344865  1.0000
  N   N2        1.0  0.0162325709968867  0.41970970877177294  0.5677028436443297  1.0000
  C   C11       1.0  0.1884361247068913  0.3186088032549872  0.6312515128370624  1.0000
  C   C12       1.0  0.2612163571054412  0.3197367364843575  0.6314112913710839  1.0000
  C   C13       1.0  0.4134981904968648  0.3115546210639255  0.553501895132593  1.0000
  N   N3        1.0  0.48426817922881593  0.3139995490461185  0.5536684372184872  1.0000
  H   H1        1.0  0.512942217105628  0.630911915001378  0.5955287819603343  1.0000
  H   H2        1.0  0.3849070700201738  0.6316451734632369  0.5968713040033184  1.0000
  H   H3        1.0  0.2869208467841264  0.6094385536962197  0.45393233431023794  1.0000
  H   H4        1.0  0.1592689094459775  0.6072085226076234  0.45515286888992423  1.0000
  H   H5        1.0  0.1610738607979106  0.23721579726696085  0.680784024703232  1.0000
  H   H6        1.0  0.2887227283060294  0.23942614533282947  0.6824815635977872  1.0000
  H   H7        1.0  0.387230542199038  0.2206787033749098  0.5399755172291034  1.0000
  C   C14       1.0  0.8358231596160972  0.038638864668402606  0.5676072419000946  1.0000
  C   C15       1.0  0.8391938856521883  0.04798528302165228  0.4309331416847595  1.0000
  C   C16       1.0  0.840103576759391  0.9355317625228221  0.36193624923839707  1.0000
  C   C17       1.0  0.8392025229783201  0.8127169270940545  0.4312505560743565  1.0000
  C   C18       1.0  0.8358960018147309  0.801369580114782  0.5678724580027912  1.0000
  C   C19       1.0  0.8340423061408053  0.9149324898721817  0.6352445079865943  1.0000
  C   C20       1.0  0.8443938918404459  0.9452559592021176  0.2176764169195078  1.0000
  O   O1        1.0  0.8778921633316317  0.8594579904817297  0.1627212527573576  1.0000
  C   C21       1.0  0.8106707875510132  0.052231896859677995  0.13576493493580832  1.0000
  C   C22       1.0  0.8404733893629455  0.09683646753215691  0.015781909750693934  1.0000
  C   C23       1.0  0.8085864150797726  0.19679904243956514  0.9369917087777302  1.0000
  C   C24       1.0  0.8397392618578828  0.24258560027611065  0.8148221615638542  1.0000
  N   N4        1.0  0.8647847646266446  0.2793883641834465  0.7166155612976892  1.0000
  C   C25       1.0  0.7463770591656176  0.2520774930064864  0.9771769108339119  1.0000
  C   C26       1.0  0.7159866937624286  0.20726341297972795  0.0954203787637442  1.0000
  C   C27       1.0  0.7476738035360541  0.1075986452865978  0.17419921619087675  1.0000
  H   H8        1.0  0.8305326736660334  0.22831428296984857  0.8256124429396259  1.0000
  H   H9        1.0  0.8418954120914048  0.14290883468622995  0.3780427112417861  1.0000
  H   H10       1.0  0.8404197610480388  0.7258816969928032  0.37823473972519883  1.0000
  H   H11       1.0  0.8314441035343914  0.9069231919499244  0.740610497439631  1.0000
  H   H12       1.0  0.8352116772238505  0.4695490566898022  0.6204011604944231  1.0000
  H   H13       1.0  0.8887444493110701  0.05466774144108011  0.9841946264736681  1.0000
  H   H14       1.0  0.7212782324412331  0.32934029975685464  0.9169379902337296  1.0000
  H   H15       1.0  0.6675966786528329  0.24944861572493782  0.12585460383823266  1.0000
  H   H16       1.0  0.7225329009761016  0.07292316443258251  0.26436561186807994  1.0000
  C   C28       1.0  0.8358274778425252  0.4200322899179858  0.18633881098341898  1.0000
  C   C29       1.0  0.8738614487639665  0.5368342103782457  0.1763531480161502  1.0000
  C   C30       1.0  0.8923953639923567  0.5966993954576232  0.054065424116749305  1.0000
  C   C31       1.0  0.8738642199165041  0.536883067334472  0.9411091351045964  1.0000
  C   C32       1.0  0.8358916616411077  0.4199761508591733  0.9491408900772687  1.0000
  C   C33       1.0  0.816954370298239  0.36247347109963624  0.07217822135551022  1.0000
  C   C34       1.0  0.9331233780228683  0.7194000580052522  0.04342089383509862  1.0000
  O   O2        1.0  0.9766202243242902  0.7376706859626028  0.9520727888253093  1.0000
  C   C35       1.0  0.9245080609249355  0.8213654500448302  0.13634753302407332  1.0000
  C   C36       1.0  0.8593881863840922  0.8440476428543535  0.19307098422768254  1.0000
  C   C37       1.0  0.8516110920628641  0.9415628463474446  0.2798065184024636  1.0000
  N   N5        1.0  0.7853397466793218  0.9635245725848758  0.33749780429026766  1.0000
  C   C38       1.0  0.9090577592444274  0.017718777533992647  0.3092207112803813  1.0000
  C   C39       1.0  0.9736292846584247  0.9969881516314347  0.2520386997237385  1.0000
  C   C40       1.0  0.9813662938593294  0.8997846860450356  0.16568008554321567  1.0000
  H   H17       1.0  0.7648844353542793  0.19831894491683832  0.41264670184865837  1.0000
  H   H18       1.0  0.8897627223960224  0.5806537337331057  0.2639117785699161  1.0000
  H   H19       1.0  0.888548969546586  0.5823807694346861  0.8467160969097804  1.0000
  H   H20       1.0  0.787640355751713  0.2724378687758824  0.07912357402096526  1.0000
  H   H21       1.0  0.7643945955931617  0.19884271584565671  0.7570324647265911  1.0000
  H   H22       1.0  0.8144689609649096  0.787114848671614  0.16901598039286836  1.0000
  H   H23       1.0  0.7421702080386963  0.907324051945136  0.3162577449539077  1.0000
  H   H24       1.0  0.778968786790008  0.036053727145849646  0.4020118544302982  1.0000
  H   H25       1.0  0.9037161789743395  0.09334218989428678  0.37598100091132225  1.0000
  H   H26       1.0  0.017805105949147748  0.05638200278406913  0.27468804433432936  1.0000
  H   H27       1.0  0.03193457238571762  0.8850559900709385  0.12266572970806489  1.0000
  Zn  Zn1       1.0  0.7595853555208244  0.42013239760680166  0.567755010824651  1.0000
  Zn  Zn2       1.0  0.9121271386335853  0.4198754533137268  0.5677240973820634  1.0000
  C   C41       1.0  0.8358774975465129  0.41481308584823995  0.8049531672382297  1.0000
  C   C42       1.0  0.8358366625266419  0.42519640088287525  0.3305260686778906  1.0000
  C   C43       1.0  0.8358782127326441  0.6571976416740568  0.5626467231211627  1.0000
  C   C44       1.0  0.8358358951454822  0.18281028483115347  0.5728325815074105  1.0000
  O   O3        1.0  0.8937285561625683  0.4268263489144106  0.3789048960665373  1.0000
  O   O4        1.0  0.8937612875915409  0.4129871433448389  0.7565505030437447  1.0000
  O   O5        1.0  0.8937610848581841  0.6087157387603899  0.5608863356886225  1.0000
  O   O6        1.0  0.8937287068364385  0.23109776288395878  0.5745689660525675  1.0000
  O   O7        1.0  0.7779837352629466  0.6089100881256664  0.560910142157865  1.0000
  O   O8        1.0  0.7779839381363074  0.4131830530251168  0.756574240804252  1.0000
  O   O9        1.0  0.7779512066178785  0.4270222134533479  0.3789270722790805  1.0000
  O   O10       1.0  0.7779513572962109  0.23129361812689386  0.5745912396379205  1.0000
