data_image0
_chemical_formula_structural       NC10NC3NCH9C7OC3FC3H9C7OC4NC3H9Zn2C4O8
_chemical_formula_sum              "N4 C45 H27 O10 F1 Zn2"
_cell_length_a       19.437513618241372
_cell_length_b       10.29937835083307
_cell_length_c       10.299375074045738
_cell_angle_alpha    85.53063417163439
_cell_angle_beta     90.34040482055526
_cell_angle_gamma    89.54280298698887

_space_group_name_H-M_alt    "P 1"
_space_group_IT_number       1

loop_
  _space_group_symop_operation_xyz
  'x, y, z'

loop_
  _atom_site_type_symbol
  _atom_site_label
  _atom_site_symmetry_multiplicity
  _atom_site_fract_x
  _atom_site_fract_y
  _atom_site_fract_z
  _atom_site_occupancy
  N   N1        1.0  0.6482003754798703  0.4110732912734749  0.5754757934097339  1.0000
  C   C1        1.0  0.5892703541585432  0.4280851589043928  0.5724986026546977  1.0000
  C   C2        1.0  0.5158340226611741  0.4493399192648597  0.5688031199135339  1.0000
  C   C3        1.0  0.4740525060682102  0.34815198072797093  0.5571494742187351  1.0000
  C   C4        1.0  0.3981646179681181  0.35822023586252527  0.5499271743915195  1.0000
  C   C5        1.0  0.3586044876614843  0.4390422264966689  0.6156678104324445  1.0000
  C   C6        1.0  0.282420780446932  0.43043743494313835  0.607223840150223  1.0000
  C   C7        1.0  0.2492616510226511  0.3090870070948921  0.6118748512960706  1.0000
  C   C8        1.0  0.177525882232912  0.3027182292605004  0.6047068481179578  1.0000
  C   C9        1.0  0.1379785197699986  0.4172270189259557  0.5932501113077264  1.0000
  C   C10       1.0  0.0641282159221983  0.41052012548886063  0.5859140295774963  1.0000
  N   N2        1.0  0.0047576697628316  0.405128373045033  0.5800162782573235  1.0000
  C   C11       1.0  0.1704209811743803  0.5382665335000139  0.5893444300115664  1.0000
  C   C12       1.0  0.24214120248554533  0.5448892825550475  0.5965744419884349  1.0000
  C   C13       1.0  0.387304709022287  0.531289558806493  0.7055863065705033  1.0000
  N   N3        1.0  0.4443024016823254  0.5945131798328478  0.6851772981157496  1.0000
  C   C14       1.0  0.4881427190429962  0.5853028882701441  0.5720650423211613  1.0000
  H   H1        1.0  0.4964180851293253  0.2530984079780254  0.545033512292084  1.0000
  H   H2        1.0  0.3734375639629018  0.288732350790037  0.49161057387725604  1.0000
  H   H3        1.0  0.2786942784181058  0.21916752065546685  0.6229017024290222  1.0000
  H   H4        1.0  0.15291385414107492  0.20848743358648836  0.6085999553737607  1.0000
  H   H5        1.0  0.1403029153088146  0.6275300446492498  0.5806298741746152  1.0000
  H   H6        1.0  0.26627178969178145  0.6395328970006531  0.5926658490116348  1.0000
  H   H7        1.0  0.3573044614168547  0.5516374891409823  0.7899556359974524  1.0000
  H   H8        1.0  0.5309089993765163  0.6556147846318074  0.5778244160996624  1.0000
  H   H9        1.0  0.458482210456694  0.6134535799897156  0.48141353808066145  1.0000
  C   C15       1.0  0.8264098001163324  0.026716965622668676  0.5778091912961738  1.0000
  C   C16       1.0  0.7546279176692086  0.027927657957113494  0.5608695624113835  1.0000
  C   C17       1.0  0.7183356754988919  0.9112513720958789  0.5538019882388892  1.0000
  C   C18       1.0  0.7547961460059947  0.79268084746639  0.5608785802578635  1.0000
  C   C19       1.0  0.8265548231029551  0.7894745659384586  0.5776942389243309  1.0000
  C   C20       1.0  0.8619252000377877  0.9070198415652418  0.5864039234584733  1.0000
  C   C21       1.0  0.6426240609891233  0.9124912678022223  0.5345427298631438  1.0000
  O   O1        1.0  0.6160538553413379  0.8282696752486419  0.467540259273576  1.0000
  C   C22       1.0  0.5970547599409295  0.009176414694561208  0.5913040312305406  1.0000
  C   C23       1.0  0.5357724829404146  0.05022102601741407  0.5267398129335479  1.0000
  C   C24       1.0  0.4920651181681127  0.14018571058633778  0.580246652638662  1.0000
  F   F1        1.0  0.4333659423696137  0.1798789163243295  0.5167767382334483  1.0000
  C   C25       1.0  0.508803242534033  0.1891574641122531  0.6990704197290962  1.0000
  C   C26       1.0  0.5690977346888204  0.1478765039856389  0.764836678951863  1.0000
  C   C27       1.0  0.6129473344761445  0.05798089909242865  0.7117363815877475  1.0000
  H   H10       1.0  0.9619908978031403  0.23190571757632172  0.6077816206072546  1.0000
  H   H11       1.0  0.7269460367622282  0.11990405274597182  0.5517035054039525  1.0000
  H   H12       1.0  0.7269441380017092  0.7026789876045162  0.5544713110230464  1.0000
  H   H13       1.0  0.917263697047059  0.9052824847031098  0.5994623763483655  1.0000
  H   H14       1.0  0.8541860486351116  0.46087037384827917  0.5830587558235516  1.0000
  H   H15       1.0  0.5220704580200258  0.013483323490528942  0.4344026473268563  1.0000
  H   H16       1.0  0.4749500748090972  0.2586937033042105  0.7405202576630368  1.0000
  H   H17       1.0  0.581736109574561  0.1851190214658398  0.8573738799394348  1.0000
  H   H18       1.0  0.6587951435067996  0.025633974137504234  0.7654748716765134  1.0000
  C   C28       1.0  0.826505732256771  0.4082377230987475  0.19636522771866805  1.0000
  C   C29       1.0  0.8794814910327701  0.5004690927312943  0.1885820759020589  1.0000
  C   C30       1.0  0.9056667071498425  0.5480772208217954  0.06739206905040196  1.0000
  C   C31       1.0  0.8793700531198749  0.500233205617828  0.9533553770124361  1.0000
  C   C32       1.0  0.8264588817086806  0.40795380854170027  0.9591382307726843  1.0000
  C   C33       1.0  0.8002095748693169  0.3627434027644838  0.08112332851101778  1.0000
  C   C34       1.0  0.9620992769964745  0.644459050123062  0.05911824825963308  1.0000
  O   O2        1.0  0.006064641874318877  0.6390407985745787  0.9700438994951819  1.0000
  C   C35       1.0  0.9686456690712278  0.7469994948950971  0.15181239227308052  1.0000
  C   C36       1.0  0.03407956204556206  0.7924713763633402  0.18439507649437026  1.0000
  C   C37       1.0  0.040765097192008604  0.8903756320840177  0.27068193603028967  1.0000
  C   C38       1.0  0.10796059692691973  0.935608805225574  0.30431819418161243  1.0000
  N   N4        1.0  0.1619782074722682  0.971965563199479  0.3313541957816093  1.0000
  C   C39       1.0  0.9820233534578913  0.9442082319131879  0.3241192356646436  1.0000
  C   C40       1.0  0.916819038485302  0.9007442531735581  0.29103821364027715  1.0000
  C   C41       1.0  0.9099967241948204  0.8031122733231719  0.20502512974730647  1.0000
  H   H19       1.0  0.7272575151012706  0.2327105697607439  0.4184972687297346  1.0000
  H   H20       1.0  0.900967282195802  0.534313530886612  0.2770336956192716  1.0000
  H   H21       1.0  0.8998556891794482  0.5361289483153671  0.8598655381712135  1.0000
  H   H22       1.0  0.7593693641953797  0.2916390828152773  0.08631975406593306  1.0000
  H   H23       1.0  0.8065293861263264  0.3716978897272363  0.6339699312282101  1.0000
  H   H24       1.0  0.07981017631812581  0.750987152058638  0.14360299846102476  1.0000
  H   H25       1.0  0.9866273381215028  0.02001249211121925  0.3908454372047403  1.0000
  H   H26       1.0  0.8714313781790267  0.9432014963143764  0.3316856904107295  1.0000
  H   H27       1.0  0.8588884602270177  0.7725696198163112  0.179075792343653  1.0000
  Zn  Zn1       1.0  0.7510951129325998  0.4093542241428283  0.576793589083052  1.0000
  Zn  Zn2       1.0  0.9018629358359317  0.406836766238899  0.5787091545561704  1.0000
  C   C42       1.0  0.8264652359438944  0.4028335981412048  0.8149585326611817  1.0000
  C   C43       1.0  0.82649445950834  0.41335900338595644  0.34054435912130754  1.0000
  C   C44       1.0  0.8265241977314166  0.6452991070771246  0.57254050754153  1.0000
  C   C45       1.0  0.8264354459733485  0.1708919349199025  0.5829624530642985  1.0000
  O   O3        1.0  0.8837062782523244  0.4141167237168817  0.38965914068059715  1.0000
  O   O4        1.0  0.8836827060902385  0.40016420588969215  0.7672972472572259  1.0000
  O   O5        1.0  0.8837295471027332  0.5959581831263621  0.5715429668220988  1.0000
  O   O6        1.0  0.8836593858007294  0.21832275666608325  0.585413323081518  1.0000
  O   O7        1.0  0.7692986115181442  0.5978682345761455  0.5700894198971846  1.0000
  O   O8        1.0  0.7692517708034611  0.40207581773011114  0.7658436308484524  1.0000
  O   O9        1.0  0.7692753430985616  0.4160282908800632  0.38820396280660563  1.0000
  O   O10       1.0  0.769228450636409  0.2202343145038952  0.5839582425812133  1.0000
