data_image0
_chemical_formula_structural       NC8NC6H8C7OC3FC3H9C6SCOC6H10Zn2C4O8
_chemical_formula_sum              "N2 C44 H27 O10 F1 S1 Zn2"
_cell_length_a       17.457602349358154
_cell_length_b       10.29937835083307
_cell_length_c       10.302041481415108
_cell_angle_alpha    85.53259314287666
_cell_angle_beta     92.8727530123399
_cell_angle_gamma    91.70902404556999

_space_group_name_H-M_alt    "P 1"
_space_group_IT_number       1

loop_
  _space_group_symop_operation_xyz
  'x, y, z'

loop_
  _atom_site_type_symbol
  _atom_site_label
  _atom_site_symmetry_multiplicity
  _atom_site_fract_x
  _atom_site_fract_y
  _atom_site_fract_z
  _atom_site_occupancy
  N   N1        1.0  0.7227848983700448  0.45336916513387826  0.6266062285510912  1.0000
  C   C1        1.0  0.661697628854085  0.4074455027104451  0.615999041358573  1.0000
  C   C2        1.0  0.5857024833943555  0.35032217802456267  0.6028132396071328  1.0000
  C   C3        1.0  0.5271795414797583  0.3904601831639145  0.6776892329674014  1.0000
  C   C4        1.0  0.4526229046961945  0.3354550067428912  0.6651174484632418  1.0000
  C   C5        1.0  0.3905093750664209  0.37783474686160035  0.7444139825909566  1.0000
  C   C6        1.0  0.3159687331909574  0.3963231015159214  0.6886600497156661  1.0000
  C   C7        1.0  0.2574457453589948  0.4362771358303299  0.7636439983390395  1.0000
  C   C8        1.0  0.181467160291871  0.4553721304535867  0.7056750023499221  1.0000
  N   N2        1.0  0.12039329304682202  0.47071812609223573  0.6590680814560665  1.0000
  C   C9        1.0  0.27297126904711067  0.4579857936967582  0.8948902542157056  1.0000
  C   C10       1.0  0.3467272747500563  0.439886310522946  0.9510316483857497  1.0000
  C   C11       1.0  0.4052386785524222  0.4001121818013167  0.87650529742733  1.0000
  C   C12       1.0  0.4378777661463779  0.23963486617535779  0.5762371534318818  1.0000
  C   C13       1.0  0.49638903389562694  0.1997754165650003  0.501761038858787  1.0000
  C   C14       1.0  0.5701609080774197  0.2548927851770644  0.5148826387188155  1.0000
  H   H1        1.0  0.5395370084851724  0.4656350918375578  0.7442952933754172  1.0000
  H   H2        1.0  0.3036244111523053  0.3813871194925278  0.5866597128224358  1.0000
  H   H3        1.0  0.2281146231610034  0.48884979749731494  0.9537091458843929  1.0000
  H   H4        1.0  0.3585582301296922  0.4563801516817301  0.052658594119575186  1.0000
  H   H5        1.0  0.4617193728824223  0.38510388525488026  0.9226037937290308  1.0000
  H   H6        1.0  0.3813839010457931  0.1943009110618641  0.5655937771033359  1.0000
  H   H7        1.0  0.4845456586647101  0.12571743095924526  0.43395676531080585  1.0000
  H   H8        1.0  0.6150173941680297  0.22315886870442814  0.4565748793373805  1.0000
  C   C15       1.0  0.9215118948723932  0.08065526971933168  0.6428948542838053  1.0000
  C   C16       1.0  0.8414651443364954  0.07717587783963653  0.6203382719245363  1.0000
  C   C17       1.0  0.8009943087919447  0.9581283830392747  0.610430431394716  1.0000
  C   C18       1.0  0.8416527413135688  0.8419400579571661  0.6203604616345031  1.0000
  C   C19       1.0  0.9216736110324802  0.8434223402279611  0.6427912886394831  1.0000
  C   C20       1.0  0.9611164960743707  0.9632786582664319  0.654268621659394  1.0000
  C   C21       1.0  0.7165653194975526  0.9544213840861018  0.5852470774422156  1.0000
  O   O1        1.0  0.6869339938190409  0.8684615824530173  0.5161812098521195  1.0000
  C   C22       1.0  0.6657513020659869  0.048131531205367395  0.6384250813979349  1.0000
  C   C23       1.0  0.5974115304986464  0.08517029529521691  0.5690784831809159  1.0000
  C   C24       1.0  0.5486737168498752  0.1722815035844829  0.6191486792323198  1.0000
  F   F1        1.0  0.4832144761029767  0.20813765402134776  0.5510983877962354  1.0000
  C   C25       1.0  0.5673425694362941  0.22235098789778696  0.7392524575986914  1.0000
  C   C26       1.0  0.634580867976037  0.1850113862874898  0.8097234305883718  1.0000
  C   C27       1.0  0.6834773048254685  0.09797856432134466  0.7600708102102438  1.0000
  H   H9        1.0  0.07270355326694378  0.2947025465163371  0.683477068434758  1.0000
  H   H10       1.0  0.8105959286251965  0.16734350017121358  0.6090067816323803  1.0000
  H   H11       1.0  0.810593896151631  0.750118409658379  0.6117737217052148  1.0000
  H   H12       1.0  0.022826592166677706  0.9651570077707277  0.6716573284552763  1.0000
  H   H13       1.0  0.9524862227442799  0.5166234757735733  0.650318256514482  1.0000
  H   H14       1.0  0.5821291401279857  0.04753415334818589  0.4756922076076673  1.0000
  H   H15       1.0  0.5295931105113277  0.2896770915357034  0.778040470712003  1.0000
  H   H16       1.0  0.6486771549314444  0.22308286250807297  0.9032263937949119  1.0000
  H   H17       1.0  0.7346052844936012  0.06862877332995065  0.8173857890188454  1.0000
  C   C28       1.0  0.9216071721962513  0.4621686957069  0.26155719589377746  1.0000
  C   C29       1.0  0.9568056808179123  0.5868079331465899  0.25349908031368384  1.0000
  C   C30       1.0  0.9746605210722654  0.6483155688924025  0.13256219064196983  1.0000
  C   C31       1.0  0.9568784094256827  0.5864072275877361  0.018399667979434486  1.0000
  C   C32       1.0  0.9215783716318495  0.4619088697083302  0.02412897502989142  1.0000
  C   C33       1.0  0.9041820803999397  0.400382684913968  0.14629673435291513  1.0000
  S   S1        1.0  0.020310546804869656  0.8068466827385032  0.1237426870017404  1.0000
  C   C34       1.0  0.11480489209703526  0.7411662349936188  0.13403656628445715  1.0000
  O   O2        1.0  0.1448250511739837  0.7193024138223503  0.029430777664035235  1.0000
  C   C35       1.0  0.15708613868316545  0.7116671438409272  0.2610178318788008  1.0000
  C   C36       1.0  0.22513046726212216  0.6409097718133194  0.2667767194803632  1.0000
  C   C37       1.0  0.2651112742259196  0.6117562593593295  0.3859976680917354  1.0000
  C   C38       1.0  0.23786203922290095  0.6529165320631476  0.5007040532226026  1.0000
  C   C39       1.0  0.17064226217261558  0.7235510646498318  0.49639277540662663  1.0000
  C   C40       1.0  0.13043253586823766  0.7530687384879227  0.3774524858891599  1.0000
  H   H18       1.0  0.8551491885465625  0.22735363116341567  0.48404429545866257  1.0000
  H   H19       1.0  0.9705983530999878  0.6363395166928374  0.3409319955802155  1.0000
  H   H20       1.0  0.9709961996333928  0.6356214533183397  0.9255734773868869  1.0000
  H   H21       1.0  0.8770483201066492  0.30429457498811874  0.15158855781729952  1.0000
  H   H22       1.0  0.9083667543432258  0.41441386216331555  0.6989982597840014  1.0000
  H   H23       1.0  0.24728472591387818  0.6074171317938355  0.17927207795628997  1.0000
  H   H24       1.0  0.3172508511469616  0.5570444826348047  0.38941619567949104  1.0000
  H   H25       1.0  0.26888104979885785  0.6302178376526881  0.5929022825693604  1.0000
  H   H26       1.0  0.14967903016404094  0.7557085787468827  0.5853489060648329  1.0000
  H   H27       1.0  0.07887538054802579  0.8087480233197171  0.3773086231032774  1.0000
  Zn  Zn1       1.0  0.8375260912701437  0.4583722150726459  0.6359815153935264  1.0000
  Zn  Zn2       1.0  0.005652083237204897  0.46570442416465685  0.6497034262717614  1.0000
  C   C41       1.0  0.9215809869295303  0.45678397834665696  0.879987116085917  1.0000
  C   C42       1.0  0.921599023851063  0.4672943796185176  0.4056981026383999  1.0000
  C   C43       1.0  0.9216393016442573  0.69924469689047  0.637636493738279  1.0000
  C   C44       1.0  0.9215406514332191  0.22483209816638383  0.6480487897391349  1.0000
  O   O3        1.0  0.9853992257461316  0.47179147506865693  0.4592805021206363  1.0000
  O   O4        1.0  0.9853845225731994  0.45785088029607346  0.8368189558252599  1.0000
  O   O5        1.0  0.9854307522976816  0.6536409388846185  0.6411190432261429  1.0000
  O   O6        1.0  0.9853529386572867  0.2760014233019934  0.6549803126826683  1.0000
  O   O7        1.0  0.8578251784769126  0.6480752134346026  0.6307046242931746  1.0000
  O   O8        1.0  0.8577789490823984  0.4522867152536716  0.8264044674497504  1.0000
  O   O9        1.0  0.8577936523557663  0.4662272653020405  0.44886445269474007  1.0000
  O   O10       1.0  0.8577473652581348  0.2704372042127887  0.6445643606044127  1.0000
