data_image0
_chemical_formula_structural       NC10NC3NCH9C7OC6OCH12C7OC4NC3H9Zn2C4O8
_chemical_formula_sum              "N4 C46 H30 O11 Zn2"
_cell_length_a       19.437513618241372
_cell_length_b       10.299359160628079
_cell_length_c       10.299375074045738
_cell_angle_alpha    85.54493941547133
_cell_angle_beta     90.34040482055526
_cell_angle_gamma    89.54510135387923

_space_group_name_H-M_alt    "P 1"
_space_group_IT_number       1

loop_
  _space_group_symop_operation_xyz
  'x, y, z'

loop_
  _atom_site_type_symbol
  _atom_site_label
  _atom_site_symmetry_multiplicity
  _atom_site_fract_x
  _atom_site_fract_y
  _atom_site_fract_z
  _atom_site_occupancy
  N   N1        1.0  0.6482315987271682  0.4110479279402568  0.5758295578462953  1.0000
  C   C1        1.0  0.5893019538326033  0.42805948979140385  0.5728566320672912  1.0000
  C   C2        1.0  0.5158660926457721  0.44931386810823604  0.5691664780205119  1.0000
  C   C3        1.0  0.47408233703655883  0.3481277483736862  0.5574874639098522  1.0000
  C   C4        1.0  0.3981946717198061  0.35819582253641435  0.5502676882538666  1.0000
  C   C5        1.0  0.3586363297859069  0.439016360435897  0.6160285868468187  1.0000
  C   C6        1.0  0.2824524321705185  0.43041172354917  0.6075824592923602  1.0000
  C   C7        1.0  0.249290617588463  0.3090634769138747  0.6122030471667872  1.0000
  C   C8        1.0  0.1775547078748424  0.30269481355506356  0.6050334472983281  1.0000
  C   C9        1.0  0.1380098791826974  0.4172015449825761  0.593605418520279  1.0000
  C   C10       1.0  0.0641594269294289  0.41049477209851926  0.5862676553321173  1.0000
  N   N2        1.0  0.0047887614651183  0.405103116568732  0.580368552267654  1.0000
  C   C11       1.0  0.1704550188651811  0.538238883932193  0.589730082547739  1.0000
  C   C12       1.0  0.24217538671992592  0.5448615139466408  0.5969617548870441  1.0000
  C   C13       1.0  0.3873385923314496  0.531262034646286  0.7059702099377727  1.0000
  N   N3        1.0  0.4443376839597533  0.5944845192598276  0.6855770520194919  1.0000
  C   C14       1.0  0.48817779752150536  0.5852743932474862  0.5724624871502264  1.0000
  H   H1        1.0  0.4964458128183993  0.2530758841639378  0.5453476714891972  1.0000
  H   H2        1.0  0.37346608013505134  0.288709186473737  0.4919336667150096  1.0000
  H   H3        1.0  0.27872125530813036  0.21914560673202566  0.6232073549515991  1.0000
  H   H4        1.0  0.15294059470956892  0.20846571163224437  0.6089029303352158  1.0000
  H   H5        1.0  0.1403389281604384  0.6275007906146792  0.5810379056020347  1.0000
  H   H6        1.0  0.2663080681341648  0.6395034272208437  0.5930768896252716  1.0000
  H   H7        1.0  0.35733879497085214  0.5516095992369539  0.7903446407114445  1.0000
  H   H8        1.0  0.5309456336677116  0.6555850257881504  0.5782394885378337  1.0000
  H   H9        1.0  0.4585179118341088  0.6134245789725223  0.4818180404549699  1.0000
  C   C15       1.0  0.826432518594473  0.026698510901230543  0.5780665953240849  1.0000
  C   C16       1.0  0.7695318968463566  0.03295976697047065  0.49294181356169253  1.0000
  C   C17       1.0  0.741326048946053  0.9191253575211332  0.4489202996492474  1.0000
  C   C18       1.0  0.7696957620984608  0.7976954261784723  0.49319901635291874  1.0000
  C   C19       1.0  0.8265944404731342  0.7894423306544477  0.578142906087985  1.0000
  C   C20       1.0  0.8547301689505624  0.9045343254707391  0.6198779094429012  1.0000
  C   C21       1.0  0.6807666943900968  0.9278806455170377  0.3602122606312692  1.0000
  O   O1        1.0  0.6370447190094366  0.01747796828648962  0.371222679777232  1.0000
  C   C22       1.0  0.6698056605236035  0.8350633445935762  0.25902107292236787  1.0000
  C   C23       1.0  0.7257698582308437  0.7808054254181067  0.19567570379856125  1.0000
  C   C24       1.0  0.7147175151802496  0.6946390759424781  0.09944924954996504  1.0000
  C   C25       1.0  0.6478823477015194  0.6618521212900387  0.06383429562425902  1.0000
  C   C26       1.0  0.5916866530250716  0.717149167675661  0.12586490488029134  1.0000
  C   C27       1.0  0.6026760812662614  0.8033754380797454  0.22213698161062556  1.0000
  O   O2        1.0  0.6395554476871234  0.5748002466129323  0.9668260096801826  1.0000
  C   C28       1.0  0.5747228815622712  0.5330535725419152  0.9211307562319542  1.0000
  H   H10       1.0  0.9336240908414561  0.22212425938354508  0.7391130056783968  1.0000
  H   H11       1.0  0.7474074801499077  0.12666906309481774  0.4596740256004319  1.0000
  H   H12       1.0  0.7468580183116176  0.709450447213448  0.4624555765631093  1.0000
  H   H13       1.0  0.8986214329870649  0.8989000570423178  0.6854080519875432  1.0000
  H   H14       1.0  0.8482452094273465  0.45877368131691143  0.6111379879371222  1.0000
  H   H15       1.0  0.7780748600368207  0.8060126750139924  0.21947362614315868  1.0000
  H   H16       1.0  0.7583838826973499  0.653481406830348  0.0518218871391245  1.0000
  H   H17       1.0  0.5393530012395749  0.6942200029835516  0.1004219345846813  1.0000
  H   H18       1.0  0.5586252647831681  0.8444941174274937  0.268708645511456  1.0000
  H   H19       1.0  0.5833158912648772  0.4645435572517668  0.8447621876169964  1.0000
  H   H20       1.0  0.544494133105421  0.6179217667406093  0.8782341649177989  1.0000
  H   H21       1.0  0.5458370952592103  0.4819352275441627  0.0023021096156696785  1.0000
  C   C29       1.0  0.8265368927605908  0.4082124107334424  0.1967182812614836  1.0000
  C   C30       1.0  0.879514692368119  0.5004421225534743  0.18895825239583197  1.0000
  C   C31       1.0  0.9057009619247016  0.548049394911801  0.06778018118402662  1.0000
  C   C32       1.0  0.8794032492356778  0.5002062396799605  0.9537314943679114  1.0000
  C   C33       1.0  0.8264900359302367  0.4079285012796168  0.9594912131364377  1.0000
  C   C34       1.0  0.8002397287064926  0.3627189081367217  0.08146497635811323  1.0000
  C   C35       1.0  0.962135664441344  0.6444294917981259  0.059530523889051334  1.0000
  O   O3        1.0  0.006100909427890988  0.6390113376399917  0.9704548167368277  1.0000
  C   C36       1.0  0.9686843254596637  0.7469680934572018  0.15225037539968844  1.0000
  C   C37       1.0  0.03411922460412975  0.7924391575912297  0.18484445969114183  1.0000
  C   C38       1.0  0.04080692610777925  0.8903416535321169  0.27115586440418027  1.0000
  C   C39       1.0  0.10800342673085073  0.9355740136301194  0.30480346278007464  1.0000
  N   N4        1.0  0.16202184175322576  0.9719301181095723  0.33184857923475675  1.0000
  C   C40       1.0  0.9820663735439487  0.9441732857473608  0.32460666019033946  1.0000
  C   C41       1.0  0.9168610968307004  0.9007100882509043  0.29151474148892276  1.0000
  C   C42       1.0  0.9100366222077472  0.8030798632862872  0.2054771806800073  1.0000
  H   H22       1.0  0.727284791662456  0.2326884124078017  0.41880631657498246  1.0000
  H   H23       1.0  0.9010012324173134  0.5342859523720263  0.2774183571142623  1.0000
  H   H24       1.0  0.8998896795712523  0.5361013371695658  0.8602506548021123  1.0000
  H   H25       1.0  0.7593979446856717  0.2916158662519297  0.08664357563863145  1.0000
  H   H26       1.0  0.8065597381021551  0.37167323414707143  0.6343138240182538  1.0000
  H   H27       1.0  0.07984892094266294  0.7509556789446101  0.14404198131691492  1.0000
  H   H28       1.0  0.9866720355514496  0.019976183401912984  0.39135186630770646  1.0000
  H   H29       1.0  0.8714743759887397  0.9431665682441157  0.3321728625418443  1.0000
  H   H30       1.0  0.8589276824133738  0.7725377587682725  0.17952018605211495  1.0000
  Zn  Zn1       1.0  0.7511262981415773  0.4093288917089781  0.5771469225392962  1.0000
  Zn  Zn2       1.0  0.9018940653403534  0.40681147905508896  0.5790618568707986  1.0000
  C   C43       1.0  0.8264962768690001  0.4028083829123297  0.8153102313578442  1.0000
  C   C44       1.0  0.8265257333322843  0.41333359896821165  0.3408986965994416  1.0000
  C   C45       1.0  0.8265606037644818  0.6452695336525871  0.5729529937782052  1.0000
  C   C46       1.0  0.8264613546548248  0.17087088872585232  0.5832560026114364  1.0000
  O   O4        1.0  0.8837375688425766  0.41409130567949504  0.39001366812370875  1.0000
  O   O5        1.0  0.8837136879488908  0.4001390386418009  0.7676482767214312  1.0000
  O   O6        1.0  0.883764861354188  0.5959294965801343  0.5719430829967305  1.0000
  O   O7        1.0  0.8836863439984047  0.2183008579268504  0.5857187638167562  1.0000
  O   O8        1.0  0.7693339680338874  0.5978395136977033  0.5704900149330343  1.0000
  O   O9        1.0  0.769282794960929  0.4020506161219577  0.7661951395650748  1.0000
  O   O10       1.0  0.7693066759866408  0.41600283848321795  0.3885589694909335  1.0000
  O   O11       1.0  0.7692554511317049  0.2202123814053707  0.5842641625553302  1.0000
