data_image0
_chemical_formula_structural       NC10NC5H10C6NCOC6H11C7OC3NC3H11Zn2C4O8
_chemical_formula_sum              "N4 C45 H32 O10 Zn2"
_cell_length_a       19.4436361288709
_cell_length_b       10.29965916528486
_cell_length_c       10.298749378158432
_cell_angle_alpha    85.57464278776027
_cell_angle_beta     89.71352480550038
_cell_angle_gamma    89.4352492152202

_space_group_name_H-M_alt    "P 1"
_space_group_IT_number       1

loop_
  _space_group_symop_operation_xyz
  'x, y, z'

loop_
  _atom_site_type_symbol
  _atom_site_label
  _atom_site_symmetry_multiplicity
  _atom_site_fract_x
  _atom_site_fract_y
  _atom_site_fract_z
  _atom_site_occupancy
  N   N1        1.0  0.6477472098069745  0.40939290360849667  0.5624565336103999  1.0000
  C   C1        1.0  0.5889148671157369  0.4192907440886584  0.5768451520206848  1.0000
  C   C2        1.0  0.5155900713889522  0.4316346639514199  0.5948432649544857  1.0000
  C   C3        1.0  0.4733878369716388  0.3996635053896236  0.5001503985360951  1.0000
  C   C4        1.0  0.39748553450785507  0.4101000917279676  0.5054825314659805  1.0000
  C   C5        1.0  0.3577574969652646  0.38532484608493367  0.6125555905576008  1.0000
  C   C6        1.0  0.281635732713  0.3892447480473993  0.5995964532682028  1.0000
  C   C7        1.0  0.2410948843246196  0.4468797916867997  0.693395040886593  1.0000
  C   C8        1.0  0.169430566589741  0.4505202029958941  0.6828514924630502  1.0000
  C   C9        1.0  0.1373123206836838  0.3961294957283297  0.5787957709899203  1.0000
  C   C10       1.0  0.0635187459233539  0.3998311892205846  0.5680969484011886  1.0000
  N   N2        1.0  0.0041937169541237  0.40280715650828114  0.5594958043768468  1.0000
  C   C11       1.0  0.177128222766984  0.33778728182998896  0.48538020720138597  1.0000
  C   C12       1.0  0.2488089258936278  0.3340927141756842  0.4956719379455492  1.0000
  C   C13       1.0  0.38590241700247957  0.3448308760857921  0.7436474823828823  1.0000
  C   C14       1.0  0.4445792638495566  0.3879390802804221  0.7909088995613476  1.0000
  C   C15       1.0  0.4887913613704639  0.48581389356789595  0.7165688676928028  1.0000
  H   H1        1.0  0.49546974055837123  0.37057097154068575  0.40982580683596104  1.0000
  H   H2        1.0  0.3727775531480894  0.43261853771222447  0.4123239698132988  1.0000
  H   H3        1.0  0.26498330820993427  0.49014817587322534  0.774265222124745  1.0000
  H   H4        1.0  0.1391029280237236  0.49581433433368716  0.755794228092322  1.0000
  H   H5        1.0  0.1527679932575798  0.2947144615320687  0.40484460506106057  1.0000
  H   H6        1.0  0.2784706995918529  0.2865550773981982  0.42342482083672084  1.0000
  H   H7        1.0  0.35493602513468603  0.28059885106448723  0.8078777313830794  1.0000
  H   H8        1.0  0.4597376295326129  0.35384715737497974  0.8888399626600836  1.0000
  H   H9        1.0  0.4586928183622475  0.5765320873759405  0.6913460988898958  1.0000
  H   H10       1.0  0.5320892143157384  0.5113825644933863  0.779668074440218  1.0000
  C   C16       1.0  0.8259132446133335  0.024740413169978215  0.5608611819092917  1.0000
  C   C17       1.0  0.826369434856007  0.03402388427140424  0.42403187442637913  1.0000
  C   C18       1.0  0.8276134628511088  0.9218458499627323  0.3551811536543057  1.0000
  C   C19       1.0  0.8264990474577594  0.7988311730019594  0.42432720278723624  1.0000
  C   C20       1.0  0.8260342475118355  0.7874495069192132  0.5611023544047591  1.0000
  C   C21       1.0  0.8259859916788216  0.9010075291547776  0.6285953199475609  1.0000
  N   N3        1.0  0.8270232372288705  0.9349407663394529  0.21511017331451554  1.0000
  C   C22       1.0  0.8592566223836255  0.8432227415096927  0.13511077866419496  1.0000
  O   O1        1.0  0.9067074425823064  0.769523616609077  0.18169795815999534  1.0000
  C   C23       1.0  0.8392536623064248  0.837406818957207  0.9969010706745176  1.0000
  C   C24       1.0  0.7756514513627843  0.8884429622503714  0.9510803672659787  1.0000
  C   C25       1.0  0.7572105196537373  0.8817808086663959  0.8207018387308094  1.0000
  C   C26       1.0  0.8017310384254457  0.8238781402111234  0.7348694934357596  1.0000
  C   C27       1.0  0.8647276784680669  0.7720657750894795  0.77931891202241  1.0000
  C   C28       1.0  0.8834311695096662  0.778366753488568  0.9095907778832615  1.0000
  H   H11       1.0  0.8243962531783232  0.21450478998186862  0.8189705699690328  1.0000
  H   H12       1.0  0.8262858688780371  0.12863906330681174  0.37020585190560173  1.0000
  H   H13       1.0  0.8247866392761953  0.7120764624609772  0.3715324406522058  1.0000
  H   H14       1.0  0.8256435172047549  0.892985462633241  0.7340751989240788  1.0000
  H   H15       1.0  0.8249409170538798  0.45565132446658535  0.6135765482790843  1.0000
  H   H16       1.0  0.8073950137234966  0.021440060671004346  0.16932961008579261  1.0000
  H   H17       1.0  0.7396152526130995  0.9318003867827893  0.01586648836413751  1.0000
  H   H18       1.0  0.7081910723930125  0.9211226213072773  0.786320858676123  1.0000
  H   H19       1.0  0.787319267239859  0.8187952610944735  0.6340247454805774  1.0000
  H   H20       1.0  0.8991363989174784  0.7269427882767753  0.7127824681397499  1.0000
  H   H21       1.0  0.9326226670231272  0.7378358214103882  0.9417514678329635  1.0000
  C   C29       1.0  0.8259420347303095  0.40612356707779096  0.17958099546333406  1.0000
  C   C30       1.0  0.8635295282088277  0.5222911815042142  0.16928621730093663  1.0000
  C   C31       1.0  0.8818460649724491  0.581847191068728  0.04684777129380957  1.0000
  C   C32       1.0  0.8635322694253298  0.5223399911659441  0.934042180627348  1.0000
  C   C33       1.0  0.826005448797257  0.40606636437561683  0.9423825606960103  1.0000
  C   C34       1.0  0.8072905026759895  0.3488794910681381  0.06557378178587325  1.0000
  C   C35       1.0  0.9220958237366231  0.7038686815746473  0.03587230337624536  1.0000
  O   O2        1.0  0.9650746501435098  0.7214169808836057  0.9441742280937842  1.0000
  C   C36       1.0  0.9135898986293511  0.8059743198755436  0.1288650155716089  1.0000
  C   C37       1.0  0.8492487778152643  0.8297365851837548  0.18611087560092376  1.0000
  C   C38       1.0  0.841570783997703  0.927378243453274  0.2729058861266602  1.0000
  N   N4        1.0  0.7760918904035164  0.9504391703768651  0.33112885271003334  1.0000
  C   C39       1.0  0.8983366429856189  0.0025787975107327554  0.30185627135365567  1.0000
  C   C40       1.0  0.9621360854588319  0.9807771468965214  0.24415619586761883  1.0000
  C   C41       1.0  0.96977449267173  0.8834478834184929  0.15773841775842623  1.0000
  H   H22       1.0  0.75583153895891  0.18559346728685422  0.40646558315058323  1.0000
  H   H23       1.0  0.8792438158454173  0.5658456477411276  0.25671576678272334  1.0000
  H   H24       1.0  0.8780446618533477  0.5675927797601754  0.8395297820861041  1.0000
  H   H25       1.0  0.7783206019620694  0.2593327693067673  0.07275737994096554  1.0000
  H   H26       1.0  0.7553475797873364  0.18612535321033818  0.7508552647994446  1.0000
  H   H27       1.0  0.8048620643809987  0.7735507583035497  0.162418456116447  1.0000
  H   H28       1.0  0.7334340259143844  0.8949565610072467  0.31023730004166383  1.0000
  H   H29       1.0  0.7698016402770784  0.023072112801179934  0.39569185162971077  1.0000
  H   H30       1.0  0.8930636843762528  0.07828883219568272  0.3686571456988348  1.0000
  H   H31       1.0  0.0057884265603360685  0.03943630189027125  0.2664488522373649  1.0000
  H   H32       1.0  0.019738222191163945  0.8678803892812406  0.11431830118283193  1.0000
  Zn  Zn1       1.0  0.7506099734422289  0.40748892740791565  0.5616096427781252  1.0000
  Zn  Zn2       1.0  0.9013309440393312  0.4047005244853825  0.5603533739270912  1.0000
  C   C42       1.0  0.8259911217877356  0.4009036724979158  0.7981951103060902  1.0000
  C   C43       1.0  0.82595144183272  0.41128738751592264  0.32376802067598853  1.0000
  C   C44       1.0  0.8260074136606617  0.6432817343169293  0.5558812115718006  1.0000
  C   C45       1.0  0.8259350982874633  0.16890776637891802  0.5660819885899606  1.0000
  O   O3        1.0  0.8831524208959617  0.4119565628474524  0.3716817542285664  1.0000
  O   O4        1.0  0.8831838717752957  0.3981171841970028  0.7493275235765693  1.0000
  O   O5        1.0  0.8831962567270167  0.5938405485684113  0.5536573427914917  1.0000
  O   O6        1.0  0.8831399845067589  0.21623320872483043  0.5673518380624563  1.0000
  O   O7        1.0  0.7688008815411308  0.595956244121427  0.5546111790646318  1.0000
  O   O8        1.0  0.76878849682807  0.40023444002096853  0.750281291091899  1.0000
  O   O9        1.0  0.7687570458574452  0.4140737735327691  0.37263396019803774  1.0000
  O   O10       1.0  0.7687446094720537  0.21835041011431944  0.5683041414049876  1.0000
