data_image0
_chemical_formula_structural       NC10NC3NCH9C7OC3OC4H12C6SCOC6H10Zn2C4O8
_chemical_formula_sum              "N3 C45 H31 O11 S1 Zn2"
_cell_length_a       19.437513618241372
_cell_length_b       10.299371110280156
_cell_length_c       10.302041481415108
_cell_angle_alpha    85.5593769261431
_cell_angle_beta     90.34339533155027
_cell_angle_gamma    89.53521497268402

_space_group_name_H-M_alt    "P 1"
_space_group_IT_number       1

loop_
  _space_group_symop_operation_xyz
  'x, y, z'

loop_
  _atom_site_type_symbol
  _atom_site_label
  _atom_site_symmetry_multiplicity
  _atom_site_fract_x
  _atom_site_fract_y
  _atom_site_fract_z
  _atom_site_occupancy
  N   N1        1.0  0.6480644909564826  0.41097624205965566  0.5765080140263241  1.0000
  C   C1        1.0  0.5891332218685056  0.4279874202659455  0.5735395604145606  1.0000
  C   C2        1.0  0.5156953320684761  0.4492413200745693  0.569854987597886  1.0000
  C   C3        1.0  0.4739204297449885  0.34805648830589053  0.5581570401686635  1.0000
  C   C4        1.0  0.3980316529965791  0.3581241505689743  0.5509413371769389  1.0000
  C   C5        1.0  0.3584677917214288  0.4389455701106473  0.6167026219332061  1.0000
  C   C6        1.0  0.2822844419910679  0.4303407904479366  0.6082568305604104  1.0000
  C   C7        1.0  0.24913375707027624  0.308994718977339  0.6128498484203739  1.0000
  C   C8        1.0  0.1773982276153329  0.30262591885859536  0.6056807371628434  1.0000
  C   C9        1.0  0.1378427023542464  0.417130358487813  0.5942805697089188  1.0000
  C   C10       1.0  0.0639926563908917  0.41042344877585646  0.5869432655892084  1.0000
  N   N2        1.0  0.0046223175427997  0.40503168324214767  0.5810445316241912  1.0000
  C   C11       1.0  0.1702767610618804  0.5381655526736211  0.5904325415938418  1.0000
  C   C12       1.0  0.2419967273380969  0.5447883173243271  0.5976637642882832  1.0000
  C   C13       1.0  0.3871641640543084  0.5311927544728348  0.7066407989249404  1.0000
  N   N3        1.0  0.4441569624624648  0.5944134969594768  0.6862667017160151  1.0000
  C   C14       1.0  0.4879948001245907  0.5851996949562053  0.5731796740246378  1.0000
  H   H1        1.0  0.4962921899500964  0.25300579441420235  0.545999767447507  1.0000
  H   H2        1.0  0.37330775737469907  0.28863669573193507  0.4926074523989328  1.0000
  H   H3        1.0  0.2785728502462051  0.21907871719011696  0.6238317475632753  1.0000
  H   H4        1.0  0.1527927645751705  0.20839851552031585  0.6095287380734804  1.0000
  H   H5        1.0  0.1401523379670115  0.6274256801454714  0.5817620270020474  1.0000
  H   H6        1.0  0.2661207207747808  0.6394285246257443  0.5938004748546026  1.0000
  H   H7        1.0  0.357164842331019  0.5515428368470221  0.7909976172172231  1.0000
  H   H8        1.0  0.5307564201268935  0.6555093533769369  0.5789704421199204  1.0000
  H   H9        1.0  0.458329869090817  0.6133463438347244  0.4825650134695676  1.0000
  C   C15       1.0  0.8263003211084754  0.026633294776807093  0.5786609658009789  1.0000
  C   C16       1.0  0.8183779403422086  0.03610158458797197  0.4426062346391626  1.0000
  C   C17       1.0  0.8136049558053325  0.9237031056505642  0.37414225566994275  1.0000
  C   C18       1.0  0.818412079508545  0.8008330229884584  0.44291768366048445  1.0000
  C   C19       1.0  0.8263930866350175  0.7893644827349551  0.5789029431177699  1.0000
  C   C20       1.0  0.830110895034441  0.9028657926445477  0.6460230989238362  1.0000
  C   C21       1.0  0.8059569778932417  0.933561021473372  0.23033087970575927  1.0000
  O   O1        1.0  0.8341618731060683  0.8480750327112394  0.16668147026873514  1.0000
  C   C22       1.0  0.7663043126780812  0.040316792760964004  0.15873183580895178  1.0000
  C   C23       1.0  0.7855394516167615  0.08520184902547001  0.03186315903895309  1.0000
  C   C24       1.0  0.7483284185965745  0.18486046728202443  0.9620248226587331  1.0000
  O   O2        1.0  0.7702985744839455  0.22634690619645248  0.8362354150955911  1.0000
  C   C25       1.0  0.73750639788797  0.32640800939127557  0.7544018745618657  1.0000
  C   C26       1.0  0.6906127821504416  0.2396604825337736  0.019765176995568012  1.0000
  C   C27       1.0  0.6706713511863303  0.1944979090531791  0.1451081563070138  1.0000
  C   C28       1.0  0.7080045037096249  0.09511882602448285  0.21419604126530656  1.0000
  H   H10       1.0  0.8423005819046275  0.21608766997499407  0.8351987265288308  1.0000
  H   H11       1.0  0.8166762067045947  0.1310834766680784  0.3895670233593933  1.0000
  H   H12       1.0  0.8152506411046063  0.7140443579794119  0.3901670981488441  1.0000
  H   H13       1.0  0.8362189129349975  0.8947626263529711  0.7509113332421677  1.0000
  H   H14       1.0  0.8300313083654298  0.45750199168927763  0.6310241578190703  1.0000
  H   H15       1.0  0.8300246718855816  0.04358047961591005  0.9870667122887382  1.0000
  H   H16       1.0  0.7655752226923541  0.33906499460923634  0.6609096334723188  1.0000
  H   H17       1.0  0.7385183776058615  0.41983090842059867  0.8014230306343686  1.0000
  H   H18       1.0  0.6835895083892012  0.2990807092518508  0.7339561916301238  1.0000
  H   H19       1.0  0.6607302263477484  0.3166762400981824  0.9685081729203917  1.0000
  H   H20       1.0  0.6259261486648477  0.23628545742624985  0.18867984314249764  1.0000
  H   H21       1.0  0.6908383511401104  0.06022207707021887  0.3103342155362916  1.0000
  C   C29       1.0  0.8263596154307736  0.4081279381614882  0.19749512045160755  1.0000
  C   C30       1.0  0.8579156641875796  0.5307008419692334  0.18702250089403116  1.0000
  C   C31       1.0  0.8739229432916438  0.5911603661004892  0.06486002348461994  1.0000
  C   C32       1.0  0.8579809117064099  0.530295889642973  0.9519177916276904  1.0000
  C   C33       1.0  0.8263338060629813  0.40786980836589626  0.9600688013605216  1.0000
  C   C34       1.0  0.8107377363407672  0.34736487282414563  0.0834299250281536  1.0000
  S   S1        1.0  0.9148491647161997  0.7470116963286821  0.052907616984945616  1.0000
  C   C35       1.0  0.999592351083883  0.6757977947836897  0.05653219817687494  1.0000
  O   O3        1.0  0.02651470700099967  0.6521760705240356  0.949807155784693  1.0000
  C   C36       1.0  0.03751047479951097  0.643822778088371  0.18052925213512339  1.0000
  C   C37       1.0  0.09853471004427639  0.5690816392458125  0.18147467478005952  1.0000
  C   C38       1.0  0.1343898693993788  0.5375869550750283  0.29787318758617065  1.0000
  C   C39       1.0  0.1099510430208166  0.5803421351815505  0.41451318776192814  1.0000
  C   C40       1.0  0.049666240464753875  0.6549121344436113  0.41495738972364915  1.0000
  C   C41       1.0  0.01360577059961976  0.6867843780929577  0.29885578880426533  1.0000
  H   H22       1.0  0.7667788917829338  0.17721428150984075  0.42454126402408376  1.0000
  H   H23       1.0  0.8702809770562022  0.5794227007408785  0.2735096068141014  1.0000
  H   H24       1.0  0.8706377988553863  0.5786813553197439  0.8581228024990435  1.0000
  H   H25       1.0  0.7864118691167139  0.2528696545151401  0.09058303377190735  1.0000
  H   H26       1.0  0.8144894201025377  0.3611504154018297  0.6358440271580355  1.0000
  H   H27       1.0  0.11840404339202748  0.5342923035812184  0.0923979461958524  1.0000
  H   H28       1.0  0.18115027066260092  0.47982259837568364  0.2976031236757035  1.0000
  H   H29       1.0  0.13776918554818796  0.5558270512315293  0.5045215998056194  1.0000
  H   H30       1.0  0.030865062863452586  0.6882966169204696  0.5054013088536364  1.0000
  H   H31       1.0  0.9673675950296033  0.7454820896380276  0.3023600529974657  1.0000
  Zn  Zn1       1.0  0.7509593824663339  0.40925727902230125  0.577824661242051  1.0000
  Zn  Zn2       1.0  0.9017274305838119  0.4067399730733301  0.5797385485995723  1.0000
  C   C42       1.0  0.8263365025830475  0.40274494112310677  0.815924360793084  1.0000
  C   C43       1.0  0.8263519570444579  0.41325392206722533  0.34163899790696073  1.0000
  C   C44       1.0  0.8263721801300561  0.6451938538885895  0.5736830867622515  1.0000
  C   C45       1.0  0.8263162278587529  0.17080344982790097  0.5838803400134709  1.0000
  O   O4        1.0  0.883565074657313  0.4140132788376927  0.3907413084320943  1.0000
  O   O5        1.0  0.8835528448497054  0.400074027783595  0.768274272411609  1.0000
  O   O6        1.0  0.8835808835795395  0.5958546034477052  0.5726627203717285  1.0000
  O   O7        1.0  0.8835369844849845  0.2182327133557822  0.5863527624681342  1.0000
  O   O8        1.0  0.7691497771154261  0.5977645396002982  0.5712104467135444  1.0000
  O   O9        1.0  0.7691217385745535  0.4019855242704793  0.7668219300178023  1.0000
  O   O10       1.0  0.7691339684752927  0.41592473059602586  0.3892874049599182  1.0000
  O   O11       1.0  0.7691058782957239  0.2201441557923649  0.5848989563398543  1.0000
