data_image0
_chemical_formula_structural       NC8NC6H8C7OC6OCH12C7OC6H10Zn2C4O8
_chemical_formula_sum              "N2 C45 H30 O11 Zn2"
_cell_length_a       17.457602349358154
_cell_length_b       10.299359160628079
_cell_length_c       10.299382801718286
_cell_angle_alpha    85.57723515363111
_cell_angle_beta     92.85617812018302
_cell_angle_gamma    91.71072845926622

_space_group_name_H-M_alt    "P 1"
_space_group_IT_number       1

loop_
  _space_group_symop_operation_xyz
  'x, y, z'

loop_
  _atom_site_type_symbol
  _atom_site_label
  _atom_site_symmetry_multiplicity
  _atom_site_fract_x
  _atom_site_fract_y
  _atom_site_fract_z
  _atom_site_occupancy
  N   N1        1.0  0.7230443944220826  0.4526257200496191  0.6266931999648244  1.0000
  C   C1        1.0  0.6619577208585183  0.4066972522843064  0.6160722587300658  1.0000
  C   C2        1.0  0.585963315350682  0.3495679546578123  0.6028693503358364  1.0000
  C   C3        1.0  0.5274291675379247  0.3897445353689126  0.6777707352046993  1.0000
  C   C4        1.0  0.4528732228963395  0.334733673026828  0.6651825038686932  1.0000
  C   C5        1.0  0.3907478226402099  0.37715426824464116  0.744505896277849  1.0000
  C   C6        1.0  0.31621671691710884  0.39561310610311606  0.688745267744542  1.0000
  C   C7        1.0  0.2576825010711378  0.43560577557028735  0.7637545834387294  1.0000
  C   C8        1.0  0.1817138278693883  0.4546700828127286  0.7057785934955523  1.0000
  N   N2        1.0  0.1206479295821501  0.46999140598133904  0.6591660478831014  1.0000
  C   C9        1.0  0.2731871837819356  0.4573828477802462  0.8950330669843072  1.0000
  C   C10       1.0  0.346933599809557  0.43931307805058606  0.9511813339376911  1.0000
  C   C11       1.0  0.405456161530721  0.39950055099887405  0.8766297545791555  1.0000
  C   C12       1.0  0.4381401990176421  0.23886853145340914  0.57625990766962  1.0000
  C   C13       1.0  0.4966626144013208  0.1989707112339303  0.5017585533973541  1.0000
  C   C14       1.0  0.5704337096579888  0.2540940520194146  0.5148967404611979  1.0000
  H   H1        1.0  0.5397776389195372  0.4649531121775692  0.7444093459296952  1.0000
  H   H2        1.0  0.3038886394988869  0.3806239229539763  0.5867203730665032  1.0000
  H   H3        1.0  0.2283217186723284  0.48827716557096856  0.9538717367458178  1.0000
  H   H4        1.0  0.358748409770449  0.4558598991566576  0.05283315460315352  1.0000
  H   H5        1.0  0.4619289780307795  0.38451665498523346  0.9227338572269606  1.0000
  H   H6        1.0  0.38164695029478823  0.19352974237174636  0.5656029187807572  1.0000
  H   H7        1.0  0.4848284574682836  0.1248784113524124  0.4339217672778206  1.0000
  H   H8        1.0  0.6152989102887042  0.22233010363442518  0.4565690875669155  1.0000
  C   C15       1.0  0.9217595537973682  0.07992646746281595  0.6428910627677116  1.0000
  C   C16       1.0  0.8583197675853165  0.08242052921744314  0.5533131687443449  1.0000
  C   C17       1.0  0.826872672921231  0.9667176866763776  0.5070843314794988  1.0000
  C   C18       1.0  0.8585024630565361  0.8471670441251071  0.5535831951646482  1.0000
  C   C19       1.0  0.9219401060790599  0.8426809146706369  0.6429800549019979  1.0000
  C   C20       1.0  0.9533093113254447  0.9596354796198451  0.686917014492326  1.0000
  C   C21       1.0  0.759353433192414  0.9714646058595121  0.4136367388729969  1.0000
  O   O1        1.0  0.7105967178366369  0.058210003281751854  0.4212212012303733  1.0000
  C   C22       1.0  0.747143935118876  0.8778741715026752  0.31159241132616966  1.0000
  C   C23       1.0  0.8095591168035888  0.8272391651835157  0.2526349930573848  1.0000
  C   C24       1.0  0.7972471419013591  0.740296491162922  0.1555479711984602  1.0000
  C   C25       1.0  0.7227225996224709  0.7031206258202988  0.11469885931345436  1.0000
  C   C26       1.0  0.6600494447291215  0.7547788909008398  0.17232345397598725  1.0000
  C   C27       1.0  0.6722912560239319  0.8417773986629049  0.26945116680704184  1.0000
  O   O2        1.0  0.7134499247727529  0.6154701501378356  0.017043570691103405  1.0000
  C   C28       1.0  0.641159855973429  0.5694598346678099  0.9662716076628408  1.0000
  H   H9        1.0  0.041269764170976275  0.28244938429010547  0.8123263788419484  1.0000
  H   H10       1.0  0.8336527788841789  0.17466494925639653  0.5183139062100859  1.0000
  H   H11       1.0  0.8330396952671706  0.7574119715605028  0.5210522565521096  1.0000
  H   H12       1.0  0.002244688768017422  0.9569070266846604  0.7558821483587652  1.0000
  H   H13       1.0  0.9460789566287485  0.5134460267047732  0.6776695189937318  1.0000
  H   H14       1.0  0.8678823387132364  0.8558788836339095  0.28052937680313317  1.0000
  H   H15       1.0  0.8459466868684916  0.7019666254543967  0.11134423180606356  1.0000
  H   H16       1.0  0.6016944920462897  0.7284144641271363  0.14278186860355002  1.0000
  H   H17       1.0  0.6231631437427434  0.8800425526987444  0.31256914678941716  1.0000
  H   H18       1.0  0.6507521875273501  0.5014688129072619  0.8905804673378102  1.0000
  H   H19       1.0  0.6074568352643692  0.6523279890731863  0.921009149005017  1.0000
  H   H20       1.0  0.6089380035184045  0.5164986537094947  0.045175452883876144  1.0000
  C   C29       1.0  0.921926340152931  0.4612338288962381  0.26157199192919234  1.0000
  C   C30       1.0  0.002526472999987428  0.4656175899916939  0.2668511506224729  1.0000
  C   C31       1.0  0.043178542131326214  0.4663405070164097  0.15245551946884572  1.0000
  C   C32       1.0  0.002339525354829064  0.4656374623028581  0.0315903163777298  1.0000
  C   C33       1.0  0.9217732808387475  0.4613736028903581  0.024299039759935193  1.0000
  C   C34       1.0  0.8820339476549259  0.4588517862004373  0.13989383003725409  1.0000
  C   C35       1.0  0.12828213324906113  0.4723531886002148  0.15777778470048442  1.0000
  O   O3        1.0  0.16209997159549672  0.5345405135611754  0.06601878909743708  1.0000
  C   C36       1.0  0.17502126633363413  0.4078097955150535  0.2670947224445708  1.0000
  C   C37       1.0  0.24714443008338116  0.46142081147743474  0.30409145385435443  1.0000
  C   C38       1.0  0.29201329613576865  0.4004451340566375  0.4060042444972629  1.0000
  C   C39       1.0  0.2656983258077825  0.2849895417999464  0.4712078784760583  1.0000
  C   C40       1.0  0.1945921585231507  0.22997594698555512  0.4342710468979847  1.0000
  C   C41       1.0  0.14950464876009972  0.2905633536966732  0.3324424231623022  1.0000
  H   H21       1.0  0.7698223003241834  0.454972777810416  0.4587742073530008  1.0000
  H   H22       1.0  0.03378221741446308  0.4699332535335936  0.36000298413694565  1.0000
  H   H23       1.0  0.03360248769531382  0.46717425108475075  0.9431921419810396  1.0000
  H   H24       1.0  0.8198973182492125  0.4554730354265808  0.13501976123726345  1.0000
  H   H25       1.0  0.8908235447093118  0.4608406313450981  0.6939563710122845  1.0000
  H   H26       1.0  0.2684652498572859  0.5510271456498612  0.2549059071552626  1.0000
  H   H27       1.0  0.3472479864604143  0.4427422382711981  0.4343919150666753  1.0000
  H   H28       1.0  0.3005387064940739  0.23788281508899778  0.5499920054302365  1.0000
  H   H29       1.0  0.1745200266979201  0.13996823083301035  0.48418729338170885  1.0000
  H   H30       1.0  0.09519040910572363  0.24502420470472708  0.303943386537743  1.0000
  Zn  Zn1       1.0  0.837784183663667  0.4576336004399606  0.6360716603787233  1.0000
  Zn  Zn2       1.0  0.005908121437001812  0.4649728793475001  0.6497982186052182  1.0000
  C   C42       1.0  0.9217992993049909  0.45617324321444785  0.8801265882418128  1.0000
  C   C43       1.0  0.9218948420661507  0.46643495541789104  0.4057435682914734  1.0000
  C   C44       1.0  0.921903059946279  0.6985030020646987  0.6377877783907855  1.0000
  C   C45       1.0  0.9217910236726872  0.22410363371886066  0.6480824425142762  1.0000
  O   O4        1.0  0.9856864278790802  0.47096005314854006  0.4593380229919173  1.0000
  O   O5        1.0  0.9856098919820048  0.45721750853003607  0.8369498996693119  1.0000
  O   O6        1.0  0.9856928196575377  0.6529018161810738  0.6412595260618534  1.0000
  O   O7        1.0  0.9856034428559713  0.2752757522658069  0.6550282945432175  1.0000
  O   O8        1.0  0.8580888048722508  0.6473307250185307  0.6308415797496927  1.0000
  O   O9        1.0  0.8580058775764464  0.4516479777131486  0.8265318842943445  1.0000
  O   O10       1.0  0.8580824138271018  0.46539047679021617  0.44891844623713206  1.0000
  O   O11       1.0  0.8579994287791216  0.26970616663605496  0.6446088151535598  1.0000
