data_image0
_chemical_formula_structural       NC10NC3NCH9C7OC3FC3H9C6SCOC6H10Zn2C4O8
_chemical_formula_sum              "N3 C44 H28 O10 F1 S1 Zn2"
_cell_length_a       19.437513618241372
_cell_length_b       10.29937835083307
_cell_length_c       10.302041481415108
_cell_angle_alpha    85.53259314287666
_cell_angle_beta     90.34339533155027
_cell_angle_gamma    89.54280298698887

_space_group_name_H-M_alt    "P 1"
_space_group_IT_number       1

loop_
  _space_group_symop_operation_xyz
  'x, y, z'

loop_
  _atom_site_type_symbol
  _atom_site_label
  _atom_site_symmetry_multiplicity
  _atom_site_fract_x
  _atom_site_fract_y
  _atom_site_fract_z
  _atom_site_occupancy
  N   N1        1.0  0.6481611936488325  0.4110250659049075  0.5758478084074186  1.0000
  C   C1        1.0  0.589231090439262  0.4280368327469999  0.5728713951467959  1.0000
  C   C2        1.0  0.5157946572968806  0.4492914680018236  0.5691768774822494  1.0000
  C   C3        1.0  0.4740128201679972  0.3481031349462902  0.5575262751411236  1.0000
  C   C4        1.0  0.3981247334170643  0.3581711455795089  0.5503058614200489  1.0000
  C   C5        1.0  0.3585664113201343  0.43899536177527443  0.616029329270745  1.0000
  C   C6        1.0  0.2823824718524441  0.430390284362383  0.6075875641343329  1.0000
  C   C7        1.0  0.2492234703551805  0.3090400139679208  0.6122373606669838  1.0000
  C   C8        1.0  0.177487504408041  0.302670993470334  0.6050712294154221  1.0000
  C   C9        1.0  0.13793982682522732  0.417179395283233  0.5936174845360394  1.0000
  C   C10       1.0  0.0640893211969915  0.41047225349286753  0.586283318626134  1.0000
  N   N2        1.0  0.0047186128187628  0.4050803013885287  0.5803871075057934  1.0000
  C   C11       1.0  0.1703821808030423  0.538218777635656  0.5897128232099234  1.0000
  C   C12       1.0  0.2421026009771725  0.5448417714531097  0.5969409470666212  1.0000
  C   C13       1.0  0.3872691059076511  0.5312457381559521  0.7059243431619044  1.0000
  N   N3        1.0  0.44426623721371805  0.594468668262524  0.6855206645268885  1.0000
  C   C14       1.0  0.48810344339854894  0.5852545474351436  0.5724379480376931  1.0000
  H   H1        1.0  0.4963780659770897  0.2530491520266005  0.5454134773021919  1.0000
  H   H2        1.0  0.3733960754017668  0.28868128627622824  0.4920044903065248  1.0000
  H   H3        1.0  0.2786564010464417  0.2191209008278452  0.6232613321338827  1.0000
  H   H4        1.0  0.152875583396919  0.20844032959227987  0.6089633199848958  1.0000
  H   H5        1.0  0.1402638752418276  0.6274819937652178  0.5810005431822951  1.0000
  H   H6        1.0  0.2662330806767557  0.6394852535785092  0.5930333748202523  1.0000
  H   H7        1.0  0.3572711788979623  0.5515965247016508  0.7902716395087936  1.0000
  H   H8        1.0  0.5308698821448282  0.6555666387727312  0.578195817753705  1.0000
  H   H9        1.0  0.4584404414239939  0.6134021702688495  0.4818101174694156  1.0000
  C   C15       1.0  0.826370682465883  0.026668819248177433  0.5781805969261795  1.0000
  C   C16       1.0  0.7545883340907856  0.02787893811406117  0.561245391831432  1.0000
  C   C17       1.0  0.7182958975253889  0.9112024129895218  0.5541796633584191  1.0000
  C   C18       1.0  0.7547565626756095  0.7926321279286245  0.561254407322898  1.0000
  C   C19       1.0  0.8265157022907171  0.7894264156724072  0.5780656745741892  1.0000
  C   C20       1.0  0.8618863187872126  0.9069719861539532  0.5867730845711516  1.0000
  C   C21       1.0  0.642583753285761  0.9124416566993395  0.5349254345447736  1.0000
  O   O1        1.0  0.6160117047212534  0.8282177958664106  0.4679404616739711  1.0000
  C   C22       1.0  0.5970160134688256  0.00912872516989105  0.5916719126783505  1.0000
  C   C23       1.0  0.5357319606162186  0.05017115075717715  0.5271245553496788  1.0000
  C   C24       1.0  0.49202606756053857  0.14013764672885132  0.580617421724781  1.0000
  F   F1        1.0  0.4333251460090009  0.1798287037774764  0.5171640825100423  1.0000
  C   C25       1.0  0.5087674601985904  0.1891134228750464  0.6994101579466383  1.0000
  C   C26       1.0  0.5690637612678526  0.1478346891774922  0.7651592422876732  1.0000
  C   C27       1.0  0.6129119005205859  0.057937286644480945  0.7120728120848945  1.0000
  H   H10       1.0  0.9619526045505181  0.2318585858784803  0.6081451989268023  1.0000
  H   H11       1.0  0.7269062010695237  0.11985502259827485  0.5520817285430129  1.0000
  H   H12       1.0  0.7269043784380669  0.7026300511571899  0.5548488113486958  1.0000
  H   H13       1.0  0.917225174971914  0.905235071368341  0.5998281272414776  1.0000
  H   H14       1.0  0.8541470753750134  0.46082240519079826  0.5834287905279343  1.0000
  H   H15       1.0  0.5220273959431151  0.013430322278606965  0.4348115036262685  1.0000
  H   H16       1.0  0.47491543255996493  0.25865106529602744  0.740849171240821  1.0000
  H   H17       1.0  0.5817046814083224  0.18508033938130897  0.8576722771526533  1.0000
  H   H18       1.0  0.6587611876394539  0.02559218093452209  0.7657972683480692  1.0000
  C   C28       1.0  0.8264561229117179  0.4081766634472148  0.19683624757395024  1.0000
  C   C29       1.0  0.8580205723271984  0.5307538086307602  0.18630627530028399  1.0000
  C   C30       1.0  0.8740319950862635  0.591215424835831  0.06411550845809799  1.0000
  C   C31       1.0  0.8580857920922089  0.530348842291982  0.95120175551396  1.0000
  C   C32       1.0  0.8264302958527376  0.4079185247195878  0.9594100492635946  1.0000
  C   C33       1.0  0.8108300793632051  0.34741149553265593  0.08279948361231781  1.0000
  S   S1        1.0  0.9149688979403079  0.7470721479693068  0.052090178034643664  1.0000
  C   C34       1.0  0.9997072035907919  0.6758557822180398  0.05574808070750481  1.0000
  O   O2        1.0  0.02662794056900264  0.6522332405786344  0.9490340910847594  1.0000
  C   C35       1.0  0.03762313586611765  0.6438796590949727  0.17976009599894782  1.0000
  C   C36       1.0  0.09864224865088711  0.5691359339935615  0.1807404905437331  1.0000
  C   C37       1.0  0.1344952494857654  0.5376401600159189  0.2971537399321025  1.0000
  C   C38       1.0  0.11005935337697315  0.5803968195749185  0.4137737346610617  1.0000
  C   C39       1.0  0.04977966155168123  0.6549693991739087  0.4141830448003361  1.0000
  C   C40       1.0  0.013721376083194237  0.6868427456947603  0.29806653063598243  1.0000
  H   H19       1.0  0.766859573361476  0.17725501651741582  0.42399043725596375  1.0000
  H   H20       1.0  0.8703892243979842  0.5794773533191644  0.27277058392301856  1.0000
  H   H21       1.0  0.8707459953883054  0.5787359822453415  0.8573841264886508  1.0000
  H   H22       1.0  0.7864977358132206  0.25291300741670564  0.08999680732739979  1.0000
  H   H23       1.0  0.8145827079311622  0.36119751512985165  0.6352071353907354  1.0000
  H   H24       1.0  0.11850919767612167  0.5343453945176695  0.09168004013218356  1.0000
  H   H25       1.0  0.1812516918100291  0.4798738045033206  0.29691070436678224  1.0000
  H   H26       1.0  0.13787581573812324  0.5558808873323249  0.5037936174834163  1.0000
  H   H27       1.0  0.03098077198985405  0.6883550368500946  0.5046113430982648  1.0000
  H   H28       1.0  0.9674872234205606  0.7455424883498512  0.3015433297607968  1.0000
  Zn  Zn1       1.0  0.751055967347803  0.40930604338647725  0.5771652599379333  1.0000
  Zn  Zn2       1.0  0.9018238429391567  0.40678865033146394  0.5790803251604546  1.0000
  C   C41       1.0  0.826432641134813  0.40279348014161886  0.8152680066572633  1.0000
  C   C42       1.0  0.8264488158399248  0.4133028247267714  0.34097772654570346  1.0000
  C   C43       1.0  0.826484935164738  0.6452507823383655  0.5729132890901518  1.0000
  C   C44       1.0  0.8263964700644232  0.1708439630022205  0.5833325129181808  1.0000
  O   O3        1.0  0.8836619854960686  0.4140622077731717  0.39007968176251073  1.0000
  O   O4        1.0  0.8836488003477077  0.4001224743808065  0.7676191680147577  1.0000
  O   O5        1.0  0.883690257098492  0.595909824617191  0.5719160088788304  1.0000
  O   O6        1.0  0.8836204773034876  0.21827486771933913  0.5857827428898332  1.0000
  O   O7        1.0  0.7692592815337961  0.5978198268590809  0.5704628415482071  1.0000
  O   O8        1.0  0.7692178250789121  0.4020340370109792  0.7661659312184206  1.0000
  O   O9        1.0  0.7692310103173395  0.41597372567324586  0.38862488390873295  1.0000
  O   O10       1.0  0.7691895021168791  0.22018637629733995  0.5843280423843131  1.0000
