data_image0
_chemical_formula_structural       NC11NC3H8C7OC3NC3H11C7OC3OC4H12Zn2C4O8
_chemical_formula_sum              "N3 C45 H31 O11 Zn2"
_cell_length_a       17.807433833752565
_cell_length_b       10.298746005989749
_cell_length_c       10.299374482448636
_cell_angle_alpha    85.55101224981432
_cell_angle_beta     88.50658755346606
_cell_angle_gamma    90.6940108729131

_space_group_name_H-M_alt    "P 1"
_space_group_IT_number       1

loop_
  _space_group_symop_operation_xyz
  'x, y, z'

loop_
  _atom_site_type_symbol
  _atom_site_label
  _atom_site_symmetry_multiplicity
  _atom_site_fract_x
  _atom_site_fract_y
  _atom_site_fract_z
  _atom_site_occupancy
  N   N1        1.0  0.7078139680130089  0.4389473036587277  0.5346989875694785  1.0000
  C   C1        1.0  0.6569791636904336  0.40420184629653644  0.6012614321827774  1.0000
  C   C2        1.0  0.59373554329669  0.360981362064418  0.6840566188737431  1.0000
  C   C3        1.0  0.6054344463773145  0.2973966543643656  0.8067752460604294  1.0000
  C   C4        1.0  0.5440987911923583  0.2558566301796956  0.8872865341865237  1.0000
  C   C5        1.0  0.47090973971270883  0.277587866629571  0.8457199931475179  1.0000
  C   C6        1.0  0.4582341412336129  0.3413272478623728  0.7225411623358216  1.0000
  C   C7        1.0  0.3804774997176276  0.36438937569442653  0.6781939584388379  1.0000
  C   C8        1.0  0.3617158044464195  0.3475462833523153  0.5486075818133958  1.0000
  C   C9        1.0  0.2884968147747061  0.369238798872896  0.5069969649253405  1.0000
  C   C10       1.0  0.2330966252401633  0.4080931554633851  0.5941524418897972  1.0000
  C   C11       1.0  0.1577412229239688  0.43044451438074516  0.551180525314519  1.0000
  N   N2        1.0  0.0971608521808111  0.4484133464429185  0.5166342318732333  1.0000
  C   C12       1.0  0.2511668731204424  0.42514696837264143  0.7232076791442092  1.0000
  C   C13       1.0  0.3243330514998018  0.4034194595386307  0.7650737324873902  1.0000
  C   C14       1.0  0.5204271048989075  0.38286270284612245  0.6420462903362145  1.0000
  H   H1        1.0  0.6618925479934159  0.2799728008354567  0.8401408299499915  1.0000
  H   H2        1.0  0.553275055493858  0.20637773100446255  0.9820227987876464  1.0000
  H   H3        1.0  0.4242557207610232  0.2430138887039317  0.9091590488569274  1.0000
  H   H4        1.0  0.40340361901061117  0.31591797234337093  0.47988631144830673  1.0000
  H   H5        1.0  0.2750721455250422  0.3553805041574043  0.4069577415892982  1.0000
  H   H6        1.0  0.2087622529187119  0.4555522700575265  0.7914140772038878  1.0000
  H   H7        1.0  0.3372294672650403  0.41882333816578154  0.8649303014954595  1.0000
  H   H8        1.0  0.5119494041757437  0.4337040152410958  0.5475444447361493  1.0000
  C   C15       1.0  0.9024551026439359  0.06227746024305936  0.5256509148058399  1.0000
  C   C16       1.0  0.9376215313402598  0.0716686115276628  0.4015116274920316  1.0000
  C   C17       1.0  0.9546135044120059  0.9592748255451718  0.3380884282374752  1.0000
  C   C18       1.0  0.9376221035853947  0.8364320370056842  0.40146246248632256  1.0000
  C   C19       1.0  0.9025268824562874  0.8250733865475378  0.5256931402528777  1.0000
  C   C20       1.0  0.8849852632646799  0.9385630731920732  0.5868529967146219  1.0000
  C   C21       1.0  0.9923873824425036  0.9690156806563162  0.20751672439616264  1.0000
  O   O1        1.0  0.0382623827160502  0.8821592170445098  0.18017527870455474  1.0000
  C   C22       1.0  0.9781205581833389  0.07723098006245688  0.1079702106659548  1.0000
  C   C23       1.0  0.9069852862807476  0.13489654679741703  0.09916294239110734  1.0000
  C   C24       1.0  0.8938381801680887  0.23627138941030656  0.003863493322568301  1.0000
  N   N3        1.0  0.8215001230642591  0.29474968707442484  0.9960154326204504  1.0000
  C   C25       1.0  0.95187305835731  0.27958969558616054  0.9160343005690121  1.0000
  C   C26       1.0  0.02232291121997587  0.2217431540160526  0.923017248312235  1.0000
  C   C27       1.0  0.03541163650536383  0.1207914404632986  0.018015189855510316  1.0000
  H   H9        1.0  0.8370495403786544  0.2518530986638756  0.7610275437441989  1.0000
  H   H10       1.0  0.9525699424824491  0.16656014108525996  0.35459499332060207  1.0000
  H   H11       1.0  0.9511800828095487  0.7495817452842132  0.35313421864363037  1.0000
  H   H12       1.0  0.8578819989452925  0.9305722040192663  0.6825436308083503  1.0000
  H   H13       1.0  0.8364970849564033  0.5962999909184267  0.7606101931982838  1.0000
  H   H14       1.0  0.8614777971529831  0.10037041319449491  0.16523874953337692  1.0000
  H   H15       1.0  0.7778381596999191  0.26321871579147404  0.06099412237804902  1.0000
  H   H16       1.0  0.8110909373333985  0.3701293815332216  0.925258062391634  1.0000
  H   H17       1.0  0.9424188834449557  0.3577295952688837  0.841983788426242  1.0000
  H   H18       1.0  0.06691033634415167  0.2552118815390909  0.8546517566845777  1.0000
  H   H19       1.0  0.09050958150742106  0.07748748843810849  0.02198650263696722  1.0000
  C   C28       1.0  0.9025606019131835  0.44376460335837264  0.144286273972704  1.0000
  C   C29       1.0  0.9810346117107897  0.4603380928558285  0.1382747617997162  1.0000
  C   C30       1.0  0.020519968706094183  0.4701665120908911  0.017959418355081302  1.0000
  C   C31       1.0  0.9808550309688557  0.4602698505176199  0.903044239369498  1.0000
  C   C32       1.0  0.9024213837667058  0.44358621051838654  0.9070577503324091  1.0000
  C   C33       1.0  0.8637067776829476  0.43577066535219977  0.028164926601761398  1.0000
  C   C34       1.0  0.10347114597623519  0.4863104804439209  0.011572504524834493  1.0000
  O   O2        1.0  0.14032407902001576  0.43365985722252365  0.9240122826093531  1.0000
  C   C35       1.0  0.14461135029672056  0.5621984935179007  0.1044359898807139  1.0000
  C   C36       1.0  0.2179047111651553  0.5272594658407816  0.13919743392547534  1.0000
  C   C37       1.0  0.25803975842391313  0.5985053174493695  0.2255427961995633  1.0000
  O   O3        1.0  0.3307224660685377  0.5583766446875014  0.2574612194074166  1.0000
  C   C38       1.0  0.37779866841602505  0.6213971707089587  0.34367301429875075  1.0000
  C   C39       1.0  0.22446611790705662  0.7070850120330339  0.2770217271619859  1.0000
  C   C40       1.0  0.15205002953718405  0.7433786953179358  0.2417091050616702  1.0000
  C   C41       1.0  0.11234857104329676  0.6719103562649233  0.1555846438894466  1.0000
  H   H20       1.0  0.7545987293586824  0.4105038099675147  0.36310059447588583  1.0000
  H   H21       1.0  0.01163290712435816  0.46417426643643567  0.22744653594984587  1.0000
  H   H22       1.0  0.011280282060435853  0.46686564731092406  0.8102393149075064  1.0000
  H   H23       1.0  0.8032090494546203  0.42299286432592687  0.031995647791817294  1.0000
  H   H24       1.0  0.8723614189179228  0.436095233350964  0.581223280609708  1.0000
  H   H25       1.0  0.24395073524952537  0.4435734265000577  0.10010541129207895  1.0000
  H   H26       1.0  0.43187158306243223  0.5693500703284169  0.3511196528682725  1.0000
  H   H27       1.0  0.3506700788533448  0.6189365129343471  0.4421663160844851  1.0000
  H   H28       1.0  0.3893583155079665  0.7236926620389121  0.3054812267986624  1.0000
  H   H29       1.0  0.2539113770257788  0.7642434448942659  0.34384985747107755  1.0000
  H   H30       1.0  0.12670962132548302  0.827570981465571  0.28079734897216224  1.0000
  H   H31       1.0  0.056797088760271564  0.7032893237347233  0.1279398913283396  1.0000
  Zn  Zn1       1.0  0.8201710665339655  0.4416755224292095  0.5294933739527723  1.0000
  Zn  Zn2       1.0  0.9848037359676575  0.44567450465721525  0.5218504313829928  1.0000
  C   C42       1.0  0.9024455430600062  0.43844575973358957  0.7628774354403336  1.0000
  C   C43       1.0  0.9025310573562162  0.44890594975758535  0.28846641399756234  1.0000
  C   C44       1.0  0.9025104007218803  0.6808898190848627  0.5205099489481007  1.0000
  C   C45       1.0  0.9024661433572213  0.20646032858373942  0.5308339722530779  1.0000
  O   O4        1.0  0.964998381459445  0.45214335924361926  0.3339541289042849  1.0000
  O   O5        1.0  0.9649306056923006  0.4382425055059691  0.7115885300519977  1.0000
  O   O6        1.0  0.9649821366049616  0.6340191287820414  0.5158751090942355  1.0000
  O   O7        1.0  0.9649467943874525  0.25636674391678893  0.529667455091611  1.0000
  O   O8        1.0  0.8400279519331216  0.630983281806395  0.5216763528454837  1.0000
  O   O9        1.0  0.8399764211765328  0.43520821898965467  0.7173897046412929  1.0000
  O   O10       1.0  0.8400441972743565  0.44910902783367757  0.3397537420190997  1.0000
  O   O11       1.0  0.8399926101806466  0.253332403194364  0.5354671655781913  1.0000
