data_image0
_chemical_formula_structural       NC9NC5H8C6SCOC6H10C6NCOC6H11Zn2C4O8
_chemical_formula_sum              "N3 C44 H29 S1 O10 Zn2"
_cell_length_a       17.807436237873137
_cell_length_b       10.302038109246572
_cell_length_c       10.299662537453274
_cell_angle_alpha    85.5465134691658
_cell_angle_beta     89.37814808442572
_cell_angle_gamma    88.4085403614985

_space_group_name_H-M_alt    "P 1"
_space_group_IT_number       1

loop_
  _space_group_symop_operation_xyz
  'x, y, z'

loop_
  _atom_site_type_symbol
  _atom_site_label
  _atom_site_symmetry_multiplicity
  _atom_site_fract_x
  _atom_site_fract_y
  _atom_site_fract_z
  _atom_site_occupancy
  N   N1        1.0  0.7078665261733996  0.3879430377457451  0.5572615024499283  1.0000
  C   C1        1.0  0.6472739407886061  0.35276609094677647  0.5462332000250165  1.0000
  C   C2        1.0  0.5719034242616149  0.30900984302316825  0.5325151892551754  1.0000
  C   C3        1.0  0.553813012243607  0.23765115534402037  0.4275016415813353  1.0000
  C   C4        1.0  0.4806321204479156  0.1950557723271844  0.41409969398565627  1.0000
  C   C5        1.0  0.424492856233648  0.22344165282859096  0.5056787972470764  1.0000
  C   C6        1.0  0.3467204431952252  0.17828858886476273  0.4915180873569365  1.0000
  C   C7        1.0  0.2845557916057365  0.2600149447341973  0.5174671941071811  1.0000
  C   C8        1.0  0.2112325552460589  0.2172165688938832  0.5040789040200369  1.0000
  C   C9        1.0  0.1480182659019146  0.3016334759126371  0.5303922385624356  1.0000
  N   N2        1.0  0.0972069645723152  0.3694988284543761  0.5515474323431564  1.0000
  C   C10       1.0  0.1994903810003409  0.09243393048772885  0.46471612649625693  1.0000
  C   C11       1.0  0.2607976613295794  0.01069372884394637  0.4387586282334208  1.0000
  C   C12       1.0  0.3340014197737162  0.05309773600723089  0.45194432904299453  1.0000
  C   C13       1.0  0.4432747349838221  0.29529450364482157  0.6109116375712722  1.0000
  C   C14       1.0  0.5165084838515362  0.33769959677761063  0.6241579085762072  1.0000
  H   H1        1.0  0.596213517455282  0.21519791645836706  0.3557846681400183  1.0000
  H   H2        1.0  0.4677208666682924  0.14141734449746735  0.3311711018097647  1.0000
  H   H3        1.0  0.2930674835947321  0.3574450274414911  0.5463563279458226  1.0000
  H   H4        1.0  0.1430204575687197  0.058410223541554895  0.45411700871189575  1.0000
  H   H5        1.0  0.2515879411187063  0.9140839843551497  0.4086691532958284  1.0000
  H   H6        1.0  0.3806325979366645  0.9873760214661934  0.43288777954991864  1.0000
  H   H7        1.0  0.4015908331986723  0.3172083501427023  0.683923074330647  1.0000
  H   H8        1.0  0.5299484566007016  0.39255869121199893  0.7060449947478491  1.0000
  C   C15       1.0  0.902469185705735  0.9974457254429636  0.5543653209750901  1.0000
  C   C16       1.0  0.8382566976395627  0.005286867822917429  0.4757870411596099  1.0000
  C   C17       1.0  0.806660672116427  0.8922132210681563  0.4362006386866317  1.0000
  C   C18       1.0  0.8384983404813939  0.7701428422973122  0.4757294878660949  1.0000
  C   C19       1.0  0.9026115024741443  0.7599858468784563  0.5544548079634848  1.0000
  C   C20       1.0  0.9343049633794889  0.8743044835727738  0.5932788794961823  1.0000
  S   S1        1.0  0.7251543632657815  0.9036476065598134  0.33478633201184027  1.0000
  C   C21       1.0  0.7804064661662886  0.9095792151729478  0.187551438639336  1.0000
  O   O1        1.0  0.7985269895039969  0.8034703350472837  0.14093480907438738  1.0000
  C   C22       1.0  0.8051917498849461  0.03459565703782563  0.12168922323300402  1.0000
  C   C23       1.0  0.8583205240618065  0.03445589220037126  0.019401555202508636  1.0000
  C   C24       1.0  0.8824735137750971  0.15167087751911046  0.957323130577791  1.0000
  C   C25       1.0  0.8539042971756268  0.2702468442243997  0.9962442197889358  1.0000
  C   C26       1.0  0.801001638579134  0.2718489848509489  0.09717550647822848  1.0000
  C   C27       1.0  0.7765981998093735  0.15494938235218236  0.15957778376175358  1.0000
  H   H9        1.0  0.023415176788337266  0.1899741777177053  0.702646209192928  1.0000
  H   H10       1.0  0.8127017475470538  0.09903121298022377  0.4448858578007888  1.0000
  H   H11       1.0  0.8131854826468394  0.6836023675014624  0.44433621368656695  1.0000
  H   H12       1.0  0.9838085917036259  0.8673391866623883  0.6538541661559365  1.0000
  H   H13       1.0  0.9271183723832521  0.4288035460009616  0.5840621345057069  1.0000
  H   H14       1.0  0.8815640707434927  0.9438019664192733  0.9877624195041803  1.0000
  H   H15       1.0  0.9234643944303872  0.1505115269109336  0.879022859967117  1.0000
  H   H16       1.0  0.8726888432453965  0.3608792856685141  0.9480935836023301  1.0000
  H   H17       1.0  0.7787429157018722  0.36383980247121084  0.12703951030552285  1.0000
  H   H18       1.0  0.7351673958328225  0.1595177050761274  0.2367521570833584  1.0000
  C   C28       1.0  0.9025920723258891  0.3788538234649119  0.17303332624061074  1.0000
  C   C29       1.0  0.9792873062340943  0.4075873728718171  0.16809763413746714  1.0000
  C   C30       1.0  0.018143476213085652  0.42016826918730366  0.04892444077261193  1.0000
  C   C31       1.0  0.9791557916740751  0.40728360400533514  0.9329562304807948  1.0000
  C   C32       1.0  0.902488612410843  0.3785777229275249  0.9357867672272109  1.0000
  C   C33       1.0  0.8647036632259996  0.36407743631643297  0.0563863782314693  1.0000
  N   N3        1.0  0.09638045545085028  0.4515391422303747  0.04729685603769207  1.0000
  C   C34       1.0  0.14954281078556098  0.40918018328936356  0.95229884956639  1.0000
  O   O2        1.0  0.13582225310555596  0.31129553328200044  0.8909368681211194  1.0000
  C   C35       1.0  0.22168486272385013  0.4760744904178613  0.9288980851352706  1.0000
  C   C36       1.0  0.23077209016482958  0.6036836163980186  0.9651339039887383  1.0000
  C   C37       1.0  0.29893804920303957  0.6659942541030266  0.941950764813277  1.0000
  C   C38       1.0  0.3585632520029056  0.6021572172173097  0.882093535972535  1.0000
  C   C39       1.0  0.35008589960299097  0.47596523694021076  0.8448429721701203  1.0000
  C   C40       1.0  0.2820479465667125  0.4131916124092838  0.8676950983820375  1.0000
  H   H19       1.0  0.7577462938381793  0.3258667842594043  0.38951678650657207  1.0000
  H   H20       1.0  0.009389257356259284  0.4193773661997331  0.25707781475556013  1.0000
  H   H21       1.0  0.008256566366932283  0.421865120144467  0.8404178577546175  1.0000
  H   H22       1.0  0.805582653919887  0.3419100481754169  0.05932709152296245  1.0000
  H   H23       1.0  0.8728368447274958  0.3692579402995315  0.6092970806444185  1.0000
  H   H24       1.0  0.11689217727089818  0.49775997709304787  0.12592407921328608  1.0000
  H   H25       1.0  0.18513400432870175  0.6563687641613061  0.009583614516915473  1.0000
  H   H26       1.0  0.30541909228856645  0.7641432273937703  0.9699833228037531  1.0000
  H   H27       1.0  0.41124947601070483  0.6506272620284692  0.8642089070164394  1.0000
  H   H28       1.0  0.3962799258230558  0.4266702460278158  0.7981885320294126  1.0000
  H   H29       1.0  0.276854261065427  0.3152042211135342  0.8382686362364571  1.0000
  Zn  Zn1       1.0  0.8202217636205452  0.3826169702093025  0.5556200557875415  1.0000
  Zn  Zn2       1.0  0.9848517055045585  0.3748143085578657  0.5531995545944897  1.0000
  C   C41       1.0  0.9025055081170967  0.3734575989199751  0.7916094587798406  1.0000
  C   C42       1.0  0.9025697590502526  0.3839752328124908  0.31721025283164717  1.0000
  C   C43       1.0  0.9025814158262  0.6158515803928042  0.5492626502213855  1.0000
  C   C44       1.0  0.9024937948639806  0.14157969405857118  0.5595571312730907  1.0000
  O   O3        1.0  0.9650384744229706  0.3827272907945136  0.3646787782153411  1.0000
  O   O4        1.0  0.964987109224739  0.36878252193977556  0.7423034550286038  1.0000
  O   O5        1.0  0.9650475632674883  0.564518766897214  0.546606705015066  1.0000
  O   O6        1.0  0.9649779642181184  0.18699105782277625  0.5603754316792595  1.0000
  O   O7        1.0  0.8400954487268669  0.5704402236084731  0.5484441795219392  1.0000
  O   O8        1.0  0.8400349949811684  0.37470553859620614  0.7441408604716557  1.0000
  O   O9        1.0  0.8400863604327617  0.3886502627689232  0.366514622219688  1.0000
  O   O10       1.0  0.8400258502098942  0.19291402047556572  0.5622113730523939  1.0000
