data_image0
_chemical_formula_structural       NC12NC2H8C6NCOC6H11C7OC3FC3H9Zn2C4O8
_chemical_formula_sum              "N3 C44 H28 O10 F1 Zn2"
_cell_length_a       19.240039667572717
_cell_length_b       10.29965916528486
_cell_length_c       10.29938172300155
_cell_angle_alpha    85.59399439143571
_cell_angle_beta     89.98344622294188
_cell_angle_gamma    90.0154664442568

_space_group_name_H-M_alt    "P 1"
_space_group_IT_number       1

loop_
  _space_group_symop_operation_xyz
  'x, y, z'

loop_
  _atom_site_type_symbol
  _atom_site_label
  _atom_site_symmetry_multiplicity
  _atom_site_fract_x
  _atom_site_fract_y
  _atom_site_fract_z
  _atom_site_occupancy
  N   N1        1.0  0.6549039242153148  0.4208757307176787  0.5679619053830147  1.0000
  C   C1        1.0  0.5947555554228338  0.4208758146760949  0.5679618234762795  1.0000
  C   C2        1.0  0.5199375183198424  0.4208759319240487  0.567961686213869  1.0000
  C   C3        1.0  0.4834385032623283  0.3564385079407637  0.6713503175117137  1.0000
  C   C4        1.0  0.4107677257643948  0.3563276512647404  0.6714368198683447  1.0000
  C   C5        1.0  0.3736052834310854  0.420876024428952  0.5679614585660413  1.0000
  C   C6        1.0  0.4108185194819205  0.48542458462506977  0.4644862918704127  1.0000
  C   C7        1.0  0.4834891784947513  0.4853134924861293  0.4645729166430703  1.0000
  C   C8        1.0  0.2964001929948487  0.42087594574515275  0.5679613631227327  1.0000
  C   C9        1.0  0.2591895497358935  0.3076283770031454  0.6097913155227577  1.0000
  C   C10       1.0  0.18651889091382326  0.30773525152519077  0.6097000287706906  1.0000
  C   C11       1.0  0.150067906043575  0.42087581659070494  0.5679614239864592  1.0000
  C   C12       1.0  0.0752498688337452  0.4208757029138499  0.5679616726055119  1.0000
  N   N2        1.0  0.0151015519435237  0.4208756621444034  0.5679618810094189  1.0000
  C   C13       1.0  0.1865644320490706  0.5340164574686459  0.5262227663388703  1.0000
  C   C14       1.0  0.2592351578801734  0.5341235120661285  0.526131317057456  1.0000
  H   H1        1.0  0.5111336757661649  0.3065498255283394  0.7520733751729831  1.0000
  H   H2        1.0  0.38365466834630435  0.30723732061359454  0.7532756663574294  1.0000
  H   H3        1.0  0.3837450461236523  0.5345149423150708  0.3826473945427977  1.0000
  H   H4        1.0  0.5112237773968712  0.5352020747086319  0.383850134740201  1.0000
  H   H5        1.0  0.28626512709088314  0.21848292607889186  0.6409268243834578  1.0000
  H   H6        1.0  0.15878632127973039  0.2194892240277171  0.6418688229909264  1.0000
  H   H7        1.0  0.1588671782295795  0.622262460433521  0.4940539866602105  1.0000
  H   H8        1.0  0.286346059360753  0.6232690421538163  0.4949957634537989  1.0000
  C   C15       1.0  0.8349449582479754  0.039514990444235565  0.5678463998495968  1.0000
  C   C16       1.0  0.8354384316993727  0.048760561300550176  0.43103284501400885  1.0000
  C   C17       1.0  0.8367118942243624  0.9365822024146208  0.3621984762316308  1.0000
  C   C18       1.0  0.8355693379430156  0.8135703451109028  0.4313292240124802  1.0000
  C   C19       1.0  0.8350671770557301  0.8022264018394366  0.5680885562124733  1.0000
  C   C20       1.0  0.8350023906532388  0.9158063853261191  0.6355752196243041  1.0000
  N   N3        1.0  0.8361487112461841  0.9496187844384469  0.22213484127453675  1.0000
  C   C21       1.0  0.8687402402453461  0.8584693055232263  0.14241014659454687  1.0000
  O   O1        1.0  0.9166792668490228  0.7856627880362972  0.1893873417827434  1.0000
  C   C22       1.0  0.8485596247879769  0.8522369552579255  0.004046394370677664  1.0000
  C   C23       1.0  0.7842990843998247  0.9020822927237314  0.9577014675287745  1.0000
  C   C24       1.0  0.7656950734778782  0.8950352274191339  0.8271811830042544  1.0000
  C   C25       1.0  0.8107044031237055  0.8379261810516364  0.7417260949415079  1.0000
  C   C26       1.0  0.874353326481448  0.7872929672341559  0.786694827467354  1.0000
  C   C27       1.0  0.8932226846442944  0.7939836730133746  0.9171106392546755  1.0000
  H   H9        1.0  0.8333507302106082  0.22933873034393626  0.8259206207642993  1.0000
  H   H10       1.0  0.8353667647603495  0.1433559707739096  0.377210834824971  1.0000
  H   H11       1.0  0.833851445690276  0.7267661151790923  0.3785248561595973  1.0000
  H   H12       1.0  0.8346312718163893  0.9078137055349902  0.7410430314747822  1.0000
  H   H13       1.0  0.8339498854596386  0.47042578361657533  0.6205490815800669  1.0000
  H   H14       1.0  0.8163248325661868  0.03573987202224882  0.17619526438725508  1.0000
  H   H15       1.0  0.7478683411406645  0.9447957488201445  0.022182635680868756  1.0000
  H   H16       1.0  0.716168017340336  0.9334595793278555  0.7923960922083118  1.0000
  H   H17       1.0  0.7961649352696135  0.8325428442402473  0.6407704716953417  1.0000
  H   H18       1.0  0.9091398830288508  0.7427832823944023  0.7204499730208727  1.0000
  H   H19       1.0  0.9429241284032365  0.7543726291605078  0.9496770629940823  1.0000
  C   C28       1.0  0.835064567221472  0.4207695757810894  0.18659979035831742  1.0000
  C   C29       1.0  0.8570382211258839  0.29031819093587363  0.1954196076244914  1.0000
  C   C30       1.0  0.8688762700257185  0.2249783401516292  0.08265945304092281  1.0000
  C   C31       1.0  0.856971793061055  0.29061131812725205  0.9601536506916903  1.0000
  C   C32       1.0  0.834947555051459  0.42097181669972206  0.9493352101515464  1.0000
  C   C33       1.0  0.8242965902077956  0.485400557583741  0.06314776457697269  1.0000
  C   C34       1.0  0.8913754093291684  0.0868131580936613  0.09186087323317449  1.0000
  O   O2        1.0  0.8699568546615636  0.013570787661602246  0.007656363054872717  1.0000
  C   C35       1.0  0.9381775701139351  0.03174134841027931  0.19648859422798726  1.0000
  C   C36       1.0  0.9325574293956228  0.8997836186919336  0.24171984384985112  1.0000
  C   C37       1.0  0.9769922137019128  0.8465777421441538  0.3392594122163135  1.0000
  F   F1        1.0  0.9708172103303646  0.7195135713370998  0.38288786662437824  1.0000
  C   C38       1.0  0.02776574111324903  0.9241994827277991  0.3917519750945595  1.0000
  C   C39       1.0  0.03438658609800571  0.0549517928521055  0.34645528414174787  1.0000
  C   C40       1.0  0.9900896909735744  0.10856942998302443  0.24898682235821923  1.0000
  H   H20       1.0  0.7925765249222801  0.6663339551910008  0.37732315611510003  1.0000
  H   H21       1.0  0.8642306271802087  0.2389289346915553  0.29020887909479676  1.0000
  H   H22       1.0  0.8655782558752387  0.24006302800220403  0.8731117926475371  1.0000
  H   H23       1.0  0.8073562141857669  0.5859685534349446  0.05554428721996829  1.0000
  H   H24       1.0  0.8259266415430003  0.4707118472722509  0.6177488429096587  1.0000
  H   H25       1.0  0.8933942491179442  0.8382688123942412  0.2023273712811302  1.0000
  H   H26       1.0  0.06218548090114173  0.8829920241207012  0.4671555688821767  1.0000
  H   H27       1.0  0.07409485230400104  0.11471890283468644  0.386486125667461  1.0000
  H   H28       1.0  0.9969392036972915  0.20952595347214165  0.21375815377405338  1.0000
  Zn  Zn1       1.0  0.7588491863479668  0.42087224578720717  0.5679693856504013  1.0000
  Zn  Zn2       1.0  0.9111563052586542  0.4208685566332635  0.5679649962444584  1.0000
  C   C41       1.0  0.8349673117419101  0.41576004955872903  0.8051602233588855  1.0000
  C   C42       1.0  0.8350398432967577  0.42598239143960903  0.330774286474377  1.0000
  C   C43       1.0  0.8350413003647279  0.6580563655136922  0.5628676470377194  1.0000
  C   C44       1.0  0.8349658024415016  0.18368451523523732  0.5730669315400267  1.0000
  O   O3        1.0  0.8928313026851967  0.42772479435998223  0.37915889686556126  1.0000
  O   O4        1.0  0.8927734313601795  0.41401386685529507  0.7567719073542325  1.0000
  O   O5        1.0  0.8928323987333155  0.6096712066210566  0.5611189381659321  1.0000
  O   O6        1.0  0.892772283356382  0.2320674638596787  0.5748117686839516  1.0000
  O   O7        1.0  0.7772331562752955  0.609673338563463  0.5611226132055753  1.0000
  O   O8        1.0  0.777174189159654  0.414017559049781  0.7567755136440593  1.0000
  O   O9        1.0  0.7772320607631306  0.4277284408853963  0.3791609417453077  1.0000
  O   O10       1.0  0.7771730414150511  0.23207110112230556  0.5748139109282755  1.0000
