data_image0
_chemical_formula_structural       NC10NC5H10C7OC3NC3H11C7OC6OCH12Zn2C4O8
_chemical_formula_sum              "N3 C46 H33 O11 Zn2"
_cell_length_a       19.4436361288709
_cell_length_b       10.298746005989749
_cell_length_c       10.299362532796529
_cell_angle_alpha    85.58216748152913
_cell_angle_beta     89.71996928525027
_cell_angle_gamma    89.42734808848358

_space_group_name_H-M_alt    "P 1"
_space_group_IT_number       1

loop_
  _space_group_symop_operation_xyz
  'x, y, z'

loop_
  _atom_site_type_symbol
  _atom_site_label
  _atom_site_symmetry_multiplicity
  _atom_site_fract_x
  _atom_site_fract_y
  _atom_site_fract_z
  _atom_site_occupancy
  N   N1        1.0  0.6475622414877872  0.408989285890212  0.5622235412159098  1.0000
  C   C1        1.0  0.5887300100500719  0.41889380205758475  0.5766083182296982  1.0000
  C   C2        1.0  0.5154053561582969  0.4312460682061503  0.5946016356053685  1.0000
  C   C3        1.0  0.47319998522551904  0.39923461822853823  0.499925519869578  1.0000
  C   C4        1.0  0.3972972333237052  0.4096744216659307  0.5052544885146559  1.0000
  C   C5        1.0  0.357577158980957  0.38493804521173836  0.6123242757861351  1.0000
  C   C6        1.0  0.2814543641477871  0.3888533439715167  0.5993652975416586  1.0000
  C   C7        1.0  0.2409147403635444  0.4465311496624689  0.6931406148570751  1.0000
  C   C8        1.0  0.1692495514419147  0.45016786534927  0.6825970797990568  1.0000
  C   C9        1.0  0.1371292549538291  0.3957307681672191  0.5785647180601299  1.0000
  C   C10       1.0  0.06333479562082421  0.3994287124541904  0.5678659070611876  1.0000
  N   N2        1.0  0.004009055510103401  0.40240166563503  0.5592647723411148  1.0000
  C   C11       1.0  0.1769440057580044  0.3373458633424449  0.4851725719458273  1.0000
  C   C12       1.0  0.2486255694930048  0.3336548875521541  0.4954643259319844  1.0000
  C   C13       1.0  0.3857325651267555  0.34449054788452194  0.743414775050762  1.0000
  C   C14       1.0  0.4444090091867085  0.38762184293410673  0.7906608492275393  1.0000
  C   C15       1.0  0.4886097298054858  0.4854785278990388  0.7163023415736438  1.0000
  H   H1        1.0  0.495278795226977  0.37010380578498214  0.4096165451107663  1.0000
  H   H2        1.0  0.3725822538119659  0.432159155362672  0.4120985258816998  1.0000
  H   H3        1.0  0.26480468565452975  0.48983569669911353  0.7739923849537604  1.0000
  H   H4        1.0  0.1389228308263694  0.49549530277233256  0.7555215972898814  1.0000
  H   H5        1.0  0.1525822599374487  0.2942370316260938  0.4046553005188336  1.0000
  H   H6        1.0  0.278286627941243  0.2860839685378407  0.4232359412894662  1.0000
  H   H7        1.0  0.3547745290540665  0.28027641842497864  0.8076557582116168  1.0000
  H   H8        1.0  0.4595754868829645  0.35356421525151216  0.8885918599081266  1.0000
  H   H9        1.0  0.4585031577522263  0.5761968858199589  0.6910585137987177  1.0000
  H   H10       1.0  0.5319093636513783  0.5110745155278249  0.7793892896679588  1.0000
  C   C16       1.0  0.8257560682751471  0.024293939448495117  0.5607272570003992  1.0000
  C   C17       1.0  0.8579131966474799  0.03216896922437629  0.4379577133478416  1.0000
  C   C18       1.0  0.8734500546901671  0.9190407552375481  0.37519650681479333  1.0000
  C   C19       1.0  0.8579137054101617  0.7969323445822715  0.43790857268561734  1.0000
  C   C20       1.0  0.825821796671097  0.7870869307003977  0.5607722654127567  1.0000
  C   C21       1.0  0.809781033338099  0.9013324729714223  0.6212489034344697  1.0000
  C   C22       1.0  0.9079923582430733  0.9271545708695801  0.2460959868302801  1.0000
  O   O1        1.0  0.9499831292811877  0.838392967277173  0.22053552187859315  1.0000
  C   C23       1.0  0.894900240554184  0.035904030680341315  0.14600030805452824  1.0000
  C   C24       1.0  0.8297722180218313  0.09649612956347098  0.13443362416636706  1.0000
  C   C25       1.0  0.8177065250278526  0.19836128470129455  0.03862826612752368  1.0000
  N   N3        1.0  0.751477631540336  0.25981619572514925  0.02797408416142866  1.0000
  C   C26       1.0  0.8708112088029257  0.23924072464080792  0.9530544505550949  1.0000
  C   C27       1.0  0.9353111592395239  0.1784949103546789  0.9627703015488578  1.0000
  C   C28       1.0  0.9473233109705793  0.07705512723305152  0.05827190022909168  1.0000
  H   H11       1.0  0.7659488455038308  0.2166918162529805  0.7935561226145125  1.0000
  H   H12       1.0  0.8715842274616253  0.12641919059154394  0.3916230695749945  1.0000
  H   H13       1.0  0.8703113422811817  0.7094972785021099  0.3901084368644514  1.0000
  H   H14       1.0  0.7849970839042806  0.8945101080540452  0.7158838560602043  1.0000
  H   H15       1.0  0.7654429365511008  0.5611612483684207  0.793117356919395  1.0000
  H   H16       1.0  0.7881298328945698  0.06388090081955133  0.1987410208541811  1.0000
  H   H17       1.0  0.7115245126594609  0.23011948809756033  0.09125601120724869  1.0000
  H   H18       1.0  0.7419260973069035  0.33558662856701993  0.9568159572559258  1.0000
  H   H19       1.0  0.8621329861932964  0.31773023171835413  0.8786403763098916  1.0000
  H   H20       1.0  0.9761105083447583  0.2100894103104003  0.8961376248885116  1.0000
  H   H21       1.0  0.9977674533341199  0.0314828861455434  0.06438064724026815  1.0000
  C   C29       1.0  0.8257352504658656  0.40557087282339044  0.17938332723158212  1.0000
  C   C30       1.0  0.7604421331793283  0.34809201742136975  0.18320944969470276  1.0000
  C   C31       1.0  0.7272137374815976  0.32043021733228616  0.06797026451493648  1.0000
  C   C32       1.0  0.7606358352768944  0.3482520091464063  0.9479535517640896  1.0000
  C   C33       1.0  0.825842634522418  0.4058099628578957  0.9421162253642508  1.0000
  C   C34       1.0  0.8579596320321029  0.43439397749550746  0.0583735358837425  1.0000
  C   C35       1.0  0.6586154904313558  0.25839500236346025  0.07433870090487926  1.0000
  O   O2        1.0  0.6445566163718809  0.1794415646412464  0.1703472285091885  1.0000
  C   C36       1.0  0.605969050112419  0.2859214355015198  0.97186247423602  1.0000
  C   C37       1.0  0.6006905955106292  0.40940192924356555  0.9040602612717072  1.0000
  C   C38       1.0  0.5503499715865516  0.43451393263630944  0.8087839759753486  1.0000
  C   C39       1.0  0.5040758617393355  0.33769661936738404  0.7801134341212048  1.0000
  C   C40       1.0  0.508631019606849  0.2144230639117335  0.8488398784702249  1.0000
  C   C41       1.0  0.5589654690193184  0.18918396480750688  0.9441886124285084  1.0000
  O   O3        1.0  0.45456652131403696  0.3677736596382428  0.6835415845299981  1.0000
  C   C42       1.0  0.4044111896579435  0.2789317906575277  0.6445799224155451  1.0000
  H   H22       1.0  0.9490606867926088  0.513539815535528  0.37947054831979377  1.0000
  H   H23       1.0  0.7349745769324881  0.3258198399522376  0.2759535676237552  1.0000
  H   H24       1.0  0.7360468907972276  0.3236242627312489  0.8591020833597307  1.0000
  H   H25       1.0  0.9082621014091635  0.4787915626957284  0.05460324547787354  1.0000
  H   H26       1.0  0.8509726849797691  0.4274054053970169  0.6124397517751281  1.0000
  H   H27       1.0  0.6349793149731952  0.48702553525425896  0.9256045258313286  1.0000
  H   H28       1.0  0.5470811530393637  0.5300417650692073  0.7572531768670339  1.0000
  H   H29       1.0  0.473552311842825  0.13749990408632629  0.8293989879949373  1.0000
  H   H30       1.0  0.561566033041932  0.09348659896387645  0.9956117554252324  1.0000
  H   H31       1.0  0.3721091771468824  0.32822794727929216  0.5667675600839619  1.0000
  H   H32       1.0  0.3708231885610391  0.24733682214042463  0.7284064711317102  1.0000
  H   H33       1.0  0.43004275351650895  0.19313095194536256  0.6057062398918815  1.0000
  Zn  Zn1       1.0  0.7504250943649224  0.40708477167405044  0.5613772163171742  1.0000
  Zn  Zn2       1.0  0.9011461947375065  0.40429557461074395  0.5601217777242422  1.0000
  C   C43       1.0  0.8258203469803783  0.4005906888436608  0.7979430695499421  1.0000
  C   C44       1.0  0.8257525881509541  0.4107912657826396  0.3235560383444729  1.0000
  C   C45       1.0  0.8258051117632746  0.6429012444932656  0.5555886605333056  1.0000
  C   C46       1.0  0.8257677718127483  0.1684791506706953  0.565910516935582  1.0000
  O   O4        1.0  0.8829562784499104  0.41147912537396714  0.3714652844902562  1.0000
  O   O5        1.0  0.8830104842782762  0.39778491329556376  0.7490806006595541  1.0000
  O   O6        1.0  0.8829974107832131  0.5934537661100572  0.5533777071833066  1.0000
  O   O7        1.0  0.8829693005011644  0.21581028277172765  0.5671680810214119  1.0000
  O   O8        1.0  0.7686019371675492  0.5955700644662947  0.5543309134415932  1.0000
  O   O9        1.0  0.7686150107842066  0.399902772067368  0.7500337377649566  1.0000
  O   O10       1.0  0.7685608047778797  0.41359693839562617  0.37241686020204856  1.0000
  O   O11       1.0  0.7685738268392275  0.21792808653436047  0.5681197540998848  1.0000
