data_image0
_chemical_formula_structural       NC10NC5H10C7OC3FC3H9C7OC4NC3H9Zn2C4O8
_chemical_formula_sum              "N3 C46 H28 O10 F1 Zn2"
_cell_length_a       19.4436361288709
_cell_length_b       10.29937835083307
_cell_length_c       10.299375074045738
_cell_angle_alpha    85.53063417163439
_cell_angle_beta     89.69773134605877
_cell_angle_gamma    89.43853249218071

_space_group_name_H-M_alt    "P 1"
_space_group_IT_number       1

loop_
  _space_group_symop_operation_xyz
  'x, y, z'

loop_
  _atom_site_type_symbol
  _atom_site_label
  _atom_site_symmetry_multiplicity
  _atom_site_fract_x
  _atom_site_fract_y
  _atom_site_fract_z
  _atom_site_occupancy
  N   N1        1.0  0.6479993452154704  0.4099092561725055  0.5618448777154603  1.0000
  C   C1        1.0  0.5891652345903312  0.41980344716531515  0.5762283133803945  1.0000
  C   C2        1.0  0.5158382262692145  0.4321427997063101  0.5942199608011405  1.0000
  C   C3        1.0  0.4736486709944942  0.40019775726927476  0.499545582436862  1.0000
  C   C4        1.0  0.39774592646513235  0.4106334194321941  0.5048726070792886  1.0000
  C   C5        1.0  0.3580016339773895  0.38582478842867896  0.6119534539871538  1.0000
  C   C6        1.0  0.2818818660801213  0.38974878934050694  0.5989929402335121  1.0000
  C   C7        1.0  0.2413292757649242  0.4473596063495602  0.692760985900988  1.0000
  C   C8        1.0  0.1696665964679843  0.45100338110820726  0.6822161051049767  1.0000
  C   C9        1.0  0.1375616770625223  0.3966401537499724  0.5781897693614295  1.0000
  C   C10       1.0  0.0637697651107768  0.4003452607103719  0.5674895911662727  1.0000
  N   N2        1.0  0.0044460729310136  0.40332397220337834  0.558887357300156  1.0000
  C   C11       1.0  0.1773892434517077  0.3383220079200393  0.4848050666832171  1.0000
  C   C12       1.0  0.24906834282989201  0.3346241482198673  0.4950981644296273  1.0000
  C   C13       1.0  0.3861263328305312  0.34528930111032285  0.7430596659324917  1.0000
  C   C14       1.0  0.44479770628678855  0.38838618855070184  0.7902990688743934  1.0000
  C   C15       1.0  0.48902362931638926  0.48628928525074344  0.7159156371044308  1.0000
  H   H1        1.0  0.4957427130168182  0.3711302235986169  0.4092379648218991  1.0000
  H   H2        1.0  0.3730521179790811  0.4331809731569678  0.411706816224124  1.0000
  H   H3        1.0  0.2652073739267132  0.4906066967347662  0.7736078595923361  1.0000
  H   H4        1.0  0.1393298416847702  0.4962787025335478  0.7551348664353132  1.0000
  H   H5        1.0  0.1530392974669768  0.2952703943731012  0.4042926678655985  1.0000
  H   H6        1.0  0.2787390615780192  0.28710497269852775  0.42287605298253217  1.0000
  H   H7        1.0  0.3551486357568452  0.2810341254744959  0.8073178372455976  1.0000
  H   H8        1.0  0.45994084497630616  0.35426300745574246  0.8882426387174478  1.0000
  H   H9        1.0  0.458931587733937  0.5770207139853654  0.6906510589285009  1.0000
  H   H10       1.0  0.5323131676900038  0.5118408233399989  0.7790005158765085  1.0000
  C   C16       1.0  0.8261535006958067  0.025232902898378207  0.560430734355343  1.0000
  C   C17       1.0  0.7543938803937748  0.02657250079033724  0.5450005967097216  1.0000
  C   C18       1.0  0.7181128937538698  0.9099613883621599  0.5386962070587014  1.0000
  C   C19       1.0  0.7545620565568995  0.7913253881959793  0.5450060769058658  1.0000
  C   C20       1.0  0.8262984787055822  0.7879902427825892  0.5603127323152504  1.0000
  C   C21       1.0  0.8616578860135892  0.9054720004574489  0.5682786181039565  1.0000
  C   C22       1.0  0.642424760140532  0.9113372466198598  0.5210290777120326  1.0000
  O   O1        1.0  0.6158627948697484  0.8271633687131449  0.4545853482877973  1.0000
  C   C23       1.0  0.5968695917725784  0.008104226642744905  0.57874864958394  1.0000
  C   C24       1.0  0.5356063206116378  0.04925888838240455  0.5154731277810349  1.0000
  C   C25       1.0  0.49191251106612827  0.13930206242571086  0.569899083591241  1.0000
  F   F1        1.0  0.43323153999455827  0.1791006798598569  0.5076635460035972  1.0000
  C   C26       1.0  0.5086454443372972  0.18824375770879942  0.6883708669884485  1.0000
  C   C27       1.0  0.5689212370001402  0.1468545210246297  0.7528692017074963  1.0000
  C   C28       1.0  0.6127572374484751  0.056880171232084775  0.6988467971979067  1.0000
  H   H11       1.0  0.9616925498048188  0.23017817897218618  0.5875520475884088  1.0000
  H   H12       1.0  0.7267205846343018  0.11859860656711785  0.536416658132294  1.0000
  H   H13       1.0  0.7267186864626565  0.7013735448354468  0.5391845036801595  1.0000
  H   H14       1.0  0.916979220563371  0.903635266989887  0.5801733654239116  1.0000
  H   H15       1.0  0.8539211348002863  0.4593364306711649  0.5650961960093115  1.0000
  H   H16       1.0  0.5219085451822968  0.012545791885637758  0.42342410015388765  1.0000
  H   H17       1.0  0.4748027756980086  0.2578407902557156  0.7305325984860132  1.0000
  H   H18       1.0  0.5815556922709886  0.18407434257230282  0.8451406320644155  1.0000
  H   H19       1.0  0.6585908274235415  0.02445091300332547  0.7516211600764697  1.0000
  C   C29       1.0  0.8262494030842362  0.406753488099983  0.17898475343417575  1.0000
  C   C30       1.0  0.8792087321709041  0.4988897241209975  0.1700875817418741  1.0000
  C   C31       1.0  0.9053858273100837  0.5464508289269718  0.04834692961627085  1.0000
  C   C32       1.0  0.8790973288189161  0.4986540371271966  0.9348632262646484  1.0000
  C   C33       1.0  0.8262025670661869  0.40646965767692356  0.9417587417018636  1.0000
  C   C34       1.0  0.7999614010815553  0.3613063902780431  0.06429583246904258  1.0000
  C   C35       1.0  0.9618008953858648  0.6427313168920952  0.038886396149778735  1.0000
  O   O2        1.0  0.005752625021799407  0.6372341125538874  0.94888750583184  1.0000
  C   C36       1.0  0.968345257188839  0.745260005684887  0.13144287699324364  1.0000
  C   C37       1.0  0.03375885675807355  0.790614381284426  0.16264956096457794  1.0000
  C   C38       1.0  0.04044231847946689  0.8885066311534044  0.24879583131018013  1.0000
  C   C39       1.0  0.10761697847162344  0.933619134941351  0.281019044627576  1.0000
  N   N3        1.0  0.1616178362119125  0.9698788883513529  0.3069191173956827  1.0000
  C   C40       1.0  0.9817187926741271  0.9424447191220224  0.30346840291731136  1.0000
  C   C41       1.0  0.9165346999062369  0.8990978339760312  0.2717585533789786  1.0000
  C   C42       1.0  0.9097145014609436  0.80147810560467  0.1858889349859536  1.0000
  H   H20       1.0  0.7270319663727014  0.23140456423059375  0.403203871423333  1.0000
  H   H21       1.0  0.9006878598168482  0.5326955781964045  0.25808737973999163  1.0000
  H   H22       1.0  0.8995766115454935  0.5345129918185247  0.840942597827131  1.0000
  H   H23       1.0  0.7591338564267391  0.2902754109817487  0.07035108114361566  1.0000
  H   H24       1.0  0.8062792523376517  0.37024952815428946  0.6170095367528079  1.0000
  H   H25       1.0  0.07947528832136097  0.7490480341636692  0.12089582019332501  1.0000
  H   H26       1.0  0.9863213494764026  0.01824071150665052  0.3700977879031744  1.0000
  H   H27       1.0  0.8711611159468705  0.9416365840578296  0.3133604809559998  1.0000
  H   H28       1.0  0.8586220880051233  0.7710272320711913  0.16101434616896992  1.0000
  Zn  Zn1       1.0  0.7508621713070562  0.4080054111697209  0.5609989142416716  1.0000
  Zn  Zn2       1.0  0.9015832356825504  0.40521720513821347  0.5597440041008519  1.0000
  C   C43       1.0  0.8262089193307237  0.4013494358655232  0.7975789099680299  1.0000
  C   C44       1.0  0.8262381338318903  0.41187478863073834  0.32316412188987664  1.0000
  C   C45       1.0  0.8262678628320737  0.6438148389181497  0.5551596449491354  1.0000
  C   C46       1.0  0.8261791385991197  0.169407826140906  0.5655834568203013  1.0000
  O   O3        1.0  0.8834322091318967  0.412529768254118  0.3710758040565785  1.0000
  O   O4        1.0  0.8834086442803863  0.39857729275770315  0.7487144063289306  1.0000
  O   O5        1.0  0.8834554707657974  0.5943711858775087  0.5529591408806553  1.0000
  O   O6        1.0  0.8833853312233384  0.21673588541255762  0.5668309725523522  1.0000
  O   O7        1.0  0.7690600243325668  0.5964867318482716  0.553911946211578  1.0000
  O   O8        1.0  0.7690131981448751  0.40069439911856586  0.7496671421697316  1.0000
  O   O9        1.0  0.7690367631293588  0.4146468299375048  0.37202697842936394  1.0000
  O   O10       1.0  0.7689898852102462  0.21885293777059323  0.5677822442990472  1.0000
