data_image0
_chemical_formula_structural       NC9NC5H8C6SCOC6H10C7OC6OCH12Zn2C4O8
_chemical_formula_sum              "N2 C45 H30 S1 O11 Zn2"
_cell_length_a       17.807436237873137
_cell_length_b       10.302038109246572
_cell_length_c       10.299362532796529
_cell_angle_alpha    85.5856087193975
_cell_angle_beta     89.40785739381339
_cell_angle_gamma    88.4085403614985

_space_group_name_H-M_alt    "P 1"
_space_group_IT_number       1

loop_
  _space_group_symop_operation_xyz
  'x, y, z'

loop_
  _atom_site_type_symbol
  _atom_site_label
  _atom_site_symmetry_multiplicity
  _atom_site_fract_x
  _atom_site_fract_y
  _atom_site_fract_z
  _atom_site_occupancy
  N   N1        1.0  0.707448911242666  0.3869754729195687  0.5573019485168889  1.0000
  C   C1        1.0  0.6468531336066355  0.3517911300487979  0.5462739552619751  1.0000
  C   C2        1.0  0.5714786462657183  0.3080256822149299  0.5325563290660418  1.0000
  C   C3        1.0  0.553357837037466  0.23659656776393567  0.4275457253664481  1.0000
  C   C4        1.0  0.4801730659154611  0.19399219680291013  0.4141441534840886  1.0000
  C   C5        1.0  0.4240603101785997  0.22243949433815824  0.505720689395605  1.0000
  C   C6        1.0  0.346283798182611  0.1772769335702824  0.49156037649010287  1.0000
  C   C7        1.0  0.2841266578187787  0.25902069206881784  0.5175087557770468  1.0000
  C   C8        1.0  0.2107995460860886  0.2162133374436488  0.5041208410203444  1.0000
  C   C9        1.0  0.1475928733969382  0.30064789135891656  0.530433437888596  1.0000
  N   N2        1.0  0.0967876956474612  0.368527431517766  0.5515880385996885  1.0000
  C   C10       1.0  0.1990459778950112  0.09140430060211835  0.4647591670018347  1.0000
  C   C11       1.0  0.260345744569587  0.009646690701512028  0.4388023964375487  1.0000
  C   C12       1.0  0.3335533197452657  0.05205954078424013  0.4519877275961155  1.0000
  C   C13       1.0  0.4428726496154454  0.29436291899367406  0.6109505795978529  1.0000
  C   C14       1.0  0.5161102327473435  0.33677689566698277  0.6241964792537427  1.0000
  H   H1        1.0  0.5957375830617019  0.21409523227514882  0.35583076245546263  1.0000
  H   H2        1.0  0.4672378076344427  0.14029815335815954  0.3312178861476589  1.0000
  H   H3        1.0  0.2926467120533561  0.356470149118592  0.5463970797309843  1.0000
  H   H4        1.0  0.142572986443893  0.057373485414517145  0.4541603463556094  1.0000
  H   H5        1.0  0.2511273146625263  0.9130167668679228  0.40871376503530277  1.0000
  H   H6        1.0  0.380178981801442  0.9863250460706147  0.4329317123387859  1.0000
  H   H7        1.0  0.4012098817129477  0.316325730219561  0.6839599695376102  1.0000
  H   H8        1.0  0.5295739085236879  0.39169090723599553  0.7060812697837444  1.0000
  C   C15       1.0  0.9020507324466219  0.9964762183082325  0.5544058482342764  1.0000
  C   C16       1.0  0.837815499120004  0.004264662586777268  0.4758297713005881  1.0000
  C   C17       1.0  0.8062080149210549  0.8911644674237682  0.4362444786020345  1.0000
  C   C18       1.0  0.838057125302465  0.7691205984633648  0.47577221962053584  1.0000
  C   C19       1.0  0.9021930751179258  0.7590163997576936  0.5544953327139717  1.0000
  C   C20       1.0  0.9338977740348512  0.8733610736071076  0.5933183158436086  1.0000
  S   S1        1.0  0.7246723506960783  0.9025308399552273  0.3348330149995291  1.0000
  C   C21       1.0  0.7798818350001442  0.9083637062777425  0.18760224924430635  1.0000
  O   O1        1.0  0.7979888646932591  0.8022235629597824  0.14098692654080547  1.0000
  C   C22       1.0  0.8046480542489954  0.03333597800152455  0.12174188023465682  1.0000
  C   C23       1.0  0.8577472202484404  0.03312761448876911  0.01945707976046318  1.0000
  C   C24       1.0  0.8818822407475985  0.1503009672453819  0.9573803954567555  1.0000
  C   C25       1.0  0.8533242902424361  0.26890303617015254  0.9963003935450239  1.0000
  C   C26       1.0  0.8004508472053611  0.2705728658221398  0.09722885070312426  1.0000
  C   C27       1.0  0.7760654713920889  0.1537151130755463  0.15962937858667825  1.0000
  H   H9        1.0  0.023039644899221168  0.18910411436442032  0.7026825795111691  1.0000
  H   H10       1.0  0.8122516043742748  0.09798828403139681  0.44492945423273644  1.0000
  H   H11       1.0  0.8127351803741341  0.6825590699367619  0.44437982552736544  1.0000
  H   H12       1.0  0.9834189364749668  0.8664364011874436  0.6538919043216724  1.0000
  H   H13       1.0  0.9267085151605983  0.4278539548747593  0.5841018292375082  1.0000
  H   H14       1.0  0.8809816086693014  0.9424524700912106  0.9878188310410319  1.0000
  H   H15       1.0  0.9228504566149572  0.14908910498117578  0.8790823199340982  1.0000
  H   H16       1.0  0.8720948986342204  0.359503185648667  0.9481511072245632  1.0000
  H   H17       1.0  0.7782007687594436  0.3625837115762047  0.12709201731598174  1.0000
  H   H18       1.0  0.734657006301361  0.15833519237854898  0.2368015883839325  1.0000
  C   C28       1.0  0.9020632387484872  0.37762857807558614  0.17308454384972505  1.0000
  C   C29       1.0  0.8307396218360396  0.3223415645926748  0.17741188993478474  1.0000
  C   C30       1.0  0.7944423845752104  0.2957946949750474  0.062427876718506914  1.0000
  C   C31       1.0  0.8309512133671454  0.3224950573397476  0.9421545044267217  1.0000
  C   C32       1.0  0.902180554204304  0.37786401581267914  0.9358166261642356  1.0000
  C   C33       1.0  0.937263919766665  0.405369784366582  0.05182740836727895  1.0000
  C   C34       1.0  0.7195082225028641  0.23606281374300142  0.06932281158279174  1.0000
  O   O2        1.0  0.7041447105788217  0.15760319562754344  0.16543533968589874  1.0000
  C   C35       1.0  0.6620061636600589  0.2653322788671433  0.9672550786068674  1.0000
  C   C36       1.0  0.6562520328365462  0.388947870957411  0.899500934922306  1.0000
  C   C37       1.0  0.6012683457264795  0.41572696192174874  0.804615180830361  1.0000
  C   C38       1.0  0.5507151555952401  0.3204814616747853  0.7762965586355302  1.0000
  C   C39       1.0  0.5556792636843048  0.1970968112267819  0.8449805358116818  1.0000
  C   C40       1.0  0.6106561947560487  0.1701908717955476  0.9399387787961766  1.0000
  O   O3        1.0  0.49663992099555304  0.35219629313371925  0.6801091083069233  1.0000
  C   C41       1.0  0.4418480908746661  0.2650527841042225  0.6415298313269031  1.0000
  H   H19       1.0  0.03677900878267293  0.48145777272712365  0.3722250201526085  1.0000
  H   H20       1.0  0.8029198850689777  0.30092426581644527  0.270351518638555  1.0000
  H   H21       1.0  0.8040909480708645  0.2986937232918099  0.8534916177607226  1.0000
  H   H22       1.0  0.992212356916267  0.44807871478965233  0.047670977072809206  1.0000
  H   H23       1.0  0.9296315779138221  0.39861603420260905  0.60594721030182  1.0000
  H   H24       1.0  0.6937120579818344  0.46540484420460615  0.9207847766351298  1.0000
  H   H25       1.0  0.5977067143087837  0.5113321956265291  0.7531152728186283  1.0000
  H   H26       1.0  0.5173564156232429  0.12136634487948372  0.8258062147850991  1.0000
  H   H27       1.0  0.6134878900903987  0.07443839991665135  0.991336185234541  1.0000
  H   H28       1.0  0.4065698365303706  0.31540775701736434  0.563970015808688  1.0000
  H   H29       1.0  0.4051577005917845  0.23458600596137513  0.7256140994360809  1.0000
  H   H30       1.0  0.4698369794720622  0.17842711531025746  0.6024530029493107  1.0000
  Zn  Zn1       1.0  0.8198036735568367  0.3816483045557362  0.5556605478711998  1.0000
  Zn  Zn2       1.0  0.9844329148028342  0.3738440196081716  0.5532401145350423  1.0000
  C   C42       1.0  0.902155727520663  0.3726471982923114  0.791643335081629  1.0000
  C   C43       1.0  0.9020826589105556  0.38284667890478263  0.3172574285512322  1.0000
  C   C44       1.0  0.9021614855485581  0.6148786511793327  0.5493033205300317  1.0000
  C   C45       1.0  0.9020768444257198  0.14061366878353754  0.5595975129838584  1.0000
  O   O4        1.0  0.9645651145175391  0.38163057139845824  0.3647246231912322  1.0000
  O   O5        1.0  0.9646230565177487  0.36793905450545905  0.7423387135863813  1.0000
  O   O6        1.0  0.9646268642002319  0.563544056488352  0.5466474497810985  1.0000
  O   O7        1.0  0.9645612506450053  0.18602558133651592  0.5604157904496025  1.0000
  O   O8        1.0  0.8396752815347843  0.5694667454920221  0.5484848727757836  1.0000
  O   O9        1.0  0.8396714741293605  0.37386330340798346  0.7441760675191815  1.0000
  O   O10       1.0  0.8396135319305386  0.3875547745717911  0.36656041572910136  1.0000
  O   O11       1.0  0.839609668068174  0.19194977525352863  0.5622516803535291  1.0000
