data_image0
_chemical_formula_structural       NC12NC2H8C7OC3OC4H12C7OC3OC4H12Zn2C4O8
_chemical_formula_sum              "N2 C46 H32 O12 Zn2"
_cell_length_a       19.240039667572717
_cell_length_b       10.299371110280156
_cell_length_c       10.299374482448636
_cell_angle_alpha    85.56563777426875
_cell_angle_beta     89.98179719486372
_cell_angle_gamma    90.01145957794125

_space_group_name_H-M_alt    "P 1"
_space_group_IT_number       1

loop_
  _space_group_symop_operation_xyz
  'x, y, z'

loop_
  _atom_site_type_symbol
  _atom_site_label
  _atom_site_symmetry_multiplicity
  _atom_site_fract_x
  _atom_site_fract_y
  _atom_site_fract_z
  _atom_site_occupancy
  N   N1        1.0  0.6548728797266182  0.42162395336719727  0.5679037815583448  1.0000
  C   C1        1.0  0.594724510932261  0.4216240373684843  0.5679036996482805  1.0000
  C   C2        1.0  0.5199064738270028  0.4216241546876238  0.5679035623803321  1.0000
  C   C3        1.0  0.4834082720556166  0.3571337828382688  0.6712963225401063  1.0000
  C   C4        1.0  0.4107374973699104  0.35702288026278906  0.6713828284519963  1.0000
  C   C5        1.0  0.3735742389383038  0.4216242473077243  0.567903334723501  1.0000
  C   C6        1.0  0.4107866588808298  0.4862258012935634  0.46442403560890644  1.0000
  C   C7        1.0  0.4834573207128097  0.48611466318800334  0.4645106639419936  1.0000
  C   C8        1.0  0.29636914850648877  0.42162416866892327  0.5679032392766254  1.0000
  C   C9        1.0  0.2591620978928973  0.3083527291026844  0.6097350164225397  1.0000
  C   C10       1.0  0.186491436481674  0.30845965177878254  0.6096437259364693  1.0000
  C   C11       1.0  0.1500368615591089  0.4216240394807429  0.5679033001429437  1.0000
  C   C12       1.0  0.0752188243496895  0.42162392567772344  0.5679035487718522  1.0000
  N   N2        1.0  0.015070507457771097  0.42162388480405144  0.5679037571839243  1.0000
  C   C13       1.0  0.186529797510267  0.5347885030234067  0.5261628214838738  1.0000
  C   C14       1.0  0.25920052074798894  0.5348956058603902  0.5260713684618255  1.0000
  H   H1        1.0  0.5111040637410809  0.307203772021049  0.7520226031582615  1.0000
  H   H2        1.0  0.3836250119889512  0.30789069174183403  0.7532249398142941  1.0000
  H   H3        1.0  0.3837126134852045  0.5353580168792782  0.382581873406056  1.0000
  H   H4        1.0  0.5111913004327877  0.5360445736760922  0.3837846590931244  1.0000
  H   H5        1.0  0.2862405309960019  0.21918937401615413  0.6408718920898957  1.0000
  H   H6        1.0  0.1587616729434412  0.2201952343007052  0.6418139254970292  1.0000
  H   H7        1.0  0.1588297375956094  0.623052895961004  0.4939926364654976  1.0000
  H   H8        1.0  0.2863085664781821  0.624059040134709  0.49493444804963516  1.0000
  C   C15       1.0  0.8349281923642679  0.040252558341608236  0.5677889463238426  1.0000
  C   C16       1.0  0.8269432477077052  0.04957386837258326  0.4318009555388498  1.0000
  C   C17       1.0  0.8221307516776354  0.937088318525229  0.36338056871357716  1.0000
  C   C18       1.0  0.826977693488129  0.8143059100238083  0.43211204811011505  1.0000
  C   C19       1.0  0.8350218724309513  0.8029853192807256  0.5680298036756357  1.0000
  C   C20       1.0  0.8387686000433814  0.9165559623248845  0.6351194594327361  1.0000
  C   C21       1.0  0.8144240561172643  0.9468029791252064  0.219630497746639  1.0000
  O   O1        1.0  0.8429254927469326  0.861780211401848  0.15560619211018434  1.0000
  C   C22       1.0  0.774376183091316  0.05288986722918265  0.14851815843893545  1.0000
  C   C23       1.0  0.7938247969543348  0.09808168517981808  0.021372901913713216  1.0000
  C   C24       1.0  0.756243247856968  0.19711231690333775  0.9519906376688647  1.0000
  O   O2        1.0  0.7784546576067919  0.23895123041588895  0.825890113409844  1.0000
  C   C25       1.0  0.7453386965091934  0.3384566981458492  0.7444534032204451  1.0000
  C   C26       1.0  0.6979305636666652  0.25095649887164395  0.010479977664851203  1.0000
  C   C27       1.0  0.6777686520682794  0.2054752221436924  0.13610814317426767  1.0000
  C   C28       1.0  0.7154736685640658  0.10672607923546629  0.20473821383620505  1.0000
  H   H9        1.0  0.8510572656667476  0.2300017791200295  0.8241873463379081  1.0000
  H   H10       1.0  0.82523128247968  0.14452157961195367  0.37877011417153095  1.0000
  H   H11       1.0  0.8237910811640264  0.7274587614973979  0.3793884818156774  1.0000
  H   H12       1.0  0.8449248546395591  0.9085661140570392  0.7399562361765895  1.0000
  H   H13       1.0  0.8386902207575219  0.47118919110198704  0.6201177736864179  1.0000
  H   H14       1.0  0.838770240362814  0.05719700705551589  0.9759990896768445  1.0000
  H   H15       1.0  0.773706692494475  0.351571365998969  0.6505805214708396  1.0000
  H   H16       1.0  0.7463546759606161  0.4319016199084902  0.7914734599337643  1.0000
  H   H17       1.0  0.6908740737123313  0.31022832530124167  0.7246887740122561  1.0000
  H   H18       1.0  0.6677498124977437  0.327468476801158  0.9595904344863473  1.0000
  H   H19       1.0  0.6325607369531944  0.2465216109424364  0.18026019734789522  1.0000
  H   H20       1.0  0.6981193038190249  0.07155369276900658  0.3011189382693338  1.0000
  C   C29       1.0  0.8350394249202346  0.42170642413358506  0.18652685745299036  1.0000
  C   C30       1.0  0.9076388469235573  0.4363708155452861  0.18416010202714195  1.0000
  C   C31       1.0  0.944168371524496  0.44523852398989106  0.06567905299789278  1.0000
  C   C32       1.0  0.9074727085662926  0.43630694444764995  0.9489212311370925  1.0000
  C   C33       1.0  0.8349106233618369  0.42153143015623207  0.9492918296298822  1.0000
  C   C34       1.0  0.799094217139101  0.4146576961791213  0.06860098292739969  1.0000
  C   C35       1.0  0.02090974977078064  0.4593645854371098  0.06314448773606274  1.0000
  O   O3        1.0  0.055001701747585896  0.4058222777129463  0.9772804444311958  1.0000
  C   C36       1.0  0.0589725873699356  0.5342463388148317  0.15793594882051676  1.0000
  C   C37       1.0  0.1267773837546955  0.4975283057703521  0.19608862559376283  1.0000
  C   C38       1.0  0.16391015235575557  0.5677927075558513  0.2843141446617663  1.0000
  O   O4        1.0  0.23114982836467135  0.5259002926832592  0.31959414307157896  1.0000
  C   C39       1.0  0.2747037888116879  0.5877712862395665  0.4080059985879634  1.0000
  C   C40       1.0  0.13285397787010322  0.6771798618012681  0.33426334517389833  1.0000
  C   C41       1.0  0.06586082288856265  0.7152311142215686  0.2956005349685058  1.0000
  C   C42       1.0  0.029129173245626694  0.6447337020257349  0.2076159748088997  1.0000
  H   H21       1.0  0.6981539504215438  0.39204537590111244  0.39846851468251354  1.0000
  H   H22       1.0  0.9359464509711122  0.43946281208779636  0.2747523539753598  1.0000
  H   H23       1.0  0.9356203223577833  0.4421625488737855  0.8575294631579609  1.0000
  H   H24       1.0  0.7431253668712723  0.4033516703664579  0.06962186273403748  1.0000
  H   H25       1.0  0.8071009156315184  0.41477183703392906  0.6220609203815806  1.0000
  H   H26       1.0  0.15087040776196026  0.41321580481361586  0.15818348981634722  1.0000
  H   H27       1.0  0.32472652103960864  0.5344138217136105  0.4179478281975222  1.0000
  H   H28       1.0  0.2496061703661101  0.5859703435343349  0.5052401389827397  1.0000
  H   H29       1.0  0.28540164538849866  0.689777518070825  0.3703766653884444  1.0000
  H   H30       1.0  0.16009677634528008  0.7336178559886342  0.40247211246754366  1.0000
  H   H31       1.0  0.04242060490388755  0.8000326671616527  0.3335347560804325  1.0000
  H   H32       1.0  0.9777378320137269  0.6774606427008771  0.17740214760186945  1.0000
  Zn  Zn1       1.0  0.7588181418740427  0.42162046463896163  0.5679112621223759  1.0000
  Zn  Zn2       1.0  0.9111252609907265  0.42161677755247573  0.5679068725525087  1.0000
  C   C43       1.0  0.8349327902157012  0.41639080588490374  0.805111319604672  1.0000
  C   C44       1.0  0.8350122760177934  0.42684807486714527  0.33070694301068415  1.0000
  C   C45       1.0  0.8350014554474078  0.6588137699449144  0.5628089057196652  1.0000
  C   C46       1.0  0.8349435586109957  0.18442355047989833  0.5730094256456049  1.0000
  O   O5        1.0  0.8928029218518583  0.4285665948149422  0.37909342921728784  1.0000
  O   O6        1.0  0.8927397235871585  0.4146685078807417  0.7567211276473891  1.0000
  O   O7        1.0  0.8927943922337491  0.6104281169250914  0.5610602145543133  1.0000
  O   O8        1.0  0.8927482012507479  0.23280699508447156  0.5747542449366561  1.0000
  O   O9        1.0  0.7771951496390777  0.6104302471096394  0.5610638897328954  1.0000
  O   O10       1.0  0.7771404811926345  0.41467219839519887  0.7567247340707239  1.0000
  O   O11       1.0  0.7772036797616525  0.42857024043134717  0.3790954741699901  1.0000
  O   O12       1.0  0.7771489591401184  0.23281063138967073  0.5747563872577328  1.0000
