data_image0
_chemical_formula_structural       NC10NC3NCH9C7OC6H10C7OC4NC3H9Zn2C4O8
_chemical_formula_sum              "N4 C45 H28 O10 Zn2"
_cell_length_a       19.437513618241372
_cell_length_b       10.299379429549807
_cell_length_c       10.299375074045738
_cell_angle_alpha    85.51714373298503
_cell_angle_beta     90.34040482055526
_cell_angle_gamma    89.52020702266324

_space_group_name_H-M_alt    "P 1"
_space_group_IT_number       1

loop_
  _space_group_symop_operation_xyz
  'x, y, z'

loop_
  _atom_site_type_symbol
  _atom_site_label
  _atom_site_symmetry_multiplicity
  _atom_site_fract_x
  _atom_site_fract_y
  _atom_site_fract_z
  _atom_site_occupancy
  N   N1        1.0  0.6479043192967325  0.4111040095396947  0.5751388337867749  1.0000
  C   C1        1.0  0.5889707287287688  0.42811624750933386  0.5721575806541583  1.0000
  C   C2        1.0  0.5155299377867595  0.4493714705738938  0.5684570223466991  1.0000
  C   C3        1.0  0.47376965135600474  0.348181329232903  0.5568275399960922  1.0000
  C   C4        1.0  0.3978796508431809  0.3582498035476682  0.5496028359029363  1.0000
  C   C5        1.0  0.3583025633379319  0.4390735536307646  0.6153241719204965  1.0000
  C   C6        1.0  0.2821206614879626  0.43046857475579636  0.6068822564339655  1.0000
  C   C7        1.0  0.2489869925019969  0.30911550517747743  0.6115622456595957  1.0000
  C   C8        1.0  0.177252559940552  0.30274658869839977  0.6043957633245112  1.0000
  C   C9        1.0  0.1376811724780771  0.41725787115534074  0.5929116821950093  1.0000
  C   C10       1.0  0.063832275798341  0.41055083171297446  0.5855772020486922  1.0000
  N   N2        1.0  0.0044628608783357  0.40515896189375034  0.5796807382611247  1.0000
  C   C11       1.0  0.1700982386766142  0.5383000206910658  0.5889770970641253  1.0000
  C   C12       1.0  0.24181707047398202  0.5449229139195944  0.5962055275504801  1.0000
  C   C13       1.0  0.3869834303581222  0.5313228941127581  0.7052206397014842  1.0000
  N   N3        1.0  0.44396785811970296  0.5945478914815279  0.6847965336556734  1.0000
  C   C14       1.0  0.4878101078844397  0.5853373994159943  0.57168647724817  1.0000
  H   H1        1.0  0.4961551735328432  0.25312568722052364  0.5447342765474246  1.0000
  H   H2        1.0  0.37316717603676036  0.2887604057632851  0.49130282886521237  1.0000
  H   H3        1.0  0.2784384858345435  0.2191940612417691  0.6226105692677437  1.0000
  H   H4        1.0  0.1526603023382237  0.2085137416733449  0.6083113725818599  1.0000
  H   H5        1.0  0.13996144450361922  0.627565475056374  0.5802412253967018  1.0000
  H   H6        1.0  0.2659278005775259  0.639568588703074  0.5922743339923808  1.0000
  H   H7        1.0  0.3569789135693479  0.5516712674101643  0.7895851101101414  1.0000
  H   H8        1.0  0.5305616361340002  0.6556508264278116  0.5774290607789678  1.0000
  H   H9        1.0  0.4581436930235346  0.613488703960178  0.48102825071583233  1.0000
  C   C15       1.0  0.826194385433137  0.026739316669405877  0.5775640146892878  1.0000
  C   C16       1.0  0.8678932349653756  0.016114016493232075  0.689845398145674  1.0000
  C   C17       1.0  0.8882799756081834  0.8935261012744732  0.7473198719471266  1.0000
  C   C18       1.0  0.8678095086036778  0.7808934424434134  0.6895680378718665  1.0000
  C   C19       1.0  0.8261793925770592  0.7895135042761595  0.5772669039642762  1.0000
  C   C20       1.0  0.8054638644896325  0.9129086155769474  0.5221115312446212  1.0000
  C   C21       1.0  0.9329084145622205  0.8822137370232495  0.8650906602531301  1.0000
  O   O1        1.0  0.9765552089285157  0.7906949759674389  0.8780033498106521  1.0000
  C   C22       1.0  0.9280185264968044  0.9746227186317038  0.9682173665064115  1.0000
  C   C23       1.0  0.9868635548068425  0.003079795036711408  0.040532536767970195  1.0000
  C   C24       1.0  0.9825961691596197  0.08887403227258583  0.13897448832605575  1.0000
  C   C25       1.0  0.9195711573186848  0.14620784019653632  0.16693106622453613  1.0000
  C   C26       1.0  0.8606205122438045  0.11744282493887548  0.096858741524258  1.0000
  C   C27       1.0  0.8646116183600258  0.031732879611618525  0.9983256001156022  1.0000
  H   H10       1.0  0.7483743941058625  0.25418619678304366  0.36453262186278734  1.0000
  H   H11       1.0  0.8851970106739768  0.10339796694510461  0.7319045306826104  1.0000
  H   H12       1.0  0.8839127286731558  0.6863074352898842  0.7332121428144143  1.0000
  H   H13       1.0  0.7733175178874883  0.9202958232603855  0.4355504455259216  1.0000
  H   H14       1.0  0.810665861376825  0.4654096777894925  0.5334999185817806  1.0000
  H   H15       1.0  0.036221135125447335  0.959819481720102  0.020113074845472312  1.0000
  H   H16       1.0  0.0281991781894515  0.11086378615154358  0.19365366364591552  1.0000
  H   H17       1.0  0.9163617701849351  0.21250347377292567  0.24323430360574505  1.0000
  H   H18       1.0  0.8117055181083154  0.1611337623803637  0.11928374846751544  1.0000
  H   H19       1.0  0.8180582663204866  0.009072908503491739  0.9467941937877602  1.0000
  C   C28       1.0  0.8262102710019732  0.4082683796362545  0.19602894521998615  1.0000
  C   C29       1.0  0.8791666787864768  0.5005017570934713  0.18822376885814052  1.0000
  C   C30       1.0  0.9053419062794459  0.5481109215859528  0.06702239334335958  1.0000
  C   C31       1.0  0.8790552903648723  0.5002658648448763  0.952997126297578  1.0000
  C   C32       1.0  0.8261634800217739  0.40798445889854795  0.9588020160718576  1.0000
  C   C33       1.0  0.7999236587422711  0.3627730689164079  0.08079790990517677  1.0000
  C   C34       1.0  0.9617542543298868  0.6444948490650455  0.05872555689134784  1.0000
  O   O2        1.0  0.00572075600684907  0.6390764795642954  0.9696525019874  1.0000
  C   C35       1.0  0.9682791324741561  0.7470375260844773  0.1513952145865991  1.0000
  C   C36       1.0  0.03370348502861931  0.7925103974498213  0.18396704027337463  1.0000
  C   C37       1.0  0.04036847895977891  0.8904167844906863  0.2702305205976705  1.0000
  C   C38       1.0  0.10755448835802617  0.9356509423327983  0.303855977217236  1.0000
  N   N4        1.0  0.1615644709204318  0.972008491772729  0.33088329694398455  1.0000
  C   C39       1.0  0.9816154406500129  0.94425055622506  0.32365496518568926  1.0000
  C   C40       1.0  0.9164202448207945  0.9007856312992344  0.2905843222153226  1.0000
  C   C41       1.0  0.9096184146196125  0.8031515260559525  0.20459455251540115  1.0000
  H   H20       1.0  0.7269988810611722  0.2327374051715536  0.41820290153323714  1.0000
  H   H21       1.0  0.9006453690744212  0.5343469320230363  0.27666730663574723  1.0000
  H   H22       1.0  0.8995333951667571  0.5361623889724001  0.859498715672026  1.0000
  H   H23       1.0  0.7590983664100663  0.29166720106643473  0.08601131493592029  1.0000
  H   H24       1.0  0.8062415912653775  0.37172775081326925  0.6336423743205741  1.0000
  H   H25       1.0  0.07944280307382479  0.7510252700570561  0.14318486853523504  1.0000
  H   H26       1.0  0.9862035208811061  0.020056466638894488  0.3903630649198111  1.0000
  H   H27       1.0  0.8710236765935567  0.9432437987101847  0.3312216603368976  1.0000
  H   H28       1.0  0.8585165587820438  0.7726082076528258  0.17865250859612858  1.0000
  Zn  Zn1       1.0  0.7507994174255916  0.4093849049859304  0.5764570399676232  1.0000
  Zn  Zn2       1.0  0.9015677685147965  0.4068673922783681  0.5783732066013416  1.0000
  C   C42       1.0  0.8261709085243256  0.4028641370339727  0.8146235406496205  1.0000
  C   C43       1.0  0.8261979237617325  0.41338977141083366  0.3402068536778753  1.0000
  C   C44       1.0  0.8261789988131366  0.6453349243066722  0.5721476155704295  1.0000
  C   C45       1.0  0.8261897820526557  0.17091742457405013  0.5826828479528163  1.0000
  O   O3        1.0  0.8834095835290068  0.4141475082369017  0.3893214542960626  1.0000
  O   O4        1.0  0.8833889387337692  0.40019468667130265  0.766962892687683  1.0000
  O   O5        1.0  0.8833947003651003  0.5959929262319448  0.5711618573000274  1.0000
  O   O6        1.0  0.8834037704564388  0.21834927886235178  0.5851223916470789  1.0000
  O   O7        1.0  0.768963364034111  0.5979030192624668  0.5697078542611609  1.0000
  O   O8        1.0  0.7689576023732073  0.4021063401264282  0.7655088197923405  1.0000
  O   O9        1.0  0.7689782473108335  0.4160591170138177  0.38786581994617064  1.0000
  O   O10       1.0  0.7689724342296639  0.22026087831369523  0.5836668546731012  1.0000
