data_image0
_chemical_formula_structural       NC12NC2H8C7OC3FC3H9C7OC4NC3H9Zn2C4O8
_chemical_formula_sum              "N3 C45 H26 O10 F1 Zn2"
_cell_length_a       17.80743265337812
_cell_length_b       10.29937835083307
_cell_length_c       10.299375074045738
_cell_angle_alpha    85.53063417163439
_cell_angle_beta     91.52722468557046
_cell_angle_gamma    89.45609770286684

_space_group_name_H-M_alt    "P 1"
_space_group_IT_number       1

loop_
  _space_group_symop_operation_xyz
  'x, y, z'

loop_
  _atom_site_type_symbol
  _atom_site_label
  _atom_site_symmetry_multiplicity
  _atom_site_fract_x
  _atom_site_fract_y
  _atom_site_fract_z
  _atom_site_occupancy
  N   N1        1.0  0.70779747271346  0.4072191714407616  0.6011240396686699  1.0000
  C   C1        1.0  0.6569878977304119  0.4368027509604304  0.5324198394468327  1.0000
  C   C2        1.0  0.5937757707054918  0.4736025752198407  0.4469604628710615  1.0000
  C   C3        1.0  0.605521225333753  0.527668913268788  0.32033069791448865  1.0000
  C   C4        1.0  0.5442159971334761  0.56296426508244  0.23726755062553329  1.0000
  C   C5        1.0  0.4710111053224448  0.5444569805706427  0.2801742161278993  1.0000
  C   C6        1.0  0.4582888247987251  0.49027167392221394  0.407272150994046  1.0000
  C   C7        1.0  0.5204513707543669  0.4549795818150708  0.49031878574028065  1.0000
  C   C8        1.0  0.3805153246020159  0.4706492354589731  0.4530393234118506  1.0000
  C   C9        1.0  0.361727701105554  0.4977930447492944  0.5800840824696445  1.0000
  C   C10       1.0  0.2884928695212234  0.47932732123319144  0.6230313071276319  1.0000
  C   C11       1.0  0.2331025920145234  0.4334632195273962  0.5397717950685639  1.0000
  C   C12       1.0  0.157730962072591  0.41444416880444956  0.5841200522854115  1.0000
  N   N2        1.0  0.09713750909099961  0.39915413116812704  0.6197730002273647  1.0000
  C   C13       1.0  0.2511986569107221  0.4061503051325235  0.41327004094770836  1.0000
  C   C14       1.0  0.3243806509121868  0.42463090236470014  0.3700669202386091  1.0000
  H   H1        1.0  0.6619918795697167  0.5425050468586616  0.28589097052227586  1.0000
  H   H2        1.0  0.553428208874334  0.6050964415669042  0.13948072217906393  1.0000
  H   H3        1.0  0.4243815221625278  0.5741161071801522  0.21457804126156965  1.0000
  H   H4        1.0  0.5119372693222011  0.4114620859819309  0.5879813295171734  1.0000
  H   H5        1.0  0.4034079264771545  0.5349512933511409  0.6456546468520541  1.0000
  H   H6        1.0  0.2750483962637212  0.5011401556899819  0.7210403929148257  1.0000
  H   H7        1.0  0.20880178520192932  0.3702592460096521  0.34811229237740493  1.0000
  H   H8        1.0  0.3372964026375463  0.4012823575957265  0.2723613608983224  1.0000
  C   C15       1.0  0.9023918992872298  0.021803234435427088  0.6105088978467754  1.0000
  C   C16       1.0  0.8240102183986995  0.023440733027989324  0.5907289753312222  1.0000
  C   C17       1.0  0.7843811804361122  0.9069802363819625  0.5822253755103559  1.0000
  C   C18       1.0  0.8241939140522662  0.7881929222722337  0.5907446497024018  1.0000
  C   C19       1.0  0.9025502560350812  0.7845599724623469  0.6103996838012509  1.0000
  C   C20       1.0  0.9411726702613352  0.9018949401714064  0.6205089172591722  1.0000
  C   C21       1.0  0.7017084584936144  0.9086703040506916  0.5599703303269115  1.0000
  O   O1        1.0  0.6726953244097954  0.8246066946770354  0.4919165194367454  1.0000
  C   C22       1.0  0.6519494066088442  0.005626400411090859  0.6149285277478378  1.0000
  C   C23       1.0  0.585032690075042  0.04703538862744128  0.5479394683194989  1.0000
  C   C24       1.0  0.5373067653532331  0.1372599518199773  0.599716877901745  1.0000
  F   F1        1.0  0.4732106465415418  0.17730217564892814  0.5339243315249562  1.0000
  C   C25       1.0  0.5555838330198343  0.1861321825138771  0.7192029456508793  1.0000
  C   C26       1.0  0.621421945399986  0.14449271874115666  0.7873549609474506  1.0000
  C   C27       1.0  0.6693031825652496  0.054336389512401606  0.7359897217169691  1.0000
  H   H9        1.0  0.05043864828733047  0.2261858378317776  0.6458460531177166  1.0000
  H   H10       1.0  0.793783198965996  0.11558172088134788  0.580467590821262  1.0000
  H   H11       1.0  0.7937811256288805  0.698356667029689  0.5832353213094563  1.0000
  H   H12       1.0  0.0015991214153114885  0.8998285474017003  0.6357570254664384  1.0000
  H   H13       1.0  0.9327219627163024  0.4557914884983056  0.6168575238512957  1.0000
  H   H14       1.0  0.5700708681190948  0.010379156658105515  0.45506013562574865  1.0000
  H   H15       1.0  0.5186181238572692  0.2558697084839121  0.7593132681891195  1.0000
  H   H16       1.0  0.6352223227859294  0.18166008999629657  0.8803922421010388  1.0000
  H   H17       1.0  0.7193663491243913  0.02171685911515442  0.7915423358651055  1.0000
  C   C28       1.0  0.9024966516587541  0.4033234215107795  0.2290687301497647  1.0000
  C   C29       1.0  0.9603431287592514  0.4952398037871393  0.22338174389898846  1.0000
  C   C30       1.0  0.9889358764515045  0.5426922377981882  0.10322784393143603  1.0000
  C   C31       1.0  0.9602214449773603  0.49500457926981833  0.9881506355903951  1.0000
  C   C32       1.0  0.9024454935589011  0.4030397855213377  0.9918398794029497  1.0000
  C   C33       1.0  0.8737827624896274  0.357985454899137  0.11278633429038454  1.0000
  C   C34       1.0  0.05055699212364795  0.6387385259691434  0.09718696916045277  1.0000
  O   O2        1.0  0.09856463809951777  0.6330588617601036  0.009852259168065647  1.0000
  C   C35       1.0  0.057705275187309946  0.7412400466978075  0.19014014337874485  1.0000
  C   C36       1.0  0.12915531722523643  0.7863228662737971  0.225311941497792  1.0000
  C   C37       1.0  0.13645553650833842  0.8841873706234866  0.31186333690609813  1.0000
  C   C38       1.0  0.2098291516576325  0.929021007575318  0.3481584129012354  1.0000
  N   N3        1.0  0.2688132708780402  0.9650565834703559  0.3773318044658105  1.0000
  C   C39       1.0  0.0723129359629282  0.9383692416473344  0.36297632022413295  1.0000
  C   C40       1.0  0.0011135798788706186  0.8952929597573522  0.32731526833427305  1.0000
  C   C41       1.0  0.993664005649166  0.797701544549948  0.24103223643818872  1.0000
  H   H18       1.0  0.7941233153706122  0.22838638588416593  0.4472736788439222  1.0000
  H   H19       1.0  0.9838043750955945  0.5289564900666863  0.3126835218136721  1.0000
  H   H20       1.0  0.9825905795511555  0.5307785168910111  0.8954713804178995  1.0000
  H   H21       1.0  0.8291876048908707  0.2871239658273641  0.11636677839842569  1.0000
  H   H22       1.0  0.8806836323517064  0.366902365040237  0.6658830017739072  1.0000
  H   H23       1.0  0.1790905138591361  0.7445667333524117  0.18632935031574105  1.0000
  H   H24       1.0  0.07734022201919366  0.014146127117931506  0.42988469403208307  1.0000
  H   H25       1.0  0.9515528692214974  0.9380200723526855  0.3661668283902517  1.0000
  H   H26       1.0  0.9378567253087268  0.7674627745044753  0.21306062723448838  1.0000
  Zn  Zn1       1.0  0.8201525991211562  0.4048883048368348  0.6065132146018077  1.0000
  Zn  Zn2       1.0  0.9847823772796276  0.4014743999724164  0.6143944203244951  1.0000
  C   C42       1.0  0.9024524320177414  0.39791953733934005  0.8476604327183141  1.0000
  C   C43       1.0  0.902484342466795  0.40844476882436576  0.37324741550788043  1.0000
  C   C44       1.0  0.9025168148934283  0.6403846956957115  0.6052447406217576  1.0000
  C   C45       1.0  0.9024199030858518  0.1659780512455442  0.6156631743802123  1.0000
  O   O3        1.0  0.9649563530489456  0.40886231470672896  0.42462597671243985  1.0000
  O   O4        1.0  0.9649306136057398  0.3949099370367204  0.8022631505765294  1.0000
  O   O5        1.0  0.9649817612932716  0.5907036357624817  0.606510723564925  1.0000
  O   O6        1.0  0.9649051491928795  0.2130686264726891  0.620378303654475  1.0000
  O   O7        1.0  0.8400297710278415  0.5932940795029766  0.6005293285755271  1.0000
  O   O8        1.0  0.8399786236655028  0.3975019411660796  0.7962816861150561  1.0000
  O   O9        1.0  0.8400043632539533  0.41145427415806  0.41864295079101166  1.0000
  O   O10       1.0  0.8399531593863586  0.21566057659871318  0.614395375106316  1.0000
