data_image0
_chemical_formula_structural       NC11NC3H8C7OC3OC4H12C6SCOC6H10Zn2C4O8
_chemical_formula_sum              "N2 C45 H30 O11 S1 Zn2"
_cell_length_a       17.807433833752565
_cell_length_b       10.299371110280156
_cell_length_c       10.302041481415108
_cell_angle_alpha    85.5593769261431
_cell_angle_beta     88.52108606055918
_cell_angle_gamma    90.69823053252264

_space_group_name_H-M_alt    "P 1"
_space_group_IT_number       1

loop_
  _space_group_symop_operation_xyz
  'x, y, z'

loop_
  _atom_site_type_symbol
  _atom_site_label
  _atom_site_symmetry_multiplicity
  _atom_site_fract_x
  _atom_site_fract_y
  _atom_site_fract_z
  _atom_site_occupancy
  N   N1        1.0  0.7076563488778588  0.4389881041589825  0.5354415572006777  1.0000
  C   C1        1.0  0.6568298883541589  0.4042383562034295  0.6019780515797453  1.0000
  C   C2        1.0  0.5935966465207432  0.36101253514562837  0.6847409590921587  1.0000
  C   C3        1.0  0.6053109510754587  0.2974198793021501  0.8074118633274838  1.0000
  C   C4        1.0  0.5439854070349184  0.2558746266471301  0.8878918867689494  1.0000
  C   C5        1.0  0.4707911463652826  0.27760853978911393  0.8463415595223123  1.0000
  C   C6        1.0  0.4581000854166047  0.3413559056394446  0.7232106093366455  1.0000
  C   C7        1.0  0.3803378814833517  0.3644208990041298  0.6788806726586765  1.0000
  C   C8        1.0  0.3615566757395943  0.34759288452563575  0.549323345894704  1.0000
  C   C9        1.0  0.2883324689663087  0.36928808449273776  0.5077289442952124  1.0000
  C   C10       1.0  0.2329464657468104  0.4081301092519829  0.5948718786728608  1.0000
  C   C11       1.0  0.1575856736852637  0.4304842444840322  0.5519166949544831  1.0000
  N   N2        1.0  0.0970009699778011  0.4484553085038454  0.5173838535037474  1.0000
  C   C12       1.0  0.2510361549474454  0.4251688838304175  0.7238982562290144  1.0000
  C   C13       1.0  0.3242075862502712  0.40343866625680813  0.7657480196910469  1.0000
  C   C14       1.0  0.5202829401499408  0.3828965877169852  0.6427469966381616  1.0000
  H   H1        1.0  0.6617732348919235  0.2799938756028344  0.8407644374090915  1.0000
  H   H2        1.0  0.5531735457719295  0.20638962293382357  0.9825912104036054  1.0000
  H   H3        1.0  0.4241450232814883  0.24303058872628158  0.9097555119280001  1.0000
  H   H4        1.0  0.40323326617491884  0.31597437600918954  0.48061171313450024  1.0000
  H   H5        1.0  0.2748927047716481  0.35544149782132384  0.40771192968289993  1.0000
  H   H6        1.0  0.20864263665886001  0.4555645349494404  0.7920948383022575  1.0000
  H   H7        1.0  0.3371191301334603  0.4188307331814074  0.865582819741813  1.0000
  H   H8        1.0  0.5117934517810077  0.4337438713578672  0.5482823779475319  1.0000
  C   C15       1.0  0.9022816038712587  0.06234920109557218  0.5263000866981347  1.0000
  C   C16       1.0  0.8936307317347495  0.07147505486739236  0.3907473798135843  1.0000
  C   C17       1.0  0.8884188541241876  0.9588702690168381  0.322585854637387  1.0000
  C   C18       1.0  0.8936680101200654  0.8362079688951242  0.3910566655091565  1.0000
  C   C19       1.0  0.9023828995211988  0.825084398739752  0.526536185662472  1.0000
  C   C20       1.0  0.9064425737580645  0.9387464067552425  0.5934207519242074  1.0000
  C   C21       1.0  0.8800676171700058  0.968397609556473  0.17925911463013855  1.0000
  O   O1        1.0  0.9108660538153055  0.8841307458139221  0.11382242147723054  1.0000
  C   C22       1.0  0.8367687469479669  0.07343943878215953  0.11017277508112944  1.0000
  C   C23       1.0  0.8577726260085446  0.11915591239313428  0.9820852088120402  1.0000
  C   C24       1.0  0.8171399048326407  0.21720612540595052  0.9146048557842263  1.0000
  O   O2        1.0  0.8411302954750717  0.259642199712544  0.7874232465640092  1.0000
  C   C25       1.0  0.8053227604450061  0.3582858977855594  0.7076676759286342  1.0000
  C   C26       1.0  0.7541171082891174  0.2695114468862234  0.9760025262143741  1.0000
  C   C27       1.0  0.7323419911142273  0.22348692737707054  0.10260915123571035  1.0000
  C   C28       1.0  0.7731080611202277  0.12572152807091852  0.1693313143906059  1.0000
  H   H9        1.0  0.9197531461237703  0.2524951696540336  0.7818239452166331  1.0000
  H   H10       1.0  0.8917725175761875  0.16638339141614056  0.3378160037445588  1.0000
  H   H11       1.0  0.8902158660983622  0.7492826542503666  0.3385064135685327  1.0000
  H   H12       1.0  0.9131122458458051  0.9309072526993586  0.6979219342486347  1.0000
  H   H13       1.0  0.9063556688089464  0.49337916575530344  0.5784268540559598  1.0000
  H   H14       1.0  0.9063484220809365  0.07945736682752425  0.9344698290651205  1.0000
  H   H15       1.0  0.8359726145190143  0.372156126532031  0.6123967736131424  1.0000
  H   H16       1.0  0.8064277953331922  0.45175253850525476  0.754624705016905  1.0000
  H   H17       1.0  0.7464480192765198  0.3286281004586784  0.6906385906436889  1.0000
  H   H18       1.0  0.721486744136219  0.3452355644302312  0.9266391156084217  1.0000
  H   H19       1.0  0.6834823064871323  0.26334041446437495  0.14901624558563942  1.0000
  H   H20       1.0  0.7543634191576752  0.0900827913897182  0.2665572709320221  1.0000
  C   C29       1.0  0.9023463505194894  0.4438464074109534  0.14513048399473383  1.0000
  C   C30       1.0  0.9368040913151543  0.5677832860985299  0.13265822530873184  1.0000
  C   C31       1.0  0.9542832972342017  0.6289347069485625  0.009481400954848063  1.0000
  C   C32       1.0  0.9368753385777232  0.5673811540232252  0.8975493814470656  1.0000
  C   C33       1.0  0.9023181678876162  0.4435871620343328  0.9077058003879288  1.0000
  C   C34       1.0  0.8852879835302268  0.3824081038389777  0.032055213543465966  1.0000
  S   S1        1.0  0.99897283173396  0.7865550272800388  0.9949355875819044  1.0000
  C   C35       1.0  0.09150845850271239  0.7190040550939523  0.9931901748105787  1.0000
  O   O3        1.0  0.1209064217569229  0.6965460195286535  0.8847591204668954  1.0000
  C   C36       1.0  0.13291328990351525  0.6886680068460789  0.11478443859561627  1.0000
  C   C37       1.0  0.19954892279035708  0.6165645722540194  0.11186288633763986  1.0000
  C   C38       1.0  0.23870109284710095  0.5866196872057299  0.22598933459742865  1.0000
  C   C39       1.0  0.21201502859385313  0.6283185264018349  0.34417797078449297  1.0000
  C   C40       1.0  0.146186821887631  0.7002827825635558  0.3484422913855749  1.0000
  C   C41       1.0  0.10681046228194102  0.7305963527734602  0.23462576509918587  1.0000
  H   H21       1.0  0.8372869653062942  0.2103574406815416  0.3759521302362634  1.0000
  H   H22       1.0  0.9503064391207362  0.6170396216756855  0.21836176787339423  1.0000
  H   H23       1.0  0.9506960719661309  0.616313699477351  0.8029523525262312  1.0000
  H   H24       1.0  0.8587252654315167  0.2868614271525496  0.04074980031917974  1.0000
  H   H25       1.0  0.8893846480906943  0.39635580874717347  0.5842315795199617  1.0000
  H   H26       1.0  0.22124531271407366  0.5826340662792313  0.02152708071485665  1.0000
  H   H27       1.0  0.2897612809792378  0.5308764965017037  0.22275616435044165  1.0000
  H   H28       1.0  0.24239114925497618  0.605005850519545  0.43242360680047165  1.0000
  H   H29       1.0  0.12565680846828076  0.7328546051869242  0.44007760081546254  1.0000
  H   H30       1.0  0.056320520371440086  0.7872954709441575  0.24106004330679442  1.0000
  Zn  Zn1       1.0  0.8200127952811751  0.44171665761407675  0.5302379758299995  1.0000
  Zn  Zn2       1.0  0.9846445070121922  0.4457161317568805  0.5225980153450545  1.0000
  C   C42       1.0  0.902321112362389  0.4384624113456046  0.7635611889477978  1.0000
  C   C43       1.0  0.9023379879170416  0.44897206029151593  0.28927484674560167  1.0000
  C   C44       1.0  0.9023600705880059  0.6809128662331148  0.521317654107333  1.0000
  C   C45       1.0  0.9022989733043645  0.20652004369813914  0.5315184529339778  1.0000
  O   O4        1.0  0.9648120572154183  0.452204390019471  0.3347516847180869  1.0000
  O   O5        1.0  0.9647987028330695  0.4382646103456316  0.712285423674279  1.0000
  O   O6        1.0  0.9648293198248322  0.6340463979524491  0.5166720948802266  1.0000
  O   O7        1.0  0.9647813840508387  0.25642261037130987  0.5303649187680992  1.0000
  O   O8        1.0  0.839875862061806  0.6310101776362389  0.522471075007269  1.0000
  O   O9        1.0  0.8398452452763799  0.43522995037188017  0.7180843350537254  1.0000
  O   O10       1.0  0.8398585997604245  0.44916968532119483  0.34054903501326184  1.0000
  O   O11       1.0  0.8398279265879385  0.25338789635096903  0.5361623664076294  1.0000
