data_image0
_chemical_formula_structural       NC10NC3NCH9C7OC6OCH12C7OC6OCH12Zn2C4O8
_chemical_formula_sum              "N3 C46 H33 O12 Zn2"
_cell_length_a       19.437513618241372
_cell_length_b       10.299359160628079
_cell_length_c       10.299362532796529
_cell_angle_alpha    85.5843088683533
_cell_angle_beta     90.36260544927384
_cell_angle_gamma    89.54510135387923

_space_group_name_H-M_alt    "P 1"
_space_group_IT_number       1

loop_
  _space_group_symop_operation_xyz
  'x, y, z'

loop_
  _atom_site_type_symbol
  _atom_site_label
  _atom_site_symmetry_multiplicity
  _atom_site_fract_x
  _atom_site_fract_y
  _atom_site_fract_z
  _atom_site_occupancy
  N   N1        1.0  0.6479435578062934  0.4100710278236517  0.5759000368917235  1.0000
  C   C1        1.0  0.5890133116323775  0.4270805504163968  0.5729272582362412  1.0000
  C   C2        1.0  0.5155767041055452  0.44833239749693  0.5692372868070243  1.0000
  C   C3        1.0  0.4737905863956451  0.3471382666213618  0.5575588506649432  1.0000
  C   C4        1.0  0.3979014608668512  0.3572013884276368  0.5503394322996873  1.0000
  C   C5        1.0  0.35835641918777233  0.43806703457231366  0.6160970765312077  1.0000
  C   C6        1.0  0.2821708133285623  0.42945660412131303  0.6076513669569217  1.0000
  C   C7        1.0  0.24900993326834983  0.30811152694712995  0.6122717261686743  1.0000
  C   C8        1.0  0.1772725734908273  0.30173794564960854  0.6051024811078558  1.0000
  C   C9        1.0  0.13772543346021074  0.4162368380977999  0.5936750178776764  1.0000
  C   C10       1.0  0.0638734971317197  0.40952503192453715  0.5863376178191861  1.0000
  N   N2        1.0  0.0045016385636704  0.4041293299447597  0.5804388066882868  1.0000
  C   C11       1.0  0.1701697893493301  0.5372715187868244  0.5897998736869423  1.0000
  C   C12       1.0  0.24189161982224092  0.5438991093181755  0.5970311881467771  1.0000
  C   C13       1.0  0.3870768725812453  0.5303744036329008  0.7060342486101532  1.0000
  N   N3        1.0  0.4440718396582928  0.5935828996972079  0.6856420999041555  1.0000
  C   C14       1.0  0.4878890756047924  0.5842951835114294  0.5725331328245367  1.0000
  H   H1        1.0  0.4961516068835934  0.25207807520281844  0.5454196590157658  1.0000
  H   H2        1.0  0.3731610711259312  0.2876747385360263  0.4920082975825424  1.0000
  H   H3        1.0  0.2784427966281894  0.21820120509604224  0.6232754893746313  1.0000
  H   H4        1.0  0.1526592429351518  0.20751149797260005  0.6089717726525858  1.0000
  H   H5        1.0  0.1400519406368534  0.6265274631291151  0.5811081268978515  1.0000
  H   H6        1.0  0.2660235155158003  0.6385383577952342  0.593146515138395  1.0000
  H   H7        1.0  0.3570941400943588  0.5507798442957166  0.790404503879852  1.0000
  H   H8        1.0  0.5306580801594634  0.6546097787472613  0.5783098483211222  1.0000
  H   H9        1.0  0.4582108569221831  0.6123831922891527  0.4818931719224737  1.0000
  C   C15       1.0  0.826144930118275  0.025723145265406755  0.5781369636634757  1.0000
  C   C16       1.0  0.7692270917366697  0.031926010564295115  0.4930163945382673  1.0000
  C   C17       1.0  0.7410123404094798  0.9180614048541722  0.4489970591531858  1.0000
  C   C18       1.0  0.7693910090084809  0.7966618461988181  0.49327358460109627  1.0000
  C   C19       1.0  0.8263068674309195  0.7884670173634784  0.5782132706509246  1.0000
  C   C20       1.0  0.8544510368845418  0.9035876400240479  0.6199462086328278  1.0000
  C   C21       1.0  0.6804350445000932  0.9267558441685595  0.3602934100998689  1.0000
  O   O1        1.0  0.6367152959956383  0.01636071946081996  0.3713032843645385  1.0000
  C   C22       1.0  0.6694535445418811  0.833869131831867  0.25910723011904846  1.0000
  C   C23       1.0  0.7254049305392898  0.7795677613273628  0.1957649958174621  1.0000
  C   C24       1.0  0.7143331255228567  0.6933354059639598  0.09954330360326868  1.0000
  C   C25       1.0  0.647490754858453  0.6605240214739019  0.0639301121828646  1.0000
  C   C26       1.0  0.5913076059793926  0.7158636173378886  0.1259576516812344  1.0000
  C   C27       1.0  0.6023165054136467  0.8021559249241808  0.22222496411941028  1.0000
  O   O2        1.0  0.6391442347514131  0.5734056046168393  0.9669266269643115  1.0000
  C   C28       1.0  0.5743024266829752  0.5316275861946823  0.9212336348731154  1.0000
  H   H10       1.0  0.9333690742786814  0.22125936244753208  0.7391754041871161  1.0000
  H   H11       1.0  0.7470959465728996  0.12561248687369808  0.4597502529262565  1.0000
  H   H12       1.0  0.7465470473080749  0.7083957789784652  0.4625316662361285  1.0000
  H   H13       1.0  0.8983555545050574  0.8979983215552652  0.6854731082356442  1.0000
  H   H14       1.0  0.8479643096971726  0.4578210007799661  0.6112067196464348  1.0000
  H   H15       1.0  0.7777147455159829  0.8047913349476947  0.21956174045551524  1.0000
  H   H16       1.0  0.7579898603240113  0.6521450671835687  0.051918298165258836  1.0000
  H   H17       1.0  0.5389688083094029  0.6929170002117777  0.10051594050195312  1.0000
  H   H18       1.0  0.5582751081296603  0.8433065497909125  0.26879432329159414  1.0000
  H   H19       1.0  0.5828799907112581  0.4630651863995781  0.8448688455697182  1.0000
  H   H20       1.0  0.5440650023167684  0.6164663557656657  0.8783391664163922  1.0000
  H   H21       1.0  0.5454330574257151  0.48056492013972935  0.002400971266073748  1.0000
  C   C29       1.0  0.8261721759321214  0.40697546179168254  0.19680752168553117  1.0000
  C   C30       1.0  0.7608512754814561  0.34938208231278667  0.19925796675518503  1.0000
  C   C31       1.0  0.7276089410623251  0.32166189715453264  0.08331874624135516  1.0000
  C   C32       1.0  0.7610450586747051  0.3495424144698527  0.9640061495714831  1.0000
  C   C33       1.0  0.8262796239075072  0.40721473085877746  0.959542687979301  1.0000
  C   C34       1.0  0.8584103268442741  0.43585505865109053  0.07647669190211093  1.0000
  C   C35       1.0  0.6589812968459314  0.2595064670744951  0.08824180414713911  1.0000
  O   O3        1.0  0.6449080467024269  0.18053266201616114  0.18395151546990718  1.0000
  C   C36       1.0  0.6063217682714176  0.28693579620207954  0.984659248000268  1.0000
  C   C37       1.0  0.6010572214798151  0.41039877177188555  0.9167508376685034  1.0000
  C   C38       1.0  0.5507039301369411  0.435418002056833  0.8204166307510645  1.0000
  C   C39       1.0  0.5044030594407705  0.33852313933461553  0.7907689324469045  1.0000
  C   C40       1.0  0.5089441080922312  0.2152657790017407  0.8595863678662656  1.0000
  C   C41       1.0  0.5592912069576306  0.19011945001808783  0.9559928885906848  1.0000
  O   O4        1.0  0.45488193903325164  0.3685085916708948  0.6931568414762661  1.0000
  C   C42       1.0  0.4046996312995439  0.27958163117705515  0.6531366944207289  1.0000
  H   H22       1.0  0.9495500137523382  0.5151607557050588  0.3994930945765718  1.0000
  H   H23       1.0  0.7353729010090767  0.3270652252657784  0.29146550799708915  1.0000
  H   H24       1.0  0.7364452753336046  0.32487173127512015  0.8746364936853097  1.0000
  H   H25       1.0  0.9087342151851407  0.4803408669104958  0.07376624160716938  1.0000
  H   H26       1.0  0.8514203011153223  0.4288542854633328  0.6303956652206018  1.0000
  H   H27       1.0  0.6353665121876729  0.4880794620268043  0.9390193970884884  1.0000
  H   H28       1.0  0.5474461273019674  0.5309337572429609  0.7688208123051821  1.0000
  H   H29       1.0  0.4738446689206761  0.1382840593067689  0.839404592709251  1.0000
  H   H30       1.0  0.5618805237100551  0.09443296230879228  0.007466987691844285  1.0000
  H   H31       1.0  0.3723936740510794  0.3288161190554477  0.5746467956759345  1.0000
  H   H32       1.0  0.371097082494577  0.24792787998862642  0.7362554896071174  1.0000
  H   H33       1.0  0.4303284394696986  0.1938327359847789  0.6147988077612698  1.0000
  Zn  Zn1       1.0  0.7508385236599769  0.40835289522980567  0.5772173363912589  1.0000
  Zn  Zn2       1.0  0.9016066781575147  0.4058367961122158  0.579132175956897  1.0000
  C   C43       1.0  0.8262566713261448  0.4019957529497409  0.8153688590343853  1.0000
  C   C44       1.0  0.8261901772407444  0.41219554961064975  0.34098080185361  1.0000
  C   C45       1.0  0.8262719810535779  0.6442906603762462  0.5730236151784271  1.0000
  C   C46       1.0  0.826174815745174  0.16989908272898324  0.5833261141385375  1.0000
  O   O5        1.0  0.8834119463384835  0.41298694640563993  0.39009334278656094  1.0000
  O   O6        1.0  0.8834644426937527  0.3992937152826468  0.7677092630826967  1.0000
  O   O7        1.0  0.8834760343870918  0.5949499305622987  0.5720137543752033  1.0000
  O   O8        1.0  0.8834003031864426  0.21733074124443208  0.5857887534672526  1.0000
  O   O9        1.0  0.7690448471812769  0.5968589509576223  0.5705607582206318  1.0000
  O   O10       1.0  0.7690332558063023  0.40120429599316454  0.766256197838884  1.0000
  O   O11       1.0  0.768980759267248  0.4148974813686397  0.3886387161436038  1.0000
  O   O12       1.0  0.7689691161241365  0.2192412669490209  0.5843342241908256  1.0000
