data_image0
_chemical_formula_structural       NC9NC5H8C7OC6H10C7OC3FC3H9Zn2C4O8
_chemical_formula_sum              "N2 C44 H27 O10 F1 Zn2"
_cell_length_a       17.807436237873137
_cell_length_b       10.299379429549807
_cell_length_c       10.29938172300155
_cell_angle_alpha    85.55361563187328
_cell_angle_beta     89.37614531969923
_cell_angle_gamma    88.38769231292811

_space_group_name_H-M_alt    "P 1"
_space_group_IT_number       1

loop_
  _space_group_symop_operation_xyz
  'x, y, z'

loop_
  _atom_site_type_symbol
  _atom_site_label
  _atom_site_symmetry_multiplicity
  _atom_site_fract_x
  _atom_site_fract_y
  _atom_site_fract_z
  _atom_site_occupancy
  N   N1        1.0  0.7076214198062095  0.38745323915999585  0.5565898856393967  1.0000
  C   C1        1.0  0.6470364860175578  0.35225847716334546  0.5455796334580569  1.0000
  C   C2        1.0  0.5716754872340436  0.3084800690849041  0.5318840752037874  1.0000
  C   C3        1.0  0.5536030964336991  0.23703275275002156  0.4269089292112831  1.0000
  C   C4        1.0  0.4804314713213029  0.1944157670829878  0.41352883949446695  1.0000
  C   C5        1.0  0.4242835320731067  0.22286853695901043  0.505091590765494  1.0000
  C   C6        1.0  0.3465209407545761  0.1776926023908476  0.4909540502384149  1.0000
  C   C7        1.0  0.2843385023711411  0.25946055595826745  0.5168612139151778  1.0000
  C   C8        1.0  0.2110245745113886  0.21664052375801868  0.5034948841978728  1.0000
  C   C9        1.0  0.1477919276274993  0.3011000866772988  0.5297649054278672  1.0000
  N   N2        1.0  0.0969658680730113  0.3689997323062124  0.5508852782785858  1.0000
  C   C10       1.0  0.1993095499808934  0.0917945359131489  0.4641961412576874  1.0000
  C   C11       1.0  0.2606346202382868  0.01001272698646316  0.43828059326049695  1.0000
  C   C12       1.0  0.3338291583523617  0.05243814063841512  0.45144453776733284  1.0000
  C   C13       1.0  0.4430472801697875  0.29481030758031235  0.6102857744491046  1.0000
  C   C14       1.0  0.5162718066496033  0.3372368460062056  0.6235102872927054  1.0000
  H   H1        1.0  0.5960104417592712  0.214527063001283  0.3552048745960872  1.0000
  H   H2        1.0  0.4675338843690591  0.14070818351630177  0.33062919910969213  1.0000
  H   H3        1.0  0.2928290517152783  0.3569389298027972  0.5457003895239723  1.0000
  H   H4        1.0  0.1428470252502092  0.057753640778810844  0.4536144804969948  1.0000
  H   H5        1.0  0.2514459083166126  0.9133541810811373  0.4082406871070925  1.0000
  H   H6        1.0  0.3804745853151115  0.9866841247355101  0.432421678421808  1.0000
  H   H7        1.0  0.4013566113330386  0.3167772613424624  0.6832845375365377  1.0000
  H   H8        1.0  0.52969789012936  0.39216480981095403  0.7053678260881282  1.0000
  C   C15       1.0  0.9023054041996936  0.9968340788828017  0.5538914963092398  1.0000
  C   C16       1.0  0.9478274506712162  0.984817822295552  0.6649691097705828  1.0000
  C   C17       1.0  0.9700831130878143  0.86155152186335  0.7218549293729859  1.0000
  C   C18       1.0  0.947736052915149  0.7496000077331644  0.6646941690613062  1.0000
  C   C19       1.0  0.9022890620970582  0.7596086014813515  0.5535948309460399  1.0000
  C   C20       1.0  0.8796741501990138  0.8836951264108247  0.4990374473410317  1.0000
  C   C21       1.0  0.01880358827279527  0.8487489353497499  0.8383374929876719  1.0000
  O   O1        1.0  0.06646252315595857  0.7557069552652522  0.8499952907637616  1.0000
  C   C22       1.0  0.013453866970591477  0.9413958265848824  0.9415996788654541  1.0000
  C   C23       1.0  0.07770267248686014  0.9678345985043944  0.012220309019389308  1.0000
  C   C24       1.0  0.07303315728999604  0.05384188925453448  0.11078008050936816  1.0000
  C   C25       1.0  0.004210094572338896  0.1134051651947936  0.14054641739604268  1.0000
  C   C26       1.0  0.9398457388225174  0.08666360294764974  0.07217155827679944  1.0000
  C   C27       1.0  0.9442135790036895  0.0007502398388610221  0.9735285407287031  1.0000
  H   H9        1.0  0.8173507610598233  0.22687457206044725  0.34310679560466273  1.0000
  H   H10       1.0  0.9667181871527744  0.07152165110611275  0.7065289353165416  1.0000
  H   H11       1.0  0.9653156833380169  0.6544770246917941  0.7078733894616678  1.0000
  H   H12       1.0  0.8445804367211918  0.8921546449109269  0.4134043682921844  1.0000
  H   H13       1.0  0.885353355863973  0.4360209802331778  0.5102757904523083  1.0000
  H   H14       1.0  0.13160080843740607  0.9228292418767409  0.990383475437026  1.0000
  H   H15       1.0  0.12282405503991822  0.07426664542070638  0.16414610820115638  1.0000
  H   H16       1.0  0.0006980522776975917  0.17986248914534686  0.21693815320428667  1.0000
  H   H17       1.0  0.8864306875006718  0.13208534368525782  0.09600112045557752  1.0000
  H   H18       1.0  0.8933846408848842  0.9796906376221961  0.9233374378511781  1.0000
  C   C28       1.0  0.9023604776325463  0.37811719198795957  0.17237461362891282  1.0000
  C   C29       1.0  0.9261376079724677  0.2465282081676614  0.1809382602295997  1.0000
  C   C30       1.0  0.938946297222929  0.18057593822402462  0.06803661974106645  1.0000
  C   C31       1.0  0.9260657475647656  0.2468247652068769  0.945673148985386  1.0000
  C   C32       1.0  0.9022339576031665  0.37832544598769613  0.9351117441970955  1.0000
  C   C33       1.0  0.8907085872540611  0.44330570723030194  0.0490476258586614  1.0000
  C   C34       1.0  0.9632929361926889  0.04124553466321057  0.07697897709652768  1.0000
  O   O2        1.0  0.940155473657576  0.9690938092183274  0.9931652338104358  1.0000
  C   C35       1.0  0.0138929947085209  0.9837709786489369  0.180904252142005  1.0000
  C   C36       1.0  0.00784376519641028  0.8520891818556814  0.22631739862320877  1.0000
  C   C37       1.0  0.05588451860553767  0.7966020126071658  0.3231907000464407  1.0000
  F   F1        1.0  0.049234575016684046  0.6698426459352451  0.3670063940052013  1.0000
  C   C38       1.0  0.11075147238584537  0.8716296098305569  0.37482451403321093  1.0000
  C   C39       1.0  0.1178826166588205  0.00205460997483331  0.32933092645278794  1.0000
  C   C40       1.0  0.06999083011479779  0.05794651297863784  0.23252625798718585  1.0000
  H   H19       1.0  0.8563865503029584  0.6258806148899494  0.3635980073541143  1.0000
  H   H20       1.0  0.9339220186550179  0.1947658036561739  0.2756497992233913  1.0000
  H   H21       1.0  0.9353784751699917  0.1958309591449403  0.858530571844577  1.0000
  H   H22       1.0  0.8723778389469051  0.5447507238088674  0.04164164237480317  1.0000
  H   H23       1.0  0.8924733997592433  0.42853215191818617  0.603633228734219  1.0000
  H   H24       1.0  0.9655235192841197  0.7925751686377447  0.18758846184424116  1.0000
  H   H25       1.0  0.14796443968908002  0.828655033948191  0.44971200455105476  1.0000
  H   H26       1.0  0.1607923964349245  0.05979284249742589  0.3686908298461613  1.0000
  H   H27       1.0  0.07737494564088943  0.15856130312357108  0.1971180456637176  1.0000
  Zn  Zn1       1.0  0.819977814908747  0.3821244922526079  0.5549511713144144  1.0000
  Zn  Zn2       1.0  0.9846094532295459  0.37431789530741244  0.5525346733228329  1.0000
  C   C41       1.0  0.9022563274934243  0.37311219294144427  0.7909401132665219  1.0000
  C   C42       1.0  0.9023327383609808  0.38333174812542925  0.3165458318116454  1.0000
  C   C43       1.0  0.9022891383338586  0.615426742748677  0.5484758040159599  1.0000
  C   C44       1.0  0.9022998713652336  0.1410156406029046  0.5590102117322207  1.0000
  O   O3        1.0  0.9648002776872215  0.38211357185637285  0.36401396346363546  1.0000
  O   O4        1.0  0.9647403924188603  0.36840436287692047  0.7416375420882522  1.0000
  O   O5        1.0  0.9647660451457055  0.5640764666375233  0.5458459087304293  1.0000
  O   O6        1.0  0.9647745687986998  0.18644148002383187  0.5598055002678559  1.0000
  O   O7        1.0  0.8398126431588956  0.570000910201609  0.5476803451871917  1.0000
  O   O8        1.0  0.8397869904066658  0.37433036682171816  0.7434719086928021  1.0000
  O   O9        1.0  0.839846875984909  0.3880395301136814  0.36584676868584287  1.0000
  O   O10       1.0  0.8398211670773663  0.1923674290184989  0.5616384028614669  1.0000
