data_image0
_chemical_formula_structural       NC8NC6H8C7OC4NC3H9C7OC4NC3H9Zn2C4O8
_chemical_formula_sum              "N4 C46 H26 O10 Zn2"
_cell_length_a       17.457602349358154
_cell_length_b       10.299371701877257
_cell_length_c       10.299375074045738
_cell_angle_alpha    85.5592431839292
_cell_angle_beta     92.86983099302364
_cell_angle_gamma    91.69730494660953

_space_group_name_H-M_alt    "P 1"
_space_group_IT_number       1

loop_
  _space_group_symop_operation_xyz
  'x, y, z'

loop_
  _atom_site_type_symbol
  _atom_site_label
  _atom_site_symmetry_multiplicity
  _atom_site_fract_x
  _atom_site_fract_y
  _atom_site_fract_z
  _atom_site_occupancy
  N   N1        1.0  0.7226717475905277  0.45335569594333647  0.6269656920532831  1.0000
  C   C1        1.0  0.6615897100438906  0.407434384802011  0.616333157047751  1.0000
  C   C2        1.0  0.5856010722511611  0.3503139845255401  0.6031158278986843  1.0000
  C   C3        1.0  0.5270715450058985  0.39044759524099826  0.6780309703927607  1.0000
  C   C4        1.0  0.4525211707462011  0.33544523033121254  0.6654288599379137  1.0000
  C   C5        1.0  0.3904006806692362  0.3778203220840566  0.7447667915305873  1.0000
  C   C6        1.0  0.3158597737689455  0.39630987050024324  0.6890075143600569  1.0000
  C   C7        1.0  0.2573302169505139  0.4362595144453181  0.7640305495464403  1.0000
  C   C8        1.0  0.18135136999324264  0.455355755752302  0.7060559340001393  1.0000
  N   N2        1.0  0.12027729286551309  0.4707027539933615  0.6594444918818931  1.0000
  C   C9        1.0  0.2728493951217546  0.45796255961356347  0.8953214875486937  1.0000
  C   C10       1.0  0.34660561241588  0.4398618521543465  0.9514685177566262  1.0000
  C   C11       1.0  0.4051235519459245  0.40009208975550736  0.8769032873095857  1.0000
  C   C12       1.0  0.4377889963226441  0.23963237586452957  0.5764783855876079  1.0000
  C   C13       1.0  0.4963068073743845  0.1997772944513161  0.5019633625511004  1.0000
  C   C14       1.0  0.5700723901792908  0.25489182712649017  0.5151154860015388  1.0000
  H   H1        1.0  0.5394189369515757  0.4656168990690619  0.7446912800882528  1.0000
  H   H2        1.0  0.3035201764905451  0.38137816733715635  0.5869734043631514  1.0000
  H   H3        1.0  0.2279876473277155  0.48882314000370597  0.9541708048803057  1.0000
  H   H4        1.0  0.3584316880444177  0.4563513608359957  0.053129906526091064  1.0000
  H   H5        1.0  0.4616044356745697  0.38508279422741887  0.9230063393196553  1.0000
  H   H6        1.0  0.381300301295927  0.19430074798760733  0.5658099422795946  1.0000
  H   H7        1.0  0.48447342462519766  0.12572490843026407  0.434105078986303  1.0000
  H   H8        1.0  0.6149340554416481  0.2231613532127954  0.456777005260379  1.0000
  C   C15       1.0  0.9214380659747599  0.08065723285348914  0.6430751164200914  1.0000
  C   C16       1.0  0.9251751602119804  0.09021326982596722  0.5067120080944207  1.0000
  C   C17       1.0  0.9261889025349709  0.9778261745552288  0.43780067582997795  1.0000
  C   C18       1.0  0.9251846287275001  0.854945246171683  0.507030185501832  1.0000
  C   C19       1.0  0.9215183066644712  0.8433914905241929  0.6433468897710273  1.0000
  C   C20       1.0  0.9194643863062424  0.9568415132111984  0.7105483083895918  1.0000
  C   C21       1.0  0.9309407496958765  0.9878080633951531  0.29393517164951644  1.0000
  O   O1        1.0  0.9678699155534357  0.9036933618594674  0.24200449811515146  1.0000
  C   C22       1.0  0.8937858437552351  0.09313154699373527  0.20898586439583444  1.0000
  C   C23       1.0  0.9266522879470157  0.13925549402010073  0.09169726339624429  1.0000
  C   C24       1.0  0.8915205799021566  0.23765599717627928  0.010034706295686702  1.0000
  C   C25       1.0  0.925875556595303  0.28502977155396403  0.8906814926803075  1.0000
  N   N3        1.0  0.9534954273684223  0.3231085831743483  0.7947390987008176  1.0000
  C   C26       1.0  0.8229497118318775  0.2898274518744606  0.04460629259579041  1.0000
  C   C27       1.0  0.7894357410861188  0.24346529040616205  0.16010240558897748  1.0000
  C   C28       1.0  0.8243471691713127  0.14535265549647503  0.24173557100241538  1.0000
  H   H9        1.0  0.9155655409965046  0.2699903016525351  0.9005899963397845  1.0000
  H   H10       1.0  0.9281611878096757  0.1852874410303169  0.4540679523567881  1.0000
  H   H11       1.0  0.9265347597757695  0.7681868367142997  0.454126860435381  1.0000
  H   H12       1.0  0.9165837794556496  0.9486706335218537  0.8156745801635672  1.0000
  H   H13       1.0  0.9207556077135244  0.5115208062267447  0.6958111970024283  1.0000
  H   H14       1.0  0.9798595990228242  0.09949775140958694  0.06446585971022722  1.0000
  H   H15       1.0  0.7952966085684429  0.3658601774088619  0.9821063971534931  1.0000
  H   H16       1.0  0.7360975087652339  0.28323394594737183  0.18617007927852391  1.0000
  H   H17       1.0  0.796623448931212  0.10939884831781543  0.32962956294442214  1.0000
  C   C29       1.0  0.9215042795199382  0.46216786547504585  0.2618264253770053  1.0000
  C   C30       1.0  0.9805688602652448  0.5578558600132688  0.258240047168528  1.0000
  C   C31       1.0  0.009763484705110237  0.6071724652657997  0.1391254437261955  1.0000
  C   C32       1.0  0.9804446185978073  0.5576127034661804  0.023004499489531538  1.0000
  C   C33       1.0  0.9214520657763264  0.46188090265165327  0.024595617320916974  1.0000
  C   C34       1.0  0.8921857161831925  0.4149577300363314  0.14450146922702722  1.0000
  C   C35       1.0  0.0726823881375469  0.707236553817298  0.1353213281065122  1.0000
  O   O2        1.0  0.12170971336637093  0.7046905277515723  0.04968960821384605  1.0000
  C   C36       1.0  0.07997145842639086  0.8102002294743686  0.22857893506784754  1.0000
  C   C37       1.0  0.15293337478272395  0.8599445597381006  0.26631164887989356  1.0000
  C   C38       1.0  0.16037810191462243  0.9582813349108954  0.3531705935780549  1.0000
  C   C39       1.0  0.23530445025789803  0.007902042271679566  0.39209481013661773  1.0000
  N   N4        1.0  0.29553679261240706  0.04778588363448  0.4233817317121693  1.0000
  C   C40       1.0  0.09486813860866228  0.008274377296834778  0.4020311561721688  1.0000
  C   C41       1.0  0.022162015207901842  0.9605528604440952  0.36381908330740353  1.0000
  C   C42       1.0  0.014564733550576747  0.8624794144853118  0.2772233297047526  1.0000
  H   H18       1.0  0.8108491611863412  0.2801649646933797  0.47609461300945166  1.0000
  H   H19       1.0  0.004524523016953941  0.5931023815188141  0.3483920318363074  1.0000
  H   H20       1.0  0.0032847672081257606  0.5948451072686478  0.9311376590860658  1.0000
  H   H21       1.0  0.8466514950473686  0.3411886198095946  0.14646250655556048  1.0000
  H   H22       1.0  0.8992321201383154  0.4243246675171508  0.6978477233975897  1.0000
  H   H23       1.0  0.20393302184185802  0.8214494235612755  0.22908278258520953  1.0000
  H   H24       1.0  0.09999404418001379  0.08437613127758858  0.4691554486585219  1.0000
  H   H25       1.0  0.9715446997077422  4.337677124688355e-05  0.40093070237719974  1.0000
  H   H26       1.0  0.9575760464264177  0.8285994778972792  0.2472539211792999  1.0000
  Zn  Zn1       1.0  0.8374121183572235  0.4583581966262704  0.6363458696386919  1.0000
  Zn  Zn2       1.0  0.005536906001243125  0.46568960140015814  0.6500749434666195  1.0000
  C   C43       1.0  0.9214596985781804  0.45676132731802577  0.8804138973813709  1.0000
  C   C44       1.0  0.9214911618613993  0.4672881893525527  0.40600719370056515  1.0000
  C   C45       1.0  0.9214995426301191  0.6992202706696551  0.6381198154500236  1.0000
  C   C46       1.0  0.9214512602713415  0.22482768315744162  0.6483013396326409  1.0000
  O   O3        1.0  0.9852892395805416  0.47178318093514937  0.4596056866067295  1.0000
  O   O4        1.0  0.9852644444605823  0.457829722731552  0.83723507963097  1.0000
  O   O5        1.0  0.9852957588560645  0.6536183477859507  0.6415808244459236  1.0000
  O   O6        1.0  0.9852578678230982  0.27599456270597744  0.6552598397316158  1.0000
  O   O7        1.0  0.8576910991626302  0.6480532328200188  0.6311609686818054  1.0000
  O   O8        1.0  0.8576597849325288  0.4522661681086697  0.8268151551742335  1.0000
  O   O9        1.0  0.8576845802055896  0.4662195816456387  0.44918420067321163  1.0000
  O   O10       1.0  0.8576532084373691  0.27043095409080764  0.644838451166369  1.0000
