data_image0
_chemical_formula_structural       NC11NC3H8C7OC3OC4H12C6NCOC6H11Zn2C4O8
_chemical_formula_sum              "N3 C45 H31 O11 Zn2"
_cell_length_a       17.807433833752565
_cell_length_b       10.299371110280156
_cell_length_c       10.299662537453274
_cell_angle_alpha    85.55769285269643
_cell_angle_beta     88.51134067563711
_cell_angle_gamma    90.69823053252264

_space_group_name_H-M_alt    "P 1"
_space_group_IT_number       1

loop_
  _space_group_symop_operation_xyz
  'x, y, z'

loop_
  _atom_site_type_symbol
  _atom_site_label
  _atom_site_symmetry_multiplicity
  _atom_site_fract_x
  _atom_site_fract_y
  _atom_site_fract_z
  _atom_site_occupancy
  N   N1        1.0  0.7078008953627294  0.43903486046553275  0.5350931917896755  1.0000
  C   C1        1.0  0.6569678679338813  0.40428298831975473  0.601645512790975  1.0000
  C   C2        1.0  0.5937264577085403  0.36105452504040625  0.6844281066016262  1.0000
  C   C3        1.0  0.60542865510011  0.2974579529050032  0.8071281898022442  1.0000
  C   C4        1.0  0.5440951679798328  0.2559101309099441  0.8876273565265069  1.0000
  C   C5        1.0  0.4709050081733466  0.27764537055401917  0.8460671459618636  1.0000
  C   C6        1.0  0.4582260997926428  0.3413966673833295  0.722906907382634  1.0000
  C   C7        1.0  0.3804682710596782  0.36446307598966543  0.6785664262182456  1.0000
  C   C8        1.0  0.3616998521434217  0.3476391976534441  0.5489782824584695  1.0000
  C   C9        1.0  0.2884797505832609  0.36933572552972027  0.5073739870572795  1.0000
  C   C10       1.0  0.23308514667943522  0.4081749682342286  0.5945376495829233  1.0000
  C   C11       1.0  0.15772859413516  0.4305304748186798  0.5515722483820653  1.0000
  N   N2        1.0  0.09714729869103361  0.44850264130601714  0.5170311928190392  1.0000
  C   C12       1.0  0.2511621014552863  0.42520962362104475  0.7235947178412943  1.0000
  C   C13       1.0  0.3243294023417189  0.4034780699857854  0.7654544358463633  1.0000
  C   C14       1.0  0.5204168959860366  0.3829399182769935  0.6424241553048748  1.0000
  H   H1        1.0  0.6618876471412493  0.28003088441842294  0.8404886972532815  1.0000
  H   H2        1.0  0.5532739602449305  0.20642210390273785  0.9823492057004897  1.0000
  H   H3        1.0  0.4242526263677123  0.24306539498870805  0.9094961822501388  1.0000
  H   H4        1.0  0.4033832241619831  0.3160228827689293  0.48025030568939076  1.0000
  H   H5        1.0  0.2750498576968848  0.3554923319205012  0.4073331820195498  1.0000
  H   H6        1.0  0.208761852417056  0.4556030975512275  0.7918075214115079  1.0000
  H   H7        1.0  0.3372310929005247  0.4188669496654249  0.8653129829803021  1.0000
  H   H8        1.0  0.5119367309245095  0.43379021771877535  0.5479370669027239  1.0000
  C   C15       1.0  0.9024270525853537  0.06239624924530496  0.5259495468623805  1.0000
  C   C16       1.0  0.8937895589981205  0.0715264305630472  0.3903645968982328  1.0000
  C   C17       1.0  0.8885844086772183  0.9589238207821349  0.322186858563831  1.0000
  C   C18       1.0  0.8938268068580859  0.8362593347167745  0.3906739561616708  1.0000
  C   C19       1.0  0.9025283249332018  0.8251314393519806  0.5261857019861105  1.0000
  C   C20       1.0  0.9065813979115159  0.9387913120649852  0.593086177663773  1.0000
  C   C21       1.0  0.8802473175405405  0.9684557370551765  0.17882602631606082  1.0000
  O   O1        1.0  0.9110522125446877  0.8841909623914874  0.11337376814380007  1.0000
  C   C22       1.0  0.8369552658839083  0.07349977187537915  0.10972325362900204  1.0000
  C   C23       1.0  0.8579717867120789  0.11922033470624349  0.9816052199668999  1.0000
  C   C24       1.0  0.8173457255966702  0.21727270204215143  0.914108815807066  1.0000
  O   O2        1.0  0.8413486685920943  0.2597128366457835  0.786896954688205  1.0000
  C   C25       1.0  0.8055490051409614  0.358359080930545  0.7071224130911182  1.0000
  C   C26       1.0  0.7543168693308578  0.2695760633901305  0.9755210905193432  1.0000
  C   C27       1.0  0.7325292565517818  0.22354750194041872  0.10215783067140549  1.0000
  C   C28       1.0  0.7732887413278142  0.12577997251653117  0.16889586461241035  1.0000
  H   H9        1.0  0.9198733755810096  0.2525340601560342  0.7815341852524031  1.0000
  H   H10       1.0  0.8919365689700042  0.16643645695603348  0.3374206303718785  1.0000
  H   H11       1.0  0.8903798493512906  0.7493356977487946  0.3381112044193446  1.0000
  H   H12       1.0  0.9132407561202548  0.9309488217890006  0.697612217034711  1.0000
  H   H13       1.0  0.9064959728044908  0.4934245497480844  0.5780887132902623  1.0000
  H   H14       1.0  0.9065522822458012  0.07952330927067863  0.9339785142456449  1.0000
  H   H15       1.0  0.8362082620995783  0.37223235121867426  0.6118288492784325  1.0000
  H   H16       1.0  0.8066494055445848  0.451824222538165  0.7540906115559465  1.0000
  H   H17       1.0  0.7466759446800159  0.3287018272604474  0.6900892772035325  1.0000
  H   H18       1.0  0.7216913771634504  0.34530175687040066  0.9261459381458232  1.0000
  H   H19       1.0  0.6836649917166421  0.2633995074724189  0.1485759635883348  1.0000
  H   H20       1.0  0.7545345035240544  0.09013813187819508  0.26614494768761365  1.0000
  C   C29       1.0  0.9025294192592525  0.44390562447267423  0.1446892777154789  1.0000
  C   C30       1.0  0.9792240873781805  0.47814532997123593  0.1373275962981697  1.0000
  C   C31       1.0  0.018080077050631527  0.4935153355687214  0.016924930092462542  1.0000
  C   C32       1.0  0.9790925874814989  0.4778320576238806  0.902190302191967  1.0000
  C   C33       1.0  0.9024259728774138  0.44362203873206996  0.9074459442424474  1.0000
  C   C34       1.0  0.8646413209619774  0.42640898602716715  0.02924068358176113  1.0000
  N   N3        1.0  0.09631636830330503  0.530503550070089  0.012822996624991756  1.0000
  C   C35       1.0  0.14948168219049118  0.49194616111318323  0.9161310348528908  1.0000
  O   O3        1.0  0.13576621580016912  0.3930539912486468  0.8551846675286265  1.0000
  C   C36       1.0  0.2216210569222976  0.5640294042014962  0.8904562096731738  1.0000
  C   C37       1.0  0.2307015345429606  0.6923210378925888  0.9264292114767061  1.0000
  C   C38       1.0  0.2988650121805567  0.7595344071085437  0.9010971680876843  1.0000
  C   C39       1.0  0.3584944117515032  0.69995713132322  0.8393368155204204  1.0000
  C   C40       1.0  0.35002374071746956  0.5731267160668791  0.8023300131490063  1.0000
  C   C41       1.0  0.2819882956286226  0.5054594260486942  0.8273268932410693  1.0000
  H   H21       1.0  0.7576846405081531  0.3805200292280819  0.3657546883742844  1.0000
  H   H22       1.0  0.009325788864182005  0.4920965471564722  0.2253557070685721  1.0000
  H   H23       1.0  0.00819294954577554  0.4945036881765825  0.8087321562267  1.0000
  H   H24       1.0  0.805520748763852  0.39999713805891646  0.0340514826214382  1.0000
  H   H25       1.0  0.8727743276750868  0.4321739100931874  0.5818945438350349  1.0000
  H   H26       1.0  0.11682586538039041  0.5782063187924675  0.09080904277179647  1.0000
  H   H27       1.0  0.1850600307221264  0.741746623122999  0.9723363614438831  1.0000
  H   H28       1.0  0.30534085722950755  0.858171877750872  0.9289436992089497  1.0000
  H   H29       1.0  0.4111787012067485  0.7522166265929269  0.8197913360770372  1.0000
  H   H30       1.0  0.3962210096213796  0.5271319715279028  0.7542011791826826  1.0000
  H   H31       1.0  0.27679981592321234  0.4070758824940457  0.7980456732563441  1.0000
  Zn  Zn1       1.0  0.8201578553402221  0.4417635800459505  0.5298883726754493  1.0000
  Zn  Zn2       1.0  0.9847903211069954  0.4457632980959447  0.5222465949206048  1.0000
  C   C42       1.0  0.9024431442859179  0.438501884889569  0.7632670849352821  1.0000
  C   C43       1.0  0.9025068301429688  0.44902667551706865  0.28886792718970744  1.0000
  C   C44       1.0  0.9025060110497131  0.6809600734479551  0.520965929131316  1.0000
  C   C45       1.0  0.902443906985072  0.2065669252505382  0.5311691543585555  1.0000
  O   O4        1.0  0.9649764110461545  0.4522575533883313  0.3343555824548916  1.0000
  O   O5        1.0  0.9649257954844005  0.43830572087814446  0.7119791230142807  1.0000
  O   O6        1.0  0.9649757187860004  0.6340937534776498  0.5163192648939194  1.0000
  O   O7        1.0  0.9649264315810886  0.25646952875050655  0.5300153458086767  1.0000
  O   O8        1.0  0.8400216886851493  0.6310573480278976  0.5221196243883104  1.0000
  O   O9        1.0  0.8399717655966716  0.43527087577304546  0.7177794137447229  1.0000
  O   O10       1.0  0.8400223814141944  0.449222663608545  0.34015431172973676  1.0000
  O   O11       1.0  0.8399724019316148  0.2534346296455485  0.5358141724510315  1.0000
