data_image0
_chemical_formula_structural       NC10NC5H10C7OC3NC3H11C6NCOC6H11Zn2C4O8
_chemical_formula_sum              "N4 C45 H32 O10 Zn2"
_cell_length_a       19.4436361288709
_cell_length_b       10.298746005989749
_cell_length_c       10.299662537453274
_cell_angle_alpha    85.54306763902353
_cell_angle_beta     89.69093770751046
_cell_angle_gamma    89.42734808848358

_space_group_name_H-M_alt    "P 1"
_space_group_IT_number       1

loop_
  _space_group_symop_operation_xyz
  'x, y, z'

loop_
  _atom_site_type_symbol
  _atom_site_label
  _atom_site_symmetry_multiplicity
  _atom_site_fract_x
  _atom_site_fract_y
  _atom_site_fract_z
  _atom_site_occupancy
  N   N1        1.0  0.6479431872881284  0.4099665470134888  0.5621861197225528  1.0000
  C   C1        1.0  0.5891071445344337  0.41986128580326065  0.5765712711337896  1.0000
  C   C2        1.0  0.5157777232265234  0.43220132183813753  0.5945650568276069  1.0000
  C   C3        1.0  0.4735974371867844  0.4002542235103568  0.499886476924585  1.0000
  C   C4        1.0  0.3976932733490515  0.410690404831215  0.5052155842685286  1.0000
  C   C5        1.0  0.3579448303502753  0.3858812527101667  0.6122881582815132  1.0000
  C   C6        1.0  0.2818254690608311  0.3898053597276947  0.5993288427493346  1.0000
  C   C7        1.0  0.2412609990544314  0.44741942604429896  0.693106600786598  1.0000
  C   C8        1.0  0.16959860369321691  0.45106330820461626  0.6825627913084329  1.0000
  C   C9        1.0  0.1375058710806294  0.3966969221418559  0.5785277218841005  1.0000
  C   C10       1.0  0.0637142464491483  0.4004021384438827  0.5678286324235919  1.0000
  N   N2        1.0  0.0043907852505142  0.40338093784269735  0.5592272738388817  1.0000
  C   C11       1.0  0.1773453665839056  0.33837549624877417  0.4851331450208769  1.0000
  C   C12       1.0  0.249024203469099  0.33467752512134386  0.49542516687398996  1.0000
  C   C13       1.0  0.3860655034366651  0.3453446527635693  0.7433820694828275  1.0000
  C   C14       1.0  0.44472942942162086  0.38844383450983844  0.7906293733491301  1.0000
  C   C15       1.0  0.48894985168527993  0.4863510611833033  0.7162689303412488  1.0000
  H   H1        1.0  0.495700174986237  0.3711847943573501  0.4095751516635944  1.0000
  H   H2        1.0  0.3730029759584618  0.4332384569250036  0.41205719703387933  1.0000
  H   H3        1.0  0.2651295222793644  0.4906690178817674  0.7739604752396032  1.0000
  H   H4        1.0  0.1392525613753929  0.4963411786067127  0.7554892068302967  1.0000
  H   H5        1.0  0.153004954202368  0.2953213923718152  0.40461377794367337  1.0000
  H   H6        1.0  0.2787043991758638  0.2871556999643381  0.42319490231891743  1.0000
  H   H7        1.0  0.3550904464059575  0.2810868585083055  0.8076247246654418  1.0000
  H   H8        1.0  0.45986995982473955  0.35431964281521244  0.8885629329131983  1.0000
  H   H9        1.0  0.4588499681058208  0.577086577412343  0.6910244455366934  1.0000
  H   H10       1.0  0.5322327703403055  0.5119041684175873  0.7793575204208631  1.0000
  C   C16       1.0  0.8261374105232009  0.025272217600798674  0.5606897965627478  1.0000
  C   C17       1.0  0.8583270672776602  0.03323069421669533  0.43791705754582466  1.0000
  C   C18       1.0  0.8738805542044186  0.9201451392168187  0.37515421750566236  1.0000
  C   C19       1.0  0.8583275890603974  0.7979941029756512  0.4378679156045997  1.0000
  C   C20       1.0  0.8262031269939548  0.7880651782603436  0.5607348061465547  1.0000
  C   C21       1.0  0.8101463400843206  0.9022696143727273  0.6212130182141453  1.0000
  C   C22       1.0  0.908457063562135  0.9283467048731362  0.24605033737832516  1.0000
  O   O1        1.0  0.9504546069685953  0.8396024748081214  0.22048920715578602  1.0000
  C   C23       1.0  0.8953914667056248  0.03716420002755472  0.14595205337854456  1.0000
  C   C24       1.0  0.8302665088218996  0.09776416082163708  0.13438506844039622  1.0000
  C   C25       1.0  0.8182261999191487  0.19969443515879193  0.03857721684315085  1.0000
  N   N3        1.0  0.7520001293084787  0.26115658786320983  0.02792275757706464  1.0000
  C   C26       1.0  0.8713535568889751  0.2406320398864532  0.95300117401213  1.0000
  C   C27       1.0  0.9358509330640389  0.1798796217062364  0.9627172778836268  1.0000
  C   C28       1.0  0.9478377811863721  0.07837492585145722  0.058221362216215766  1.0000
  H   H11       1.0  0.7662684986221092  0.21751183990240164  0.7935247220923611  1.0000
  H   H12       1.0  0.8720103746789258  0.12751240938510255  0.3915812078055594  1.0000
  H   H13       1.0  0.8707378908077169  0.7105915267962248  0.39006653567315897  1.0000
  H   H14       1.0  0.785337316663828  0.8953829257842125  0.7158504339357452  1.0000
  H   H15       1.0  0.7657627059224641  0.5619815702482469  0.7930859449773409  1.0000
  H   H16       1.0  0.7886070851400354  0.06510522214051684  0.19869413887853749  1.0000
  H   H17       1.0  0.7120302435761239  0.23141686731331945  0.09120633168296699  1.0000
  H   H18       1.0  0.7424674487636286  0.3369753871048813  0.9567627786149662  1.0000
  H   H19       1.0  0.8626950506468635  0.31917212644131676  0.8785851629666905  1.0000
  H   H20       1.0  0.9766679368180083  0.21151941209917569  0.8960828669521073  1.0000
  H   H21       1.0  0.9982803050079584  0.0327985326296385  0.06433026822181365  1.0000
  C   C29       1.0  0.8262176316255272  0.40680835162881634  0.1793359414267106  1.0000
  C   C30       1.0  0.8964306462478541  0.43788844147102557  0.1749410663500428  1.0000
  C   C31       1.0  0.932002891379474  0.45165752345345855  0.05604198534611826  1.0000
  C   C32       1.0  0.8963102687335021  0.4375805658969958  0.9397987504840035  1.0000
  C   C33       1.0  0.8261229361479239  0.40652900832522665  0.9420886670089832  1.0000
  C   C34       1.0  0.7915315695235062  0.3908725544790226  0.062421857675101  1.0000
  N   N4        1.0  0.003627169921741835  0.4854227788392258  0.05496596651969754  1.0000
  C   C35       1.0  0.0523015570444445  0.44467006247596896  0.9603465460866611  1.0000
  O   O2        1.0  0.039748499889905364  0.3463354000933645  0.898893341039583  1.0000
  C   C36       1.0  0.11834284657608851  0.5137845939923682  0.9374521160702791  1.0000
  C   C37       1.0  0.1266515159599002  0.6417122247272031  0.9737446117110529  1.0000
  C   C38       1.0  0.18905303064104984  0.7061204274084785  0.951039953887705  1.0000
  C   C39       1.0  0.24364605346479506  0.6440795799178618  0.8916083081646011  1.0000
  C   C40       1.0  0.23589561236526047  0.517588141762245  0.8543052972763157  1.0000
  C   C41       1.0  0.17361132796933454  0.4527207021781299  0.8766798752206615  1.0000
  H   H22       1.0  0.693613993219589  0.34939007860321225  0.3947979443710514  1.0000
  H   H23       1.0  0.9239883613774207  0.4505995905069402  0.2641334805685158  1.0000
  H   H24       1.0  0.9229511580296453  0.45305363801936704  0.8474653628436739  1.0000
  H   H25       1.0  0.7374074217394478  0.3668963148561757  0.06494567978848509  1.0000
  H   H26       1.0  0.7989771605083077  0.3963025936607272  0.615389784138825  1.0000
  H   H27       1.0  0.022401995783505324  0.5322837411075831  0.13373553172676944  1.0000
  H   H28       1.0  0.0848648177202318  0.6930237862421913  0.017868346256544765  1.0000
  H   H29       1.0  0.19497819918980808  0.8044988854199391  0.9791125086011383  1.0000
  H   H30       1.0  0.2918768484509302  0.6941709567553487  0.874093484297823  1.0000
  H   H31       1.0  0.27819099403589975  0.469684783347464  0.8079805637150321  1.0000
  H   H32       1.0  0.16886473772701738  0.3545431091872122  0.8472225132770381  1.0000
  Zn  Zn1       1.0  0.7508062644031235  0.4080626080469887  0.5613397727962333  1.0000
  Zn  Zn2       1.0  0.9015276974102118  0.40527426430919133  0.5600843015275774  1.0000
  C   C42       1.0  0.8261388377559287  0.4014077306716286  0.7979117832083398  1.0000
  C   C43       1.0  0.8261967700561441  0.41193074994867107  0.32351240497143285  1.0000
  C   C44       1.0  0.8261878155072211  0.643883015365543  0.5555510663516692  1.0000
  C   C45       1.0  0.8261477407311076  0.16945390574512698  0.5658731914043871  1.0000
  O   O3        1.0  0.8833877665694947  0.41258604547663724  0.37142289806734263  1.0000
  O   O4        1.0  0.8833419214003913  0.3986351670953523  0.7490480425579755  1.0000
  O   O5        1.0  0.8833807003299028  0.5944370397741916  0.5533400554564409  1.0000
  O   O6        1.0  0.8833489362218603  0.21678418307594582  0.5671307882212622  1.0000
  O   O7        1.0  0.7689849741576481  0.5965526902331755  0.5542932865241483  1.0000
  O   O8        1.0  0.7689461953680532  0.40075237801690666  0.7500012044709996  1.0000
  O   O9        1.0  0.7689920407728943  0.41470321170933033  0.37237449854611704  1.0000
  O   O10       1.0  0.7689532104095557  0.2189013399834323  0.5680824860692515  1.0000
